### 
### Created by X-TOOL on Mon Sep 10 21:13:09 2018
### 

@<TRIPOS>MOLECULE
3v4x_ligand
   56    55     1     0     0
SMALL
GAST_HUCK


@<TRIPOS>ATOM
      1 C1         31.3570   -1.5370   13.7040 C.3       1 F24         0.0793
      2 O1         34.3510    9.3150   22.2400 O.co2     1 F24        -0.5690
      3 C2         32.3100   -1.3310   14.9210 C.3       1 F24         0.0755
      4 O2         30.1400   -3.5610   13.2900 O.2       1 F24        -0.3745
      5 C3         34.7530    8.1950   22.6200 C.2       1 F24         0.0351
      6 C4         31.9080   -0.8090   12.4560 C.3       1 F24         0.0649
      7 O4         34.7590    7.7710   23.7950 O.co2     1 F24        -0.5690
      8 C5         31.8740   -0.1970   15.9000 C.3       1 F24        -0.0243
      9 O5         30.8520   -0.7970   11.5290 O.3       1 F24        -0.3922
     10 C6         35.2790    7.2840   21.5170 C.3       1 F24         0.0028
     11 O6         32.2600   -2.5140   15.6680 O.3       1 F24        -0.3890
     12 C7         34.1420    6.3090   19.0890 C.3       1 F24        -0.0624
     13 C8         31.2130   -3.0140   13.3450 C.2       1 F24         0.1069
     14 C9         35.5530    5.9940   21.7150 C.3       1 F24        -0.0321
     15 C10        32.0460    1.2280   15.3480 C.3       1 F24        -0.0505
     16 C11        31.8130    2.3380   16.4070 C.3       1 F24        -0.0527
     17 C12        34.8730    4.9310   20.9540 C.3       1 F24        -0.0463
     18 C13        32.0900    3.1900   19.9800 C.3       1 F24        -0.0624
     19 C14        34.5600    4.9980   19.6460 C.3       1 F24        -0.0433
     20 C16        34.2440    3.7660   18.8380 C.3       1 F24        -0.0479
     21 C18        32.7460    3.3940   18.6130 C.3       1 F24        -0.0436
     22 C20        32.5270    2.1050   17.7590 C.3       1 F24        -0.0504
     23 C21        36.7550    5.6460   22.5240 C.3       1 F24        -0.0609
     24 H          30.3875   -1.1323   13.9947 H         1 F24         0.0577
     25 H          33.2881   -1.0667   14.5191 H         1 F24         0.0623
     26 H          32.7855   -1.3156   12.0541 H         1 F24         0.0587
     27 H          32.2381    0.2014   12.6973 H         1 F24         0.0587
     28 H          32.5110   -0.2755   16.7810 H         1 F24         0.0292
     29 H          30.8105   -0.3363   16.0942 H         1 F24         0.0292
     30 H          31.1371   -0.3539   10.7266 H         1 F24         0.2096
     31 H          36.2530    7.7131   21.2819 H         1 F24         0.0433
     32 H          34.4572    7.2579   20.8015 H         1 F24         0.0433
     33 H          32.5204   -3.2528   15.1130 H         1 F24         0.2100
     34 H          33.2494    6.6556   19.6098 H         1 F24         0.0232
     35 H          34.9463    7.0323   19.2230 H         1 F24         0.0232
     36 H          33.9245    6.1983   18.0267 H         1 F24         0.0232
     37 H          32.1109   -3.5937   13.1311 H         1 F24         0.1353
     38 H          34.7337    5.9211   22.4302 H         1 F24         0.0316
     39 H          31.3033    1.3655   14.5622 H         1 F24         0.0266
     40 H          33.0743    1.3208   14.9987 H         1 F24         0.0266
     41 H          30.7430    2.3585   16.6137 H         1 F24         0.0265
     42 H          32.2162    3.2615   15.9913 H         1 F24         0.0265
     43 H          33.8914    4.8978   21.4268 H         1 F24         0.0271
     44 H          35.6049    4.1236   20.9771 H         1 F24         0.0271
     45 H          32.5997    2.3852   20.5097 H         1 F24         0.0232
     46 H          32.1639    4.1111   20.5581 H         1 F24         0.0232
     47 H          31.0407    2.9289   19.8427 H         1 F24         0.0232
     48 H          35.6201    4.9334   19.4007 H         1 F24         0.0298
     49 H          34.6637    2.9354   19.4055 H         1 F24         0.0270
     50 H          34.6425    3.9654   17.8433 H         1 F24         0.0270
     51 H          32.2995    4.2157   18.0530 H         1 F24         0.0298
     52 H          33.5147    1.7043   17.5309 H         1 F24         0.0268
     53 H          31.8897    1.4418   18.3439 H         1 F24         0.0268
     54 H          37.6449    6.0530   22.0438 H         1 F24         0.0233
     55 H          36.6539    6.0696   23.5232 H         1 F24         0.0233
     56 H          36.8424    4.5618   22.5947 H         1 F24         0.0233
@<TRIPOS>BOND
     1    3    1 1  
     2    1    6 1  
     3    1   13 1  
     4    5    2 ar 
     5    8    3 1  
     6    3   11 1  
     7   13    4 2  
     8    5    7 ar 
     9   10    5 1  
    10    6    9 1  
    11   15    8 1  
    12   14   10 1  
    13   19   12 1  
    14   17   14 1  
    15   14   23 1  
    16   16   15 1  
    17   22   16 1  
    18   19   17 1  
    19   21   18 1  
    20   20   19 1  
    21   21   20 1  
    22   21   22 1  
    23    1   24 1  
    24    3   25 1  
    25    6   26 1  
    26    6   27 1  
    27    8   28 1  
    28    8   29 1  
    29    9   30 1  
    30   10   31 1  
    31   10   32 1  
    32   11   33 1  
    33   12   34 1  
    34   12   35 1  
    35   12   36 1  
    36   13   37 1  
    37   14   38 1  
    38   15   39 1  
    39   15   40 1  
    40   16   41 1  
    41   16   42 1  
    42   17   43 1  
    43   17   44 1  
    44   18   45 1  
    45   18   46 1  
    46   18   47 1  
    47   19   48 1  
    48   20   49 1  
    49   20   50 1  
    50   21   51 1  
    51   22   52 1  
    52   22   53 1  
    53   23   54 1  
    54   23   55 1  
    55   23   56 1  
@<TRIPOS>SUBSTRUCTURE
     1 F24         1

