### 
### Created by X-TOOL on Mon Sep 10 21:13:10 2018
### 

@<TRIPOS>MOLECULE
3v51_ligand
   54    58     1     0     0
SMALL
GAST_HUCK


@<TRIPOS>ATOM
      1 CAA        17.5330   17.8720   63.3040 C.3       1 I76        -0.0338
      2 CBE        17.5160   16.5880   62.4770 C.3       1 I76         0.0755
      3 CAB        17.4140   16.9150   60.9690 C.3       1 I76        -0.0338
      4 NBF        16.3950   15.7050   62.8790 N.pl3     1 I76        -0.1810
      5 NAS        15.2470   16.0710   63.1930 N.2       1 I76        -0.1941
      6 C4         16.5240   14.3880   62.9050 C.ar      1 I76         0.1635
      7 N3         17.5700   13.5810   62.6500 N.ar      1 I76        -0.2675
      8 C2         17.4310   12.2710   62.7750 C.ar      1 I76         0.0565
      9 N1         16.2800   11.7150   63.1410 N.ar      1 I76        -0.2656
     10 C6         15.1950   12.4770   63.4180 C.ar      1 I76         0.1274
     11 NAC        14.0690   11.8450   63.7770 N.pl3     1 I76        -0.3126
     12 C5         15.2950   13.8700   63.3070 C.ar      1 I76         0.0869
     13 CAZ        14.4860   15.0100   63.5050 C.2       1 I76         0.0707
     14 CAY        13.1230   15.0230   63.8770 C.ar      1 I76        -0.0104
     15 CAO        12.6270   14.3670   65.0030 C.ar      1 I76        -0.0505
     16 CAI        12.2150   15.7750   63.1030 C.ar      1 I76        -0.0571
     17 CAK        10.8550   15.8130   63.4260 C.ar      1 I76        -0.0594
     18 CBA        10.3640   15.1280   64.5220 C.ar      1 I76        -0.0285
     19 CAN         9.0160   15.1700   64.8330 C.ar      1 I76        -0.0286
     20 CBB        11.2660   14.4120   65.3270 C.ar      1 I76        -0.0244
     21 CAJ        10.7910   13.7280   66.4270 C.ar      1 I76        -0.0563
     22 CAH         9.4420   13.7650   66.7380 C.ar      1 I76        -0.0271
     23 CAW         8.5440   14.4890   65.9430 C.ar      1 I76         0.0953
     24 OAT         7.2300   14.4700   66.3220 O.3       1 I76        -0.3046
     25 CAP         6.1450   14.8770   65.4390 C.3       1 I76         0.1047
     26 CAV         4.8880   15.0650   66.0690 C.ar      1 I76        -0.0123
     27 CAM         3.8240   15.6870   65.4080 C.ar      1 I76        -0.0439
     28 CAU         2.6290   15.8800   66.0930 C.ar      1 I76         0.0339
     29 CLD         1.3210   16.6410   65.2720 Cl        1 I76        -0.0725
     30 CAF         2.4610   15.4820   67.4100 C.ar      1 I76        -0.0548
     31 CAE         3.5260   14.8710   68.0740 C.ar      1 I76        -0.0680
     32 CAG         4.7120   14.6800   67.3980 C.ar      1 I76        -0.0576
     33 H1         18.3739   18.5040   62.9825 H         1 I76         0.0259
     34 H2         17.6491   17.6209   64.3686 H         1 I76         0.0259
     35 H3         16.5883   18.4158   63.1564 H         1 I76         0.0259
     36 H4         18.4599   16.0519   62.6546 H         1 I76         0.0655
     37 H5         17.4031   15.9793   60.3909 H         1 I76         0.0259
     38 H6         18.2793   17.5230   60.6663 H         1 I76         0.0259
     39 H7         16.4870   17.4753   60.7772 H         1 I76         0.0259
     40 H8         18.2822   11.6311   62.5727 H         1 I76         0.1030
     41 H9         13.2213   12.3876   63.9961 H         1 I76         0.1842
     42 H10        14.0513   10.8167   63.8338 H         1 I76         0.1842
     43 H11        13.3075   13.8123   65.6388 H         1 I76         0.0618
     44 H12        12.5764   16.3313   62.2457 H         1 I76         0.0611
     45 H13        10.1754   16.3882   62.8077 H         1 I76         0.0592
     46 H14         8.3316   15.7342   64.2098 H         1 I76         0.0499
     47 H15        11.4745   13.1610   67.0486 H         1 I76         0.0618
     48 H16         9.0770   13.2279   67.6060 H         1 I76         0.0590
     49 H17         6.0258   14.1019   64.6677 H         1 I76         0.0780
     50 H18         6.4320   15.8265   64.9635 H         1 I76         0.0780
     51 H19         3.9288   16.0131   64.3795 H         1 I76         0.0563
     52 H20         1.5164   15.6429   67.9169 H         1 I76         0.0565
     53 H21         3.4220   14.5518   69.1047 H         1 I76         0.0599
     54 H22         5.5396   14.2127   67.9192 H         1 I76         0.0559
@<TRIPOS>BOND
     1    1    2 1  
     2    2    3 1  
     3    2    4 1  
     4    4    5 1  
     5    4    6 1  
     6    5   13 2  
     7    6    7 ar 
     8    6   12 ar 
     9    7    8 ar 
    10    8    9 ar 
    11    9   10 ar 
    12   10   11 1  
    13   10   12 ar 
    14   12   13 1  
    15   13   14 1  
    16   14   15 ar 
    17   14   16 ar 
    18   15   20 ar 
    19   16   17 ar 
    20   17   18 ar 
    21   18   19 ar 
    22   18   20 ar 
    23   19   23 ar 
    24   20   21 ar 
    25   21   22 ar 
    26   22   23 ar 
    27   23   24 1  
    28   24   25 1  
    29   25   26 1  
    30   26   27 ar 
    31   26   32 ar 
    32   27   28 ar 
    33   28   29 1  
    34   28   30 ar 
    35   30   31 ar 
    36   31   32 ar 
    37    1   33 1  
    38    1   34 1  
    39    1   35 1  
    40    2   36 1  
    41    3   37 1  
    42    3   38 1  
    43    3   39 1  
    44    8   40 1  
    45   11   41 1  
    46   11   42 1  
    47   15   43 1  
    48   16   44 1  
    49   17   45 1  
    50   19   46 1  
    51   21   47 1  
    52   22   48 1  
    53   25   49 1  
    54   25   50 1  
    55   27   51 1  
    56   30   52 1  
    57   31   53 1  
    58   32   54 1  
@<TRIPOS>SUBSTRUCTURE
     1 I76         1

