### 
### Created by X-TOOL on Mon Sep 10 21:13:09 2018
### 

@<TRIPOS>MOLECULE
3v5g_ligand
   24    24     1     0     0
SMALL
GAST_HUCK


@<TRIPOS>ATOM
      1 S1         -5.9660    0.9550   16.6740 S.o2      1 0F3         0.0582
      2 O1         -7.4100    0.9390   16.5910 O.2       1 0F3        -0.1527
      3 O2         -5.4340    1.0440   18.0080 O.2       1 0F3        -0.1527
      4 N1         -5.3600   -0.3250   15.9530 N.am      1 0F3        -0.2627
      5 C1         -3.5910    3.7050   14.7980 C.ar      1 0F3        -0.0437
      6 C2         -4.0120    2.5510   15.5040 C.ar      1 0F3        -0.0513
      7 C3         -5.3960    2.3900   15.7830 C.ar      1 0F3         0.0904
      8 C4         -6.3390    3.3560   15.3630 C.ar      1 0F3        -0.0513
      9 C5         -5.9000    4.4930   14.6640 C.ar      1 0F3        -0.0437
     10 C6         -4.5400    4.6820   14.3770 C.ar      1 0F3         0.0639
     11 N2         -4.1560    5.8690   13.6780 N.am      1 0F3        -0.1751
     12 S2         -2.6930    6.1580   13.0370 S.o2      1 0F3         0.1353
     13 O3         -1.7610    6.2470   14.1290 O.2       1 0F3        -0.1299
     14 O4         -2.8580    7.3110   12.2090 O.2       1 0F3        -0.1299
     15 N3         -2.3000    4.9240   12.1100 N.am      1 0F3        -0.2441
     16 H          -5.9812   -1.0083   15.5199 H         1 0F3         0.1633
     17 H          -4.3498   -0.4632   15.9233 H         1 0F3         0.1633
     18 H          -2.5335    3.8469   14.5751 H         1 0F3         0.0482
     19 H          -3.2889    1.8019   15.8266 H         1 0F3         0.0591
     20 H          -7.3985    3.2197   15.5798 H         1 0F3         0.0591
     21 H          -6.6263    5.2385   14.3403 H         1 0F3         0.0482
     22 H          -4.8626    6.5971   13.5731 H         1 0F3         0.2176
     23 H          -1.4917    4.3475   12.3439 H         1 0F3         0.1653
     24 H          -2.8566    4.7102   11.2825 H         1 0F3         0.1653
@<TRIPOS>BOND
     1    1    2 2  
     2    1    3 2  
     3    1    4 am 
     4    7    1 1  
     5    6    5 ar 
     6    5   10 ar 
     7    6    7 ar 
     8    7    8 ar 
     9    8    9 ar 
    10    9   10 ar 
    11   10   11 1  
    12   11   12 am 
    13   12   13 2  
    14   12   14 2  
    15   12   15 am 
    16    4   16 1  
    17    4   17 1  
    18    5   18 1  
    19    6   19 1  
    20    8   20 1  
    21    9   21 1  
    22   11   22 1  
    23   15   23 1  
    24   15   24 1  
@<TRIPOS>SUBSTRUCTURE
     1 0F3         1

