### 
### Created by X-TOOL on Mon Sep 10 21:13:11 2018
### 

@<TRIPOS>MOLECULE
3v5l_ligand
   56    60     1     0     0
SMALL
GAST_HUCK


@<TRIPOS>ATOM
      1 CBE        14.0830    8.7330    0.4150 C.3       1 0G1         0.0592
      2 OBD        13.0540    9.1270    1.3270 O.3       1 0G1        -0.3223
      3 CBA        11.9110    8.4330    1.0720 C.ar      1 0G1         0.0889
      4 CBB        11.7370    7.1520    1.5980 C.ar      1 0G1        -0.0353
      5 CBC        10.5550    6.4540    1.3510 C.ar      1 0G1        -0.0674
      6 CAZ        10.9080    9.0040    0.2900 C.ar      1 0G1        -0.0353
      7 CAY         9.7290    8.3000    0.0350 C.ar      1 0G1        -0.0674
      8 CAX         9.5660    7.0090    0.5360 C.ar      1 0G1        -0.0370
      9 CAG         8.3890    6.3000    0.3150 C.2       1 0G1         0.0179
     10 CAH         7.2280    6.5520    1.0330 C.ar      1 0G1         0.0146
     11 CAA         6.8620    7.5220    1.9710 C.ar      1 0G1        -0.0516
     12 CAB         5.5670    7.5210    2.4970 C.ar      1 0G1        -0.0643
     13 CAC         4.6410    6.5460    2.1050 C.ar      1 0G1        -0.0560
     14 CAJ         3.2120    6.5460    2.6950 C.3       1 0G1         0.0277
     15 CAK         3.2760    6.7070    4.2180 C.3       1 0G1        -0.0664
     16 CAO         4.0250    5.5430    4.8760 C.3       1 0G1        -0.0740
     17 CAM         2.4140    7.7140    2.1080 C.3       1 0G1        -0.0664
     18 CAN         2.0640    7.4790    0.6360 C.3       1 0G1        -0.0740
     19 OAL         2.5320    5.3190    2.4010 O.3       1 0G1        -0.4447
     20 CAD         5.0230    5.5730    1.1760 C.ar      1 0G1        -0.0178
     21 CAI         6.3090    5.5840    0.6330 C.ar      1 0G1         0.0989
     22 NAE         6.9070    4.7780   -0.2400 N.pl3     1 0G1        -0.2521
     23 CAF         8.1770    5.1410   -0.4440 C.2       1 0G1         0.1083
     24 CAP         9.0170    4.4830   -1.3600 C.2       1 0G1         0.1042
     25 CAT        10.2630    4.8540   -1.8620 C.2       1 0G1         0.0703
     26 SAS        11.5770    5.9160   -1.8420 S.3       1 0G1        -0.0543
     27 CAW        12.5140    5.1070   -2.9870 C.2       1 0G1        -0.0087
     28 CAV        11.8110    4.0290   -3.3620 C.2       1 0G1        -0.0388
     29 CAU        10.6080    3.8480   -2.7710 C.2       1 0G1         0.0820
     30 NAR         9.5780    2.9980   -2.7760 N.pl3     1 0G1        -0.2202
     31 NAQ         8.6830    3.3640   -2.0070 N.2       1 0G1        -0.1980
     32 H          14.2787    7.6667    0.5286 H         1 0G1         0.0577
     33 H          13.7600    8.9377   -0.6057 H         1 0G1         0.0577
     34 H          14.9918    9.2953    0.6296 H         1 0G1         0.0577
     35 H          12.5235    6.6978    2.2008 H         1 0G1         0.0540
     36 H          10.4025    5.4708    1.7961 H         1 0G1         0.0562
     37 H          11.0444   10.0032   -0.1238 H         1 0G1         0.0540
     38 H           8.9365    8.7597   -0.5555 H         1 0G1         0.0562
     39 H           7.5826    8.2749    2.2904 H         1 0G1         0.0613
     40 H           5.2755    8.2849    3.2178 H         1 0G1         0.0653
     41 H           2.2575    6.7251    4.6060 H         1 0G1         0.0145
     42 H           3.8073    7.6313    4.4451 H         1 0G1         0.0145
     43 H           3.5125    4.6082    4.6489 H         1 0G1         0.0220
     44 H           5.0436    5.5035    4.4900 H         1 0G1         0.0220
     45 H           4.0497    5.6924    5.9554 H         1 0G1         0.0220
     46 H           3.0240    8.6148    2.1760 H         1 0G1         0.0145
     47 H           1.4852    7.8118    2.6701 H         1 0G1         0.0145
     48 H           2.9819    7.3661    0.0592 H         1 0G1         0.0220
     49 H           1.4635    6.5737    0.5467 H         1 0G1         0.0220
     50 H           1.4982    8.3305    0.2580 H         1 0G1         0.0220
     51 H           3.0144    4.5859    2.7903 H         1 0G1         0.1890
     52 H           4.3134    4.8025    0.8745 H         1 0G1         0.0808
     53 H           6.4546    3.9851   -0.6951 H         1 0G1         0.2325
     54 H          13.4981    5.4026   -3.3508 H         1 0G1         0.0749
     55 H          12.1910    3.3311   -4.1081 H         1 0G1         0.0425
     56 H           9.5355    2.1519   -3.3440 H         1 0G1         0.2504
@<TRIPOS>BOND
     1    1    2 1  
     2    2    3 1  
     3    3    4 ar 
     4    3    6 ar 
     5    4    5 ar 
     6    5    8 ar 
     7    6    7 ar 
     8    7    8 ar 
     9    8    9 1  
    10    9   10 1  
    11    9   23 2  
    12   10   11 ar 
    13   10   21 ar 
    14   11   12 ar 
    15   12   13 ar 
    16   13   14 1  
    17   13   20 ar 
    18   14   15 1  
    19   14   17 1  
    20   14   19 1  
    21   15   16 1  
    22   17   18 1  
    23   20   21 ar 
    24   21   22 1  
    25   22   23 1  
    26   23   24 1  
    27   24   25 1  
    28   24   31 2  
    29   25   26 1  
    30   25   29 2  
    31   26   27 1  
    32   27   28 2  
    33   28   29 1  
    34   29   30 1  
    35   30   31 1  
    36    1   32 1  
    37    1   33 1  
    38    1   34 1  
    39    4   35 1  
    40    5   36 1  
    41    6   37 1  
    42    7   38 1  
    43   11   39 1  
    44   12   40 1  
    45   15   41 1  
    46   15   42 1  
    47   16   43 1  
    48   16   44 1  
    49   16   45 1  
    50   17   46 1  
    51   17   47 1  
    52   18   48 1  
    53   18   49 1  
    54   18   50 1  
    55   19   51 1  
    56   20   52 1  
    57   22   53 1  
    58   27   54 1  
    59   28   55 1  
    60   30   56 1  
@<TRIPOS>SUBSTRUCTURE
     1 0G1         1

