### 
### Created by X-TOOL on Mon Sep 10 21:13:11 2018
### 

@<TRIPOS>MOLECULE
3v5p_ligand
   51    54     1     0     0
SMALL
GAST_HUCK


@<TRIPOS>ATOM
      1 CAJ        28.8170   17.4320   29.3050 C.3       1 C88        -0.0070
      2 CAH        29.3390   17.8460   27.9220 C.3       1 C88        -0.0333
      3 NAP        28.2270   18.4280   27.1630 N.4       1 C88         0.2270
      4 CAI        27.2200   17.3860   26.8920 C.3       1 C88        -0.0333
      5 CAK        26.6140   16.8700   28.2150 C.3       1 C88        -0.0070
      6 CAY        27.6810   16.3910   29.2170 C.3       1 C88        -0.0029
      7 CAL        27.0480   16.2670   30.6130 C.3       1 C88         0.0729
      8 NAZ        26.0680   15.1710   30.8450 N.pl3     1 C88        -0.1852
      9 NAO        24.8900   15.3960   31.1450 N.2       1 C88        -0.1987
     10 C4         26.3310   13.8590   30.8490 C.ar      1 C88         0.1623
     11 N3         27.4440   13.1320   30.6170 N.ar      1 C88        -0.2678
     12 C2         27.4040   11.8080   30.6710 C.ar      1 C88         0.0564
     13 N1         26.2830   11.1540   30.9690 N.ar      1 C88        -0.2657
     14 C6         25.1430   11.8160   31.2340 C.ar      1 C88         0.1272
     15 NAC        24.0470   11.1180   31.5280 N.pl3     1 C88        -0.3126
     16 C5         25.1400   13.2140   31.1810 C.ar      1 C88         0.0854
     17 CAV        24.2190   14.2550   31.3450 C.2       1 C88         0.0637
     18 CAS        22.8770   14.1980   31.7330 C.ar      1 C88        -0.0245
     19 CAG        22.5120   13.4630   32.8740 C.ar      1 C88        -0.0603
     20 CAR        21.1890   13.4510   33.3250 C.ar      1 C88        -0.0153
     21 CAB        20.7840   12.6150   34.5330 C.3       1 C88        -0.0328
     22 CAU        20.2240   14.2000   32.6570 C.ar      1 C88         0.0939
     23 OAQ        18.9570   14.1460   33.1180 O.3       1 C88        -0.3237
     24 CAA        18.0010   15.0350   32.5030 C.3       1 C88         0.0583
     25 CAE        20.5790   14.9610   31.5310 C.ar      1 C88        -0.0377
     26 CAD        21.9040   14.9700   31.0890 C.ar      1 C88        -0.0682
     27 H1         28.4378   18.3260   29.8217 H         1 C88         0.0320
     28 H2         29.6482   17.0000   29.8817 H         1 C88         0.0320
     29 H3         29.7287   16.9640   27.3926 H         1 C88         0.0814
     30 H4         30.1413   18.5900   28.0351 H         1 C88         0.0814
     31 H5         28.5720   18.7970   26.2907 H         1 C88         0.2013
     32 H6         27.8063   19.1707   27.6991 H         1 C88         0.2013
     33 H7         27.6973   16.5493   26.3608 H         1 C88         0.0814
     34 H8         26.4197   17.8085   26.2667 H         1 C88         0.0814
     35 H9         25.9424   16.0287   27.9888 H         1 C88         0.0320
     36 H10        26.0381   17.6846   28.6784 H         1 C88         0.0320
     37 H11        28.0836   15.4191   28.8957 H         1 C88         0.0331
     38 H12        26.5323   17.2157   30.8230 H         1 C88         0.0626
     39 H13        27.8686   16.1286   31.3323 H         1 C88         0.0626
     40 H14        28.3067   11.2435   30.4674 H         1 C88         0.1030
     41 H15        23.1644   11.6075   31.7338 H         1 C88         0.1842
     42 H16        24.0822   10.0888   31.5495 H         1 C88         0.1842
     43 H17        23.2657   12.8985   33.4109 H         1 C88         0.0530
     44 H18        21.6673   12.0942   34.9312 H         1 C88         0.0368
     45 H19        20.0279   11.8756   34.2304 H         1 C88         0.0368
     46 H20        20.3646   13.2717   35.3094 H         1 C88         0.0368
     47 H21        17.0145   14.8908   32.9677 H         1 C88         0.0576
     48 H22        17.9351   14.8152   31.4272 H         1 C88         0.0576
     49 H23        18.3246   16.0766   32.6453 H         1 C88         0.0576
     50 H24        19.8270   15.5395   31.0067 H         1 C88         0.0528
     51 H25        22.1813   15.5816   30.2380 H         1 C88         0.0542
@<TRIPOS>BOND
     1    1    2 1  
     2    1    6 1  
     3    2    3 1  
     4    3    4 1  
     5    4    5 1  
     6    5    6 1  
     7    6    7 1  
     8    7    8 1  
     9    8    9 1  
    10    8   10 1  
    11    9   17 2  
    12   10   11 ar 
    13   10   16 ar 
    14   11   12 ar 
    15   12   13 ar 
    16   13   14 ar 
    17   14   15 1  
    18   14   16 ar 
    19   16   17 1  
    20   17   18 1  
    21   18   19 ar 
    22   18   26 ar 
    23   19   20 ar 
    24   20   21 1  
    25   20   22 ar 
    26   22   23 1  
    27   22   25 ar 
    28   23   24 1  
    29   25   26 ar 
    30    1   27 1  
    31    1   28 1  
    32    2   29 1  
    33    2   30 1  
    34    3   31 1  
    35    3   32 1  
    36    4   33 1  
    37    4   34 1  
    38    5   35 1  
    39    5   36 1  
    40    6   37 1  
    41    7   38 1  
    42    7   39 1  
    43   12   40 1  
    44   15   41 1  
    45   15   42 1  
    46   19   43 1  
    47   21   44 1  
    48   21   45 1  
    49   21   46 1  
    50   24   47 1  
    51   24   48 1  
    52   24   49 1  
    53   25   50 1  
    54   26   51 1  
@<TRIPOS>SUBSTRUCTURE
     1 C88         1

