### 
### Created by X-TOOL on Mon Sep 10 21:13:11 2018
### 

@<TRIPOS>MOLECULE
3v5q_ligand
   57    61     1     0     0
SMALL
GAST_HUCK


@<TRIPOS>ATOM
      1 F1        -10.8120  -29.0820   -7.1700 F         1 0F4        -0.2209
      2 C2        -10.0890  -28.7650   -8.2220 C.3       1 0F4         0.3726
      3 F3        -10.7060  -29.2650   -9.2730 F         1 0F4        -0.2209
      4 F4         -9.9880  -27.4460   -8.2950 F         1 0F4        -0.2209
      5 C5         -8.7000  -29.3340   -8.1270 C.ar      1 0F4         0.0333
      6 C6         -8.1130  -29.5920   -6.8950 C.ar      1 0F4        -0.0452
      7 C7         -6.8230  -30.1190   -6.8290 C.ar      1 0F4        -0.0435
      8 C8         -6.1200  -30.3990   -7.9940 C.ar      1 0F4        -0.0114
      9 C9         -6.7040  -30.1530   -9.2280 C.ar      1 0F4         0.0959
     10 N10        -5.9710  -30.4380  -10.3350 N.am      1 0F4        -0.2085
     11 C11        -6.1990  -30.0320  -11.5910 C.2       1 0F4         0.3170
     12 O12        -7.1440  -29.3370  -11.9230 O.2       1 0F4        -0.3803
     13 N13        -5.3150  -30.4760  -12.4820 N.am      1 0F4        -0.2170
     14 C14        -5.3310  -30.1820  -13.8020 C.ar      1 0F4         0.0564
     15 C15        -4.1430  -29.7340  -14.3740 C.ar      1 0F4        -0.0535
     16 C16        -4.0850  -29.4410  -15.7340 C.ar      1 0F4        -0.0853
     17 C17        -5.2220  -29.6150  -16.5150 C.ar      1 0F4        -0.0550
     18 C18        -6.4270  -30.0620  -15.9570 C.ar      1 0F4         0.0439
     19 N19        -7.5770  -30.2470  -16.6760 N.pl3     1 0F4        -0.2812
     20 C20        -8.0000  -29.6010  -17.8040 C.ar      1 0F4         0.0441
     21 C21        -7.3770  -28.4580  -18.3280 C.ar      1 0F4        -0.0546
     22 C22        -7.8480  -27.8440  -19.4880 C.ar      1 0F4        -0.0786
     23 C23        -8.9550  -28.4020  -20.1060 C.ar      1 0F4        -0.0088
     24 C24        -9.6080  -29.5480  -19.6210 C.ar      1 0F4         0.0611
     25 N25       -10.6760  -29.8780  -20.4130 N.am      1 0F4        -0.2395
     26 C26       -10.7490  -28.9960  -21.4130 C.2       1 0F4         0.2172
     27 O27       -11.6360  -29.0290  -22.3420 O.2       1 0F4        -0.3801
     28 C28        -9.6790  -28.0050  -21.3210 C.2       1 0F4         0.0373
     29 C29        -9.2930  -26.8210  -22.1360 C.2       1 0F4        -0.0275
     30 C30       -10.0340  -26.4400  -23.3660 C.2       1 0F4         0.0571
     31 C31        -9.6760  -25.3470  -24.1440 C.2       1 0F4        -0.0663
     32 C32       -10.6210  -25.3430  -25.1610 C.2       1 0F4        -0.0706
     33 C33       -11.4750  -26.4190  -24.9330 C.2       1 0F4         0.0241
     34 N34       -11.1050  -27.1020  -23.8070 N.pl3     1 0F4        -0.2825
     35 C36        -9.1200  -30.1290  -18.4490 C.ar      1 0F4        -0.0210
     36 C37        -6.4620  -30.3550  -14.5960 C.ar      1 0F4        -0.0211
     37 C38        -7.9990  -29.6220   -9.2880 C.ar      1 0F4        -0.0127
     38 H          -8.6619  -29.3821   -5.9770 H         1 0F4         0.0740
     39 H          -6.3647  -30.3119   -5.8590 H         1 0F4         0.0664
     40 H          -5.1123  -30.8108   -7.9386 H         1 0F4         0.0758
     41 H          -5.1522  -31.0296  -10.1938 H         1 0F4         0.2264
     42 H          -4.5692  -31.0839  -12.1435 H         1 0F4         0.2259
     43 H          -3.2546  -29.6122  -13.7543 H         1 0F4         0.0405
     44 H          -3.1590  -29.0794  -16.1811 H         1 0F4         0.0548
     45 H          -5.1751  -29.3994  -17.5824 H         1 0F4         0.0406
     46 H          -8.2059  -30.9672  -16.3206 H         1 0F4         0.2083
     47 H          -6.5079  -28.0420  -17.8183 H         1 0F4         0.0417
     48 H          -7.3624  -26.9566  -19.8940 H         1 0F4         0.0535
     49 H         -11.3084  -30.6643  -20.2641 H         1 0F4         0.2246
     50 H          -8.4425  -26.2162  -21.8215 H         1 0F4         0.0661
     51 H          -8.8478  -24.6549  -23.9920 H         1 0F4         0.0384
     52 H         -10.6829  -24.6309  -25.9839 H         1 0F4         0.0338
     53 H         -12.3229  -26.6813  -25.5657 H         1 0F4         0.0912
     54 H         -11.5458  -27.9264  -23.3991 H         1 0F4         0.2329
     55 H          -9.6189  -31.0043  -18.0330 H         1 0F4         0.0405
     56 H          -7.3845  -30.7237  -14.1474 H         1 0F4         0.0404
     57 H          -8.4602  -29.4333  -10.2574 H         1 0F4         0.0710
@<TRIPOS>BOND
     1    1    2 1  
     2    2    3 1  
     3    2    4 1  
     4    2    5 1  
     5    5    6 ar 
     6    5   37 ar 
     7    6    7 ar 
     8    7    8 ar 
     9    8    9 ar 
    10    9   10 1  
    11    9   37 ar 
    12   10   11 am 
    13   11   12 2  
    14   11   13 am 
    15   13   14 1  
    16   14   15 ar 
    17   14   36 ar 
    18   15   16 ar 
    19   16   17 ar 
    20   17   18 ar 
    21   18   19 1  
    22   18   36 ar 
    23   19   20 1  
    24   20   21 ar 
    25   20   35 ar 
    26   21   22 ar 
    27   22   23 ar 
    28   23   24 ar 
    29   23   28 1  
    30   24   25 1  
    31   24   35 ar 
    32   25   26 am 
    33   26   27 2  
    34   26   28 1  
    35   28   29 2  
    36   29   30 1  
    37   30   31 2  
    38   30   34 1  
    39   31   32 1  
    40   32   33 2  
    41   33   34 1  
    42    6   38 1  
    43    7   39 1  
    44    8   40 1  
    45   10   41 1  
    46   13   42 1  
    47   15   43 1  
    48   16   44 1  
    49   17   45 1  
    50   19   46 1  
    51   21   47 1  
    52   22   48 1  
    53   25   49 1  
    54   29   50 1  
    55   31   51 1  
    56   32   52 1  
    57   33   53 1  
    58   34   54 1  
    59   35   55 1  
    60   36   56 1  
    61   37   57 1  
@<TRIPOS>SUBSTRUCTURE
     1 0F4         1

