### 
### Created by X-TOOL on Mon Sep 10 21:13:11 2018
### 

@<TRIPOS>MOLECULE
3v5t_ligand
   62    65     1     0     0
SMALL
GAST_HUCK


@<TRIPOS>ATOM
      1 CAB        21.1110   16.9650   61.2170 C.3       1 UW9        -0.0575
      2 CBB        19.7030   16.7740   60.6300 C.3       1 UW9        -0.0009
      3 CAC        19.5110   15.3400   60.1290 C.3       1 UW9        -0.0575
      4 CBC        18.5750   17.1380   61.6100 C.3       1 UW9         0.0101
      5 NBD        18.4600   18.6100   61.7950 N.4       1 UW9         0.2352
      6 CAD        19.4370   19.1390   62.7620 C.3       1 UW9        -0.0430
      7 CAE        17.1090   18.9440   62.2650 C.3       1 UW9        -0.0430
      8 CAO        18.7040   16.3580   62.9470 C.3       1 UW9         0.1130
      9 NBE        17.5540   15.4570   63.1680 N.pl3     1 UW9        -0.1781
     10 NAR        16.3970   15.8350   63.4000 N.2       1 UW9        -0.1941
     11 C4         17.6530   14.1390   63.1270 C.ar      1 UW9         0.1635
     12 N3         18.6930   13.3180   62.9030 N.ar      1 UW9        -0.2675
     13 C2         18.5000   12.0150   62.9430 C.ar      1 UW9         0.0565
     14 N1         17.2910   11.4890   63.1740 N.ar      1 UW9        -0.2656
     15 C6         16.2160   12.2580   63.3980 C.ar      1 UW9         0.1274
     16 NAF        15.0510   11.6610   63.6280 N.pl3     1 UW9        -0.3126
     17 C5         16.3750   13.6470   63.3830 C.ar      1 UW9         0.0869
     18 CAW        15.5880   14.7960   63.5590 C.2       1 UW9         0.0707
     19 CAU        14.2300   14.8410   63.8520 C.ar      1 UW9        -0.0104
     20 CAM        13.7110   14.1780   64.9640 C.ar      1 UW9        -0.0505
     21 CAH        13.3690   15.5820   63.0640 C.ar      1 UW9        -0.0571
     22 CAJ        12.0040   15.6470   63.3520 C.ar      1 UW9        -0.0594
     23 CAX        11.4870   14.9700   64.4390 C.ar      1 UW9        -0.0285
     24 CAL        10.1440   15.0360   64.7140 C.ar      1 UW9        -0.0289
     25 CAY        12.3500   14.2480   65.2680 C.ar      1 UW9        -0.0244
     26 CAI        11.8380   13.5800   66.3640 C.ar      1 UW9        -0.0563
     27 CAG        10.4870   13.6340   66.6380 C.ar      1 UW9        -0.0273
     28 CAT         9.6260   14.3550   65.8130 C.ar      1 UW9         0.0925
     29 OAS         8.2770   14.3800   66.1000 O.3       1 UW9        -0.3174
     30 CAN         7.5090   15.0100   65.0530 C.3       1 UW9         0.0680
     31 CAA         6.0440   14.5590   65.2760 C.3       1 UW9        -0.0371
     32 H1         21.8630   16.6868   60.4640 H         1 UW9         0.0234
     33 H2         21.2278   16.3265   62.1051 H         1 UW9         0.0234
     34 H3         21.2497   18.0184   61.5019 H         1 UW9         0.0234
     35 H4         19.6174   17.4487   59.7654 H         1 UW9         0.0351
     36 H5         18.4981   15.2289   59.7146 H         1 UW9         0.0234
     37 H6         19.6438   14.6384   60.9657 H         1 UW9         0.0234
     38 H7         20.2531   15.1224   59.3467 H         1 UW9         0.0234
     39 H8         17.6334   16.8082   61.1467 H         1 UW9         0.0882
     40 H9         18.6188   19.0543   60.9042 H         1 UW9         0.2032
     41 H10        19.3058   20.2269   62.8579 H         1 UW9         0.0778
     42 H11        20.4562   18.9223   62.4094 H         1 UW9         0.0778
     43 H12        19.2787   18.6630   63.7409 H         1 UW9         0.0778
     44 H13        16.3664   18.5553   61.5526 H         1 UW9         0.0778
     45 H14        17.0069   20.0366   62.3413 H         1 UW9         0.0778
     46 H15        16.9418   18.4902   63.2530 H         1 UW9         0.0778
     47 H16        18.7565   17.0787   63.7764 H         1 UW9         0.0682
     48 H17        19.6263   15.7591   62.9226 H         1 UW9         0.0682
     49 H18        19.3426   11.3516   62.7846 H         1 UW9         0.1030
     50 H19        14.2082   12.2266   63.8033 H         1 UW9         0.1842
     51 H20        14.9910   10.6328   63.6310 H         1 UW9         0.1842
     52 H21        14.3725   13.6012   65.6002 H         1 UW9         0.0618
     53 H22        13.7598   16.1213   62.2087 H         1 UW9         0.0611
     54 H23        11.3467   16.2320   62.7189 H         1 UW9         0.0592
     55 H24         9.4874   15.6173   64.0768 H         1 UW9         0.0499
     56 H25        12.4989   13.0127   67.0094 H         1 UW9         0.0618
     57 H26        10.0921   13.1115   67.5018 H         1 UW9         0.0590
     58 H27         7.8651   14.6811   64.0656 H         1 UW9         0.0612
     59 H28         7.5881   16.1047   65.1254 H         1 UW9         0.0612
     60 H29         5.4008   15.0079   64.5048 H         1 UW9         0.0256
     61 H30         5.7069   14.8863   66.2706 H         1 UW9         0.0256
     62 H31         5.9839   13.4626   65.2108 H         1 UW9         0.0256
@<TRIPOS>BOND
     1    1    2 1  
     2    2    3 1  
     3    2    4 1  
     4    4    5 1  
     5    4    8 1  
     6    5    6 1  
     7    5    7 1  
     8    8    9 1  
     9    9   10 1  
    10    9   11 1  
    11   10   18 2  
    12   11   12 ar 
    13   11   17 ar 
    14   12   13 ar 
    15   13   14 ar 
    16   14   15 ar 
    17   15   16 1  
    18   15   17 ar 
    19   17   18 1  
    20   18   19 1  
    21   19   20 ar 
    22   19   21 ar 
    23   20   25 ar 
    24   21   22 ar 
    25   22   23 ar 
    26   23   24 ar 
    27   23   25 ar 
    28   24   28 ar 
    29   25   26 ar 
    30   26   27 ar 
    31   27   28 ar 
    32   28   29 1  
    33   29   30 1  
    34   30   31 1  
    35    1   32 1  
    36    1   33 1  
    37    1   34 1  
    38    2   35 1  
    39    3   36 1  
    40    3   37 1  
    41    3   38 1  
    42    4   39 1  
    43    5   40 1  
    44    6   41 1  
    45    6   42 1  
    46    6   43 1  
    47    7   44 1  
    48    7   45 1  
    49    7   46 1  
    50    8   47 1  
    51    8   48 1  
    52   13   49 1  
    53   16   50 1  
    54   16   51 1  
    55   20   52 1  
    56   21   53 1  
    57   22   54 1  
    58   24   55 1  
    59   26   56 1  
    60   27   57 1  
    61   30   58 1  
    62   30   59 1  
    63   31   60 1  
    64   31   61 1  
    65   31   62 1  
@<TRIPOS>SUBSTRUCTURE
     1 UW9         1

