### 
### Created by X-TOOL on Mon Sep 10 21:13:10 2018
### 

@<TRIPOS>MOLECULE
3v66_ligand
   68    72     1     0     0
SMALL
GAST_HUCK


@<TRIPOS>ATOM
      1 C37        21.8720   -2.1330   53.0910 C.3       1 D3A         0.0552
      2 O36        20.5930   -1.4920   52.8580 O.3       1 D3A        -0.3288
      3 C21        20.3380   -0.2750   53.4560 C.ar      1 D3A         0.1246
      4 C20        20.9950    0.9090   53.0810 C.ar      1 D3A         0.1133
      5 O34        21.9090    0.7880   52.0390 O.3       1 D3A        -0.3270
      6 C35        22.6030    1.9300   51.5030 C.3       1 D3A         0.0566
      7 C19        20.6550    2.1270   53.7100 C.ar      1 D3A        -0.0480
      8 C18        19.7170    2.1660   54.7330 C.ar      1 D3A        -0.0877
      9 C17        19.0780    0.9910   55.1100 C.ar      1 D3A        -0.0754
     10 C8         19.3970   -0.2230   54.4790 C.ar      1 D3A         0.0169
     11 C7         18.6810   -1.4890   54.9610 C.3       1 D3A         0.1252
     12 C1         17.4260   -1.9000   54.1900 C.ar      1 D3A         0.0306
     13 O6         18.3420   -1.4210   56.3810 O.3       1 D3A        -0.3362
     14 C5         17.6050   -2.5030   56.9970 C.3       1 D3A         0.1335
     15 C4         17.9650   -3.8720   56.3740 C.2       1 D3A         0.0789
     16 C10        18.6620   -4.9580   56.8990 C.2       1 D3A        -0.0832
     17 C11        18.7390   -5.9110   55.9120 C.2       1 D3A        -0.0960
     18 C12        18.1040   -5.4160   54.7630 C.2       1 D3A         0.0184
     19 N3         17.6340   -4.1350   55.0220 N.pl3     1 D3A        -0.2381
     20 C2         16.9620   -3.2470   54.2810 C.ar      1 D3A         0.0995
     21 C13        15.8000   -3.5740   53.5210 C.ar      1 D3A        -0.0328
     22 C14        15.1670   -2.6030   52.7670 C.ar      1 D3A        -0.0589
     23 C15        15.6380   -1.3020   52.6960 C.ar      1 D3A         0.0266
     24 C16        16.7640   -0.9220   53.4000 C.ar      1 D3A        -0.0461
     25 CL1        14.7780   -0.1290   51.7330 Cl        1 D3A        -0.0790
     26 C9         17.7820   -2.2220   58.5160 C.3       1 D3A         0.0750
     27 C22        16.4850   -2.4580   59.3080 C.2       1 D3A         0.1829
     28 O24        15.4810   -2.8610   58.6750 O.2       1 D3A        -0.3966
     29 N23        16.4370   -2.2480   60.6450 N.am      1 D3A        -0.2730
     30 C25        15.1130   -2.2500   61.3600 C.3       1 D3A         0.0342
     31 C26        14.8050   -0.8850   62.0180 C.3       1 D3A        -0.0281
     32 C27        16.0200   -0.1600   62.6730 C.3       1 D3A        -0.0258
     33 C28        17.3090   -0.2100   61.8080 C.3       1 D3A        -0.0281
     34 C29        17.6340   -1.6380   61.3480 C.3       1 D3A         0.0342
     35 C30        15.6780    1.2980   63.0700 C.3       1 D3A         0.0032
     36 C31        14.5610    1.4340   64.0850 C.2       1 D3A         0.0351
     37 O32        14.5690    0.6630   65.0570 O.co2     1 D3A        -0.5690
     38 O33        13.6810    2.2960   63.8900 O.co2     1 D3A        -0.5690
     39 H          22.6726   -1.4815   52.7408 H         1 D3A         0.0570
     40 H          21.9943   -2.3199   54.1579 H         1 D3A         0.0570
     41 H          21.9075   -3.0780   52.5489 H         1 D3A         0.0570
     42 H          21.8778    2.6442   51.1130 H         1 D3A         0.0572
     43 H          23.1897    2.4003   52.2921 H         1 D3A         0.0572
     44 H          23.2650    1.6071   50.6996 H         1 D3A         0.0572
     45 H          21.1362    3.0503   53.3875 H         1 D3A         0.0458
     46 H          19.4849    3.1059   55.2338 H         1 D3A         0.0480
     47 H          18.3260    1.0113   55.8988 H         1 D3A         0.0441
     48 H          19.4274   -2.2591   54.7661 H         1 D3A         0.0884
     49 H          16.5323   -2.5574   56.8111 H         1 D3A         0.0799
     50 H          19.0707   -5.0371   57.9064 H         1 D3A         0.0181
     51 H          19.2138   -6.8877   56.0060 H         1 D3A         0.0252
     52 H          17.9968   -5.9506   53.8192 H         1 D3A         0.0718
     53 H          15.4101   -4.5918   53.5347 H         1 D3A         0.0565
     54 H          14.2685   -2.8697   52.2106 H         1 D3A         0.0549
     55 H          17.1351    0.1017   53.3508 H         1 D3A         0.0546
     56 H          18.0659   -1.1765   58.6357 H         1 D3A         0.0551
     57 H          18.5414   -2.9033   58.8998 H         1 D3A         0.0551
     58 H          15.1519   -3.0049   62.1453 H         1 D3A         0.0522
     59 H          14.3321   -2.4588   60.6288 H         1 D3A         0.0522
     60 H          14.0945   -1.0828   62.8206 H         1 D3A         0.0288
     61 H          14.4490   -0.2319   61.2213 H         1 D3A         0.0288
     62 H          16.2347   -0.7203   63.5829 H         1 D3A         0.0320
     63 H          18.1407    0.1522   62.4124 H         1 D3A         0.0288
     64 H          17.1512    0.4067   60.9232 H         1 D3A         0.0288
     65 H          18.4758   -1.6067   60.6563 H         1 D3A         0.0522
     66 H          17.8835   -2.2448   62.2185 H         1 D3A         0.0522
     67 H          15.3454    1.8034   62.1634 H         1 D3A         0.0433
     68 H          16.5734    1.7205   63.5259 H         1 D3A         0.0433
@<TRIPOS>BOND
     1    1    2 1  
     2    2    3 1  
     3    3    4 ar 
     4    3   10 ar 
     5    4    5 1  
     6    4    7 ar 
     7    5    6 1  
     8    7    8 ar 
     9    8    9 ar 
    10    9   10 ar 
    11   10   11 1  
    12   11   12 1  
    13   11   13 1  
    14   12   20 ar 
    15   12   24 ar 
    16   13   14 1  
    17   14   15 1  
    18   14   26 1  
    19   15   16 2  
    20   15   19 1  
    21   16   17 1  
    22   17   18 2  
    23   18   19 1  
    24   19   20 1  
    25   20   21 ar 
    26   21   22 ar 
    27   22   23 ar 
    28   23   24 ar 
    29   23   25 1  
    30   26   27 1  
    31   27   28 2  
    32   27   29 am 
    33   29   30 1  
    34   29   34 1  
    35   30   31 1  
    36   31   32 1  
    37   32   33 1  
    38   32   35 1  
    39   33   34 1  
    40   35   36 1  
    41   36   37 ar 
    42   36   38 ar 
    43    1   39 1  
    44    1   40 1  
    45    1   41 1  
    46    6   42 1  
    47    6   43 1  
    48    6   44 1  
    49    7   45 1  
    50    8   46 1  
    51    9   47 1  
    52   11   48 1  
    53   14   49 1  
    54   16   50 1  
    55   17   51 1  
    56   18   52 1  
    57   21   53 1  
    58   22   54 1  
    59   24   55 1  
    60   26   56 1  
    61   26   57 1  
    62   30   58 1  
    63   30   59 1  
    64   31   60 1  
    65   31   61 1  
    66   32   62 1  
    67   33   63 1  
    68   33   64 1  
    69   34   65 1  
    70   34   66 1  
    71   35   67 1  
    72   35   68 1  
@<TRIPOS>SUBSTRUCTURE
     1 D3A         1

