### 
### Created by X-TOOL on Mon Sep 10 21:13:11 2018
### 

@<TRIPOS>MOLECULE
3v78_ligand
   45    48     1     0     0
SMALL
GAST_HUCK


@<TRIPOS>ATOM
      1 C1        -31.3840  -13.5770   -0.9690 C.ar      1 ET         -0.0789
      2 C2        -32.1580  -14.7000   -0.6820 C.ar      1 ET         -0.0582
      3 C3        -33.2870  -14.5940    0.1410 C.ar      1 ET          0.0225
      4 C4        -33.6440  -13.3610    0.6860 C.ar      1 ET         -0.0279
      5 N5        -33.1930  -10.9760    0.9450 N.pl3     1 ET         -0.2864
      6 C6        -32.4600   -9.8680    0.7000 C.3       1 ET          0.1019
      7 C7        -30.5500   -8.7530   -0.4050 C.ar      1 ET         -0.0409
      8 C8        -29.4140   -8.7960   -1.2200 C.ar      1 ET          0.0271
      9 C9        -29.0150  -10.0200   -1.7920 C.ar      1 ET         -0.0530
     10 C10       -29.7570  -11.1790   -1.5440 C.ar      1 ET         -0.0760
     11 C11       -31.3010   -9.9340   -0.1530 C.ar      1 ET         -0.0145
     12 C12       -30.9110  -11.1320   -0.7170 C.ar      1 ET         -0.0361
     13 C13       -31.7350  -12.3190   -0.4140 C.ar      1 ET         -0.0206
     14 C14       -32.8430  -12.2090    0.3990 C.ar      1 ET          0.0395
     15 C15       -32.8790   -8.5470    1.2410 C.ar      1 ET         -0.0075
     16 C16       -34.0070   -7.9970    0.6220 C.ar      1 ET         -0.0562
     17 C17       -34.4970   -6.7530    1.0210 C.ar      1 ET         -0.0681
     18 C18       -33.8430   -6.0570    2.0360 C.ar      1 ET         -0.0685
     19 C19       -32.6990   -6.6140    2.6180 C.ar      1 ET         -0.0681
     20 C20       -32.2040   -7.8530    2.2410 C.ar      1 ET         -0.0562
     21 C21       -34.3570  -10.8850    1.7880 C.3       1 ET          0.0287
     22 C22       -35.7110  -10.8620    1.1630 C.3       1 ET         -0.0449
     23 N23       -34.0650  -15.7670    0.4140 N.pl3     1 ET         -0.3397
     24 N24       -28.6640   -7.5920   -1.4580 N.pl3     1 ET         -0.3390
     25 H1        -30.5170  -13.6642   -1.6138 H         1 ET          0.0537
     26 H2        -31.8845  -15.6626   -1.0986 H         1 ET          0.0412
     27 H3        -34.5188  -13.2754    1.3204 H         1 ET          0.0403
     28 H4        -31.8432  -10.0607    1.5902 H         1 ET          0.0872
     29 H5        -30.8600   -7.8132    0.0374 H         1 ET          0.0452
     30 H6        -28.1347  -10.0633   -2.4230 H         1 ET          0.0460
     31 H7        -29.4494  -12.1199   -1.9859 H         1 ET          0.0544
     32 H8        -34.5037   -8.5412   -0.1731 H         1 ET          0.0561
     33 H9        -35.3765   -6.3326    0.5468 H         1 ET          0.0600
     34 H10       -34.2161   -5.0958    2.3705 H         1 ET          0.0561
     35 H11       -32.1815   -6.0572    3.3908 H         1 ET          0.0600
     36 H12       -31.3193   -8.2681    2.7102 H         1 ET          0.0561
     37 H13       -34.2579   -9.9588    2.3730 H         1 ET          0.0516
     38 H14       -34.3311  -11.7512    2.4655 H         1 ET          0.0516
     39 H15       -36.4767  -10.7902    1.9495 H         1 ET          0.0249
     40 H16       -35.8641  -11.7856    0.5856 H         1 ET          0.0249
     41 H17       -35.7909   -9.9932    0.4931 H         1 ET          0.0249
     42 H18       -33.7920  -16.6725    0.0061 H         1 ET          0.1719
     43 H19       -34.8969  -15.7041    1.0180 H         1 ET          0.1719
     44 H20       -28.9672   -6.7039   -1.0334 H         1 ET          0.1716
     45 H21       -27.8237   -7.6179   -2.0531 H         1 ET          0.1716
@<TRIPOS>BOND
     1    2    1 ar 
     2    1   13 ar 
     3    3    2 ar 
     4    4    3 ar 
     5    3   23 1  
     6   14    4 ar 
     7    6    5 1  
     8    5   14 1  
     9    5   21 1  
    10   11    6 1  
    11    6   15 1  
    12    7    8 ar 
    13    7   11 ar 
    14    8    9 ar 
    15    8   24 1  
    16    9   10 ar 
    17   10   12 ar 
    18   11   12 ar 
    19   12   13 1  
    20   13   14 ar 
    21   15   16 ar 
    22   15   20 ar 
    23   16   17 ar 
    24   17   18 ar 
    25   18   19 ar 
    26   19   20 ar 
    27   21   22 1  
    28    1   25 1  
    29    2   26 1  
    30    4   27 1  
    31    6   28 1  
    32    7   29 1  
    33    9   30 1  
    34   10   31 1  
    35   16   32 1  
    36   17   33 1  
    37   18   34 1  
    38   19   35 1  
    39   20   36 1  
    40   21   37 1  
    41   21   38 1  
    42   22   39 1  
    43   22   40 1  
    44   22   41 1  
    45   23   42 1  
    46   23   43 1  
    47   24   44 1  
    48   24   45 1  
@<TRIPOS>SUBSTRUCTURE
     1 ET          1

