### 
### Created by X-TOOL on Mon Sep 10 21:13:10 2018
### 

@<TRIPOS>MOLECULE
3v7c_ligand
   74    80     1     0     0
SMALL
GAST_HUCK


@<TRIPOS>ATOM
      1 N1         49.9470   25.2200   21.5180 N.ar      1 C77        -0.2698
      2 C2         50.4120   25.3500   20.2750 C.ar      1 C77         0.0533
      3 N3         51.4730   24.6820   19.8380 N.ar      1 C77        -0.2714
      4 C4         52.0910   23.8210   20.6630 C.ar      1 C77         0.1613
      5 C5         51.6210   23.6580   21.9700 C.ar      1 C77         0.1045
      6 C6         50.5150   24.3910   22.3880 C.ar      1 C77         0.1298
      7 N6         50.0270   24.2920   23.6190 N.pl3     1 C77        -0.3152
      8 N7         52.3850   22.7510   22.5650 N.2       1 C77        -0.2958
      9 C8         53.2910   22.3560   21.6660 C.2       1 C77         0.1123
     10 N9         53.1150   22.9940   20.4980 N.pl3     1 C77        -0.1919
     11 CAA        58.0420   23.7230   17.6750 C.3       1 C77        -0.0108
     12 CAB        55.8470   23.9710   16.4330 C.3       1 C77        -0.0108
     13 OAD        49.2520   13.9360   25.4270 O.2       1 C77        -0.4008
     14 CAG        52.9750   17.1160   17.9250 C.2       1 C77         0.0694
     15 CAH        49.2460   16.7730   19.7540 C.3       1 C77        -0.0517
     16 CAI        49.1240   16.9590   18.2110 C.3       1 C77        -0.0462
     17 CAJ        47.9010   16.5960   20.5270 C.3       1 C77        -0.0519
     18 CAK        50.3990   16.4830   17.3890 C.3       1 C77        -0.0185
     19 CAL        48.0290   16.8910   22.0430 C.3       1 C77        -0.0390
     20 CAM        45.3640   15.9010   24.9050 C.3       1 C77         0.0190
     21 CAN        54.6000   19.1080   18.5680 C.3       1 C77         0.1042
     22 NAR        51.3870   18.5400   17.8720 N.2       1 C77        -0.2265
     23 NAS        52.4110   19.1330   18.1510 N.2       1 C77        -0.1019
     24 NAT        47.0060   14.1980   25.4130 N.am      1 C77        -0.2671
     25 NAU        48.1940   14.6000   23.5650 N.am      1 C77        -0.2668
     26 OAV        53.4610   21.4690   18.7890 O.3       1 C77        -0.3361
     27 OAW        56.4520   21.8290   17.5590 O.3       1 C77        -0.3405
     28 OAX        56.0120   23.7580   18.8470 O.3       1 C77        -0.3378
     29 SAY        46.5890   17.1460   24.4380 S.3       1 C77        -0.1527
     30 CAZ        48.2050   14.2220   24.8420 C.2       1 C77         0.2580
     31 CBA        51.6540   17.2920   17.7160 C.2       1 C77         0.0370
     32 CBE        54.5550   20.6800   18.2640 C.3       1 C77         0.1210
     33 CBF        46.7690   16.4230   22.7820 C.3       1 C77         0.0302
     34 CBG        55.8110   21.3540   18.7610 C.3       1 C77         0.1223
     35 CBH        55.3730   22.6260   19.4910 C.3       1 C77         0.1455
     36 CBI        53.9090   22.7840   19.2480 C.3       1 C77         0.2014
     37 NBJ        53.3580   18.3890   18.1990 N.pl3     1 C77        -0.1787
     38 CBL        56.5740   23.3120   17.6100 C.3       1 C77         0.1657
     39 CBM        46.0180   14.6160   24.4240 C.3       1 C77         0.0750
     40 CBN        46.8410   14.9140   23.1490 C.3       1 C77         0.0775
     41 H1         49.9050   26.0261   19.5961 H         1 C77         0.0996
     42 H2         50.4642   23.6508   24.2963 H         1 C77         0.1820
     43 H3         49.2113   24.8564   23.8966 H         1 C77         0.1820
     44 H4         54.0675   21.6163   21.8552 H         1 C77         0.1349
     45 H5         58.5509   23.4127   16.7505 H         1 C77         0.0281
     46 H6         58.5209   23.2372   18.5379 H         1 C77         0.0281
     47 H7         58.1125   24.8154   17.7834 H         1 C77         0.0281
     48 H8         54.7955   23.6481   16.4243 H         1 C77         0.0281
     49 H9         56.3298   23.6731   15.4906 H         1 C77         0.0281
     50 H10        55.8937   25.0649   16.5392 H         1 C77         0.0281
     51 H11        53.5697   16.2046   17.8850 H         1 C77         0.0898
     52 H12        49.7549   17.6591   20.1613 H         1 C77         0.0266
     53 H13        49.8609   15.8798   19.9384 H         1 C77         0.0266
     54 H14        48.9611   18.0272   18.0051 H         1 C77         0.0281
     55 H15        48.2549   16.3817   17.8626 H         1 C77         0.0281
     56 H16        47.5577   15.5587   20.3998 H         1 C77         0.0266
     57 H17        47.1573   17.2836   20.0980 H         1 C77         0.0266
     58 H18        50.1837   16.5880   16.3154 H         1 C77         0.0380
     59 H19        50.5924   15.4256   17.6225 H         1 C77         0.0380
     60 H20        48.1573   17.9731   22.1930 H         1 C77         0.0277
     61 H21        48.9042   16.3588   22.4441 H         1 C77         0.0277
     62 H22        44.4040   16.0750   24.3970 H         1 C77         0.0399
     63 H23        45.2054   15.8853   25.9934 H         1 C77         0.0399
     64 H24        54.7739   18.9684   19.6452 H         1 C77         0.0675
     65 H25        55.4351   18.6696   18.0019 H         1 C77         0.0675
     66 H26        46.8133   13.9379   26.3592 H         1 C77         0.1849
     67 H27        49.0016   14.6587   22.9783 H         1 C77         0.1849
     68 H28        54.5175   20.7731   17.1686 H         1 C77         0.0654
     69 H29        45.8904   16.6427   22.1577 H         1 C77         0.0435
     70 H30        56.4455   20.6973   19.3743 H         1 C77         0.0652
     71 H31        55.6103   22.5794   20.5641 H         1 C77         0.0680
     72 H32        53.7178   23.5830   18.5166 H         1 C77         0.0996
     73 H33        45.2637   13.8353   24.2465 H         1 C77         0.0584
     74 H34        46.5139   14.2954   22.3003 H         1 C77         0.0587
@<TRIPOS>BOND
     1    2    1 ar 
     2    6    1 ar 
     3    3    2 ar 
     4    4    3 ar 
     5    4    5 ar 
     6   10    4 1  
     7    5    6 ar 
     8    8    5 1  
     9    6    7 1  
    10    9    8 2  
    11   10    9 1  
    12   36   10 1  
    13   38   11 1  
    14   38   12 1  
    15   30   13 2  
    16   14   31 2  
    17   37   14 1  
    18   16   15 1  
    19   15   17 1  
    20   18   16 1  
    21   17   19 1  
    22   31   18 1  
    23   19   33 1  
    24   29   20 1  
    25   20   39 1  
    26   32   21 1  
    27   21   37 1  
    28   23   22 2  
    29   22   31 1  
    30   37   23 1  
    31   24   30 am 
    32   39   24 1  
    33   30   25 am 
    34   25   40 1  
    35   32   26 1  
    36   26   36 1  
    37   34   27 1  
    38   27   38 1  
    39   28   35 1  
    40   38   28 1  
    41   33   29 1  
    42   32   34 1  
    43   33   40 1  
    44   34   35 1  
    45   35   36 1  
    46   39   40 1  
    47    2   41 1  
    48    7   42 1  
    49    7   43 1  
    50    9   44 1  
    51   11   45 1  
    52   11   46 1  
    53   11   47 1  
    54   12   48 1  
    55   12   49 1  
    56   12   50 1  
    57   14   51 1  
    58   15   52 1  
    59   15   53 1  
    60   16   54 1  
    61   16   55 1  
    62   17   56 1  
    63   17   57 1  
    64   18   58 1  
    65   18   59 1  
    66   19   60 1  
    67   19   61 1  
    68   20   62 1  
    69   20   63 1  
    70   21   64 1  
    71   21   65 1  
    72   24   66 1  
    73   25   67 1  
    74   32   68 1  
    75   33   69 1  
    76   34   70 1  
    77   35   71 1  
    78   36   72 1  
    79   39   73 1  
    80   40   74 1  
@<TRIPOS>SUBSTRUCTURE
     1 C77         1

