### 
### Created by X-TOOL on Mon Sep 10 21:13:10 2018
### 

@<TRIPOS>MOLECULE
3v7s_ligand
   66    70     1     0     0
SMALL
GAST_HUCK


@<TRIPOS>ATOM
      1 CAA        50.9900   24.1150   23.6860 C.3       1 36F        -0.0391
      2 OAB        49.3040   13.6750   25.5380 O.2       1 36F        -0.4008
      3 OAC        55.3370   23.5110   17.8250 O.2       1 36F        -0.3732
      4 CAD        51.6770   25.6000   21.7940 C.ar      1 36F        -0.0827
      5 CAE        52.3770   25.8960   20.6160 C.ar      1 36F        -0.0468
      6 CAF        52.6490   23.3660   21.7740 C.ar      1 36F        -0.0463
      7 CAG        51.0050   18.7090   16.7960 C.2       1 36F         0.0693
      8 CAH        48.8570   16.1200   19.6070 C.3       1 36F        -0.0517
      9 CAI        48.6830   17.0190   18.3590 C.3       1 36F        -0.0462
     10 CAJ        47.5860   16.0780   20.4540 C.3       1 36F        -0.0519
     11 CAK        54.0930   20.5810   17.6640 C.3       1 36F        -0.0202
     12 CAL        53.7180   20.7030   19.1470 C.3       1 36F        -0.0247
     13 CAM        49.5600   16.6450   17.1410 C.3       1 36F        -0.0185
     14 CAN        47.8610   16.6070   21.8570 C.3       1 36F        -0.0390
     15 CAO        52.8840   20.2980   16.7440 C.3       1 36F         0.0755
     16 CAP        54.6760   21.6220   19.9040 C.3       1 36F         0.0570
     17 CAQ        45.5370   15.9070   25.0820 C.3       1 36F         0.0190
     18 NAR        52.0670   17.0220   17.5740 N.2       1 36F        -0.2265
     19 NAS        52.8560   17.9660   17.4560 N.2       1 36F        -0.1020
     20 NAT        47.0620   14.0230   25.5220 N.am      1 36F        -0.2671
     21 NAU        48.2920   14.4690   23.6890 N.am      1 36F        -0.2668
     22 OAV        53.9720   25.0200   18.8690 O.3       1 36F        -0.2060
     23 SAW        46.6520   17.1170   24.3010 S.3       1 36F        -0.1527
     24 CAX        48.2790   14.0290   24.9530 C.2       1 36F         0.2580
     25 CAY        51.8070   24.3420   22.3880 C.ar      1 36F        -0.0692
     26 CAZ        50.8660   17.4440   17.1670 C.2       1 36F         0.0370
     27 CBA        54.5730   23.8070   18.7450 C.2       1 36F         0.3678
     28 CBB        53.2060   24.9440   20.0020 C.ar      1 36F         0.1398
     29 CBC        53.3490   23.6640   20.5680 C.ar      1 36F         0.1010
     30 CBD        46.7110   16.2040   22.7560 C.3       1 36F         0.0302
     31 NBE        52.2810   18.9720   17.0100 N.pl3     1 36F        -0.1813
     32 NBF        54.2020   23.0080   19.7510 N.am      1 36F        -0.1952
     33 CBG        46.0630   14.5370   24.5760 C.3       1 36F         0.0750
     34 CBH        46.9010   14.7640   23.2870 C.3       1 36F         0.0775
     35 H1         50.4318   25.0302   23.9326 H         1 36F         0.0370
     36 H2         51.6741   23.8691   24.5116 H         1 36F         0.0370
     37 H3         50.2844   23.2848   23.5347 H         1 36F         0.0370
     38 H4         51.0343   26.3477   22.2444 H         1 36F         0.0409
     39 H5         52.2761   26.8791   20.1706 H         1 36F         0.0496
     40 H6         52.7572   22.3883   22.2294 H         1 36F         0.0413
     41 H7         50.2409   19.3787   16.4040 H         1 36F         0.0898
     42 H8         49.6807   16.5155   20.2194 H         1 36F         0.0266
     43 H9         49.1012   15.0987   19.2796 H         1 36F         0.0266
     44 H10        48.9278   18.0516   18.6484 H         1 36F         0.0281
     45 H11        47.6295   16.9655   18.0471 H         1 36F         0.0281
     46 H12        47.2307   15.0392   20.5222 H         1 36F         0.0266
     47 H13        46.8132   16.6994   19.9780 H         1 36F         0.0266
     48 H14        54.8145   19.7581   17.5538 H         1 36F         0.0295
     49 H15        54.5606   21.5239   17.3443 H         1 36F         0.0295
     50 H16        53.7483   19.7033   19.6048 H         1 36F         0.0291
     51 H17        52.6992   21.1107   19.2237 H         1 36F         0.0291
     52 H18        49.0124   16.8733   16.2147 H         1 36F         0.0380
     53 H19        49.7906   15.5700   17.1752 H         1 36F         0.0380
     54 H20        47.9446   17.7035   21.8304 H         1 36F         0.0277
     55 H21        48.7987   16.1769   22.2387 H         1 36F         0.0277
     56 H22        53.2193   20.3317   15.6969 H         1 36F         0.0648
     57 H23        52.1223   21.0739   16.9102 H         1 36F         0.0648
     58 H24        55.6898   21.5272   19.4878 H         1 36F         0.0587
     59 H25        54.6900   21.3489   20.9694 H         1 36F         0.0587
     60 H26        44.4970   16.0695   24.7626 H         1 36F         0.0399
     61 H27        45.5978   15.9691   26.1786 H         1 36F         0.0399
     62 H28        46.8653   13.7141   26.4525 H         1 36F         0.1849
     63 H29        49.1036   14.5792   23.1153 H         1 36F         0.1849
     64 H30        45.7680   16.3088   22.1995 H         1 36F         0.0435
     65 H31        45.2352   13.8300   24.4180 H         1 36F         0.0584
     66 H32        46.5864   14.0601   22.5024 H         1 36F         0.0587
@<TRIPOS>BOND
     1   25    1 1  
     2   24    2 2  
     3   27    3 2  
     4    5    4 ar 
     5    4   25 ar 
     6   28    5 ar 
     7   25    6 ar 
     8    6   29 ar 
     9    7   26 2  
    10   31    7 1  
    11    9    8 1  
    12    8   10 1  
    13   13    9 1  
    14   10   14 1  
    15   12   11 1  
    16   11   15 1  
    17   16   12 1  
    18   26   13 1  
    19   14   30 1  
    20   15   31 1  
    21   32   16 1  
    22   23   17 1  
    23   17   33 1  
    24   19   18 2  
    25   18   26 1  
    26   31   19 1  
    27   20   24 am 
    28   33   20 1  
    29   24   21 am 
    30   21   34 1  
    31   27   22 1  
    32   22   28 1  
    33   30   23 1  
    34   27   32 am 
    35   28   29 ar 
    36   29   32 1  
    37   30   34 1  
    38   33   34 1  
    39    1   35 1  
    40    1   36 1  
    41    1   37 1  
    42    4   38 1  
    43    5   39 1  
    44    6   40 1  
    45    7   41 1  
    46    8   42 1  
    47    8   43 1  
    48    9   44 1  
    49    9   45 1  
    50   10   46 1  
    51   10   47 1  
    52   11   48 1  
    53   11   49 1  
    54   12   50 1  
    55   12   51 1  
    56   13   52 1  
    57   13   53 1  
    58   14   54 1  
    59   14   55 1  
    60   15   56 1  
    61   15   57 1  
    62   16   58 1  
    63   16   59 1  
    64   17   60 1  
    65   17   61 1  
    66   20   62 1  
    67   21   63 1  
    68   30   64 1  
    69   33   65 1  
    70   34   66 1  
@<TRIPOS>SUBSTRUCTURE
     1 36F         1

