### 
### Created by X-TOOL on Fri Sep 26 17:34:56 2014
### 

@<TRIPOS>MOLECULE
3v7t_ligand
   59    62     1     0     0
SMALL
GAST_HUCK


@<TRIPOS>ATOM
      1 CBD        50.7940   -9.3510   -7.2960 C.3       1 MOL        -0.0627
      2 CAT        50.3620   -9.9000   -5.9450 C.3       1 MOL        -0.0265
      3 CAS        50.8420  -11.3410   -5.7950 C.3       1 MOL         0.0791
      4 OAR        50.4700  -11.8350   -4.5040 O.3       1 MOL        -0.2879
      5 CAN        49.1420  -12.1150   -4.4490 C.2       1 MOL         0.1715
      6 SAO        48.2740  -13.0790   -5.5360 S.3       1 MOL         0.0010
      7 CAM        48.2710  -11.6490   -3.4690 C.2       1 MOL         0.0377
      8 BR1        48.8340  -10.5280   -2.0510 Br        1 MOL        -0.0872
      9 CAL        46.9470  -12.0780   -3.6450 C.2       1 MOL        -0.0492
     10 CAP        45.8120  -11.6970   -2.6870 C.3       1 MOL        -0.0403
     11 CAK        46.7880  -12.9270   -4.7450 C.2       1 MOL         0.0799
     12 CAI        45.4730  -13.4890   -5.2730 C.2       1 MOL         0.1836
     13 OAJ        45.0740  -13.1170   -6.3760 O.2       1 MOL        -0.4091
     14 NAE        44.7450  -14.3650   -4.5760 N.am      1 MOL        -0.2732
     15 CAD        43.4690  -14.9460   -5.0020 C.3       1 MOL         0.0455
     16 CAC        43.7090  -16.4240   -5.3640 C.3       1 MOL        -0.0179
     17 CAG        42.6460  -14.8500   -3.7060 C.3       1 MOL        -0.0277
     18 CAH        43.6870  -14.8430   -2.5620 C.3       1 MOL        -0.0277
     19 CAA        45.0550  -14.9330   -3.2620 C.3       1 MOL         0.0455
     20 CAF        45.4330  -16.4150   -3.4680 C.3       1 MOL        -0.0179
     21 CAB        44.2790  -17.1860   -4.1500 C.3       1 MOL        -0.0040
     22 CAU        44.7010  -18.6200   -4.5010 C.ar      1 MOL        -0.0126
     23 CAZ        45.2030  -18.9550   -5.7640 C.ar      1 MOL        -0.0553
     24 CAV        44.5770  -19.6030   -3.5190 C.ar      1 MOL         0.1258
     25 FBA        44.0930  -19.2720   -2.3050 F         1 MOL        -0.1948
     26 CAW        44.9470  -20.9210   -3.7900 C.ar      1 MOL        -0.0413
     27 CAX        45.4470  -21.2560   -5.0480 C.ar      1 MOL        -0.0639
     28 CAY        45.5760  -20.2740   -6.0350 C.ar      1 MOL        -0.0093
     29 CBB        46.1330  -20.6540   -7.4100 C.3       1 MOL        -0.0050
     30 NBC        45.0980  -20.4520   -8.4320 N.4       1 MOL         0.2302
     31 H1         50.4454   -8.3127   -7.3983 H         1 MOL         0.0231
     32 H2         50.3578   -9.9649   -8.0978 H         1 MOL         0.0231
     33 H3         51.8912   -9.3782   -7.3690 H         1 MOL         0.0231
     34 H4         49.2647   -9.8713   -5.8731 H         1 MOL         0.0290
     35 H5         50.7982   -9.2846   -5.1443 H         1 MOL         0.0290
     36 H6         51.9364  -11.3759   -5.8997 H         1 MOL         0.0631
     37 H7         50.3791  -11.9648   -6.5738 H         1 MOL         0.0631
     38 H8         46.1990  -11.0205   -1.9107 H         1 MOL         0.0377
     39 H9         45.4104  -12.6056   -2.2145 H         1 MOL         0.0377
     40 H10        45.0124  -11.1915   -3.2484 H         1 MOL         0.0377
     41 H11        43.0066  -14.4009   -5.8381 H         1 MOL         0.0557
     42 H12        44.4244  -16.4821   -6.1975 H         1 MOL         0.0311
     43 H13        42.7561  -16.8831   -5.6660 H         1 MOL         0.0311
     44 H14        41.9745  -15.7160   -3.6108 H         1 MOL         0.0288
     45 H15        42.0534  -13.9234   -3.6935 H         1 MOL         0.0288
     46 H16        43.5360  -15.7065   -1.8975 H         1 MOL         0.0288
     47 H17        43.6127  -13.9137   -1.9782 H         1 MOL         0.0288
     48 H18        45.8449  -14.3847   -2.7278 H         1 MOL         0.0557
     49 H19        45.6442  -16.8727   -2.4903 H         1 MOL         0.0311
     50 H20        46.3301  -16.4737   -4.1018 H         1 MOL         0.0311
     51 H21        43.4651  -17.2632   -3.4141 H         1 MOL         0.0454
     52 H22        45.3020  -18.1937   -6.5293 H         1 MOL         0.0487
     53 H23        44.8460  -21.6822   -3.0249 H         1 MOL         0.0568
     54 H24        45.7360  -22.2789   -5.2609 H         1 MOL         0.0492
     55 H25        46.4388  -21.7106   -7.4022 H         1 MOL         0.0970
     56 H26        47.0034  -20.0220   -7.6402 H         1 MOL         0.0970
     57 H27        45.4656  -20.7024   -9.3366 H         1 MOL         0.2007
     58 H28        44.8177  -19.4838   -8.4396 H         1 MOL         0.2007
     59 H29        44.3003  -21.0312   -8.2215 H         1 MOL         0.2007
@<TRIPOS>BOND
     1    1    2 1  
     2    2    3 1  
     3    3    4 1  
     4    4    5 1  
     5    5    6 1  
     6    5    7 2  
     7    6   11 1  
     8    7    8 1  
     9    7    9 1  
    10    9   10 1  
    11    9   11 2  
    12   11   12 1  
    13   12   13 2  
    14   12   14 am 
    15   14   15 1  
    16   14   19 1  
    17   15   16 1  
    18   15   17 1  
    19   16   21 1  
    20   17   18 1  
    21   18   19 1  
    22   19   20 1  
    23   20   21 1  
    24   21   22 1  
    25   22   23 ar 
    26   22   24 ar 
    27   23   28 ar 
    28   24   25 1  
    29   24   26 ar 
    30   26   27 ar 
    31   27   28 ar 
    32   28   29 1  
    33   29   30 1  
    34    1   31 1  
    35    1   32 1  
    36    1   33 1  
    37    2   34 1  
    38    2   35 1  
    39    3   36 1  
    40    3   37 1  
    41   10   38 1  
    42   10   39 1  
    43   10   40 1  
    44   15   41 1  
    45   16   42 1  
    46   16   43 1  
    47   17   44 1  
    48   17   45 1  
    49   18   46 1  
    50   18   47 1  
    51   19   48 1  
    52   20   49 1  
    53   20   50 1  
    54   21   51 1  
    55   23   52 1  
    56   26   53 1  
    57   27   54 1  
    58   29   55 1  
    59   29   56 1  
    60   30   57 1  
    61   30   58 1  
    62   30   59 1  
@<TRIPOS>SUBSTRUCTURE
     1 MOL         1

