### 
### Created by X-TOOL on Mon Sep 10 21:13:08 2018
### 

@<TRIPOS>MOLECULE
3v7x_ligand
   45    46     1     0     0
SMALL
GAST_HUCK


@<TRIPOS>ATOM
      1 CAB        23.0500   13.5900   14.9900 C.3       1 D7A         0.0568
      2 OAR        21.6920   14.0420   15.0160 O.3       1 D7A        -0.3266
      3 CAX        20.8480   13.2330   14.3740 C.ar      1 D7A         0.1132
      4 CAM        20.6680   11.8880   14.6780 C.ar      1 D7A        -0.0398
      5 CAW        20.1520   13.8750   13.3470 C.ar      1 D7A         0.1122
      6 OAQ        20.3760   15.1810   13.2460 O.3       1 D7A        -0.3294
      7 CAA        20.3210   15.7800   11.9580 C.3       1 D7A         0.0554
      8 CAL        19.2770   13.1100   12.6000 C.ar      1 D7A        -0.0479
      9 CAG        19.1120   11.7710   12.8980 C.ar      1 D7A        -0.0800
     10 CAT        19.7770   11.1240   13.9420 C.ar      1 D7A        -0.0607
     11 CAO        19.4800    9.7870   14.2850 C.3       1 D7A        -0.0064
     12 CAN        19.1030    8.9010   13.1090 C.3       1 D7A         0.0383
     13 NAP        18.5780    7.5960   13.6080 N.am      1 D7A        -0.2844
     14 CAS        17.2830    7.4570   13.8960 C.2       1 D7A         0.2051
     15 OAD        16.4990    8.4170   13.6740 O.2       1 D7A        -0.3847
     16 CAU        16.7840    6.2690   14.5000 C.ar      1 D7A         0.0500
     17 CAI        15.4480    6.1740   14.8230 C.ar      1 D7A        -0.0401
     18 CAK        14.9590    5.0500   15.4880 C.ar      1 D7A        -0.0295
     19 CAH        17.6220    5.1910   14.8070 C.ar      1 D7A        -0.0401
     20 CAJ        17.1240    4.0420   15.4800 C.ar      1 D7A        -0.0295
     21 CAV        15.7710    3.9940   15.8270 C.ar      1 D7A         0.1122
     22 SAY        15.1590    2.6040   16.7340 S.o2      1 D7A         0.0677
     23 OAE        15.7310    2.7490   18.0860 O.2       1 D7A        -0.1499
     24 OAF        13.7110    2.6770   16.6380 O.2       1 D7A        -0.1499
     25 NAC        15.6890    1.2540   16.0460 N.am      1 D7A        -0.2605
     26 H1         23.6844   14.3035   15.5362 H         1 D7A         0.0573
     27 H2         23.3927   13.5184   13.9472 H         1 D7A         0.0573
     28 H3         23.1164   12.6009   15.4666 H         1 D7A         0.0573
     29 H4         21.2251   11.4371   15.4913 H         1 D7A         0.0450
     30 H5         20.5274   16.8569   12.0454 H         1 D7A         0.0570
     31 H6         19.3196   15.6324   11.5274 H         1 D7A         0.0570
     32 H7         21.0734   15.3143   11.3046 H         1 D7A         0.0570
     33 H8         18.7224   13.5584   11.7837 H         1 D7A         0.0493
     34 H9         18.4290   11.1908   12.2881 H         1 D7A         0.0436
     35 H10        18.6385    9.7933   14.9934 H         1 D7A         0.0423
     36 H11        20.3658    9.3527   14.7716 H         1 D7A         0.0423
     37 H12        19.9919    8.7229   12.4860 H         1 D7A         0.0540
     38 H13        18.3286    9.4007   12.5086 H         1 D7A         0.0540
     39 H14        19.2001    6.8221   13.7270 H         1 D7A         0.1846
     40 H15        14.7720    6.9789   14.5582 H         1 D7A         0.0670
     41 H16        13.9068    5.0078   15.7453 H         1 D7A         0.0649
     42 H17        18.6684    5.2328   14.5269 H         1 D7A         0.0670
     43 H18        17.7835    3.2159   15.7203 H         1 D7A         0.0649
     44 H19        15.4382    0.3654   16.4299 H         1 D7A         0.1635
     45 H20        16.2700    1.3016   15.2335 H         1 D7A         0.1635
@<TRIPOS>BOND
     1    1    2 1  
     2    2    3 1  
     3    3    4 ar 
     4    3    5 ar 
     5    4   10 ar 
     6    5    6 1  
     7    5    8 ar 
     8    6    7 1  
     9    8    9 ar 
    10    9   10 ar 
    11   10   11 1  
    12   11   12 1  
    13   12   13 1  
    14   13   14 am 
    15   14   15 2  
    16   14   16 1  
    17   16   17 ar 
    18   16   19 ar 
    19   17   18 ar 
    20   18   21 ar 
    21   19   20 ar 
    22   20   21 ar 
    23   21   22 1  
    24   22   23 2  
    25   22   24 2  
    26   22   25 am 
    27    1   26 1  
    28    1   27 1  
    29    1   28 1  
    30    4   29 1  
    31    7   30 1  
    32    7   31 1  
    33    7   32 1  
    34    8   33 1  
    35    9   34 1  
    36   11   35 1  
    37   11   36 1  
    38   12   37 1  
    39   12   38 1  
    40   13   39 1  
    41   17   40 1  
    42   18   41 1  
    43   19   42 1  
    44   20   43 1  
    45   25   44 1  
    46   25   45 1  
@<TRIPOS>SUBSTRUCTURE
     1 D7A         1

