### 
### Created by X-TOOL on Mon Sep 10 21:13:10 2018
### 

@<TRIPOS>MOLECULE
3v8s_ligand
   37    39     1     0     0
SMALL
GAST_HUCK


@<TRIPOS>ATOM
      1 C10       -43.7130    0.2100   35.5230 C.ar      1 0HD        -0.0686
      2 N12       -46.4180    3.1460   30.6340 N.am      1 0HD        -0.2195
      3 C13       -46.3030    3.1620   29.2010 C.ar      1 0HD         0.0676
      4 C15       -45.5000    4.0420   27.0780 C.ar      1 0HD         0.0187
      5 C20       -47.0350    2.1300   27.1010 C.ar      1 0HD        -0.0731
      6 C21       -47.0610    2.1930   28.4960 C.ar      1 0HD        -0.0415
      7 O01       -44.5190    4.3300   31.3050 O.2       1 0HD        -0.3904
      8 C02       -45.5500    3.7450   31.5960 C.2       1 0HD         0.2873
      9 N03       -45.8990    3.6130   32.9650 N.am      1 0HD        -0.2659
     10 C04       -45.0380    4.1810   33.9540 C.3       1 0HD         0.0413
     11 C05       -45.1920    3.6770   35.3450 C.3       1 0HD         0.0009
     12 C06       -45.0400    2.2120   35.5930 C.ar      1 0HD        -0.0411
     13 C07       -46.0920    1.4910   36.1420 C.ar      1 0HD        -0.0603
     14 C08       -45.9540    0.1280   36.3790 C.ar      1 0HD        -0.0686
     15 C09       -44.7630   -0.5140   36.0710 C.ar      1 0HD        -0.0687
     16 C11       -43.8470    1.5700   35.2820 C.ar      1 0HD        -0.0603
     17 C14       -45.5270    4.1080   28.4900 C.ar      1 0HD        -0.0267
     18 C16       -46.2530    3.0700   26.3880 C.ar      1 0HD        -0.0310
     19 N17       -46.0510    3.2760   25.0540 N.2       1 0HD        -0.3433
     20 N18       -45.2200    4.2860   24.8570 N.pl3     1 0HD        -0.2464
     21 C19       -44.8350    4.8030   26.0210 C.2       1 0HD         0.1055
     22 H1        -42.7822   -0.2904   35.2817 H         1 0HD         0.0599
     23 H2        -47.2056    2.6529   31.0035 H         1 0HD         0.2255
     24 H3        -47.6044    1.3736   26.5730 H         1 0HD         0.0577
     25 H4        -47.6714    1.4887   29.0495 H         1 0HD         0.0501
     26 H5        -46.7331    3.1308   33.2331 H         1 0HD         0.1854
     27 H6        -45.2201    5.2657   33.9708 H         1 0HD         0.0540
     28 H7        -44.0007    3.9881   33.6429 H         1 0HD         0.0540
     29 H8        -46.1994    3.9608   35.6836 H         1 0HD         0.0445
     30 H9        -44.4396    4.1905   35.9616 H         1 0HD         0.0445
     31 H10       -47.0221    1.9915   36.3861 H         1 0HD         0.0557
     32 H11       -46.7776   -0.4337   36.8048 H         1 0HD         0.0599
     33 H12       -44.6530   -1.5762   36.2575 H         1 0HD         0.0559
     34 H13       -43.0240    2.1299   34.8526 H         1 0HD         0.0557
     35 H14       -44.9639    4.8690   29.0181 H         1 0HD         0.0512
     36 H15       -44.9143    4.6243   23.9334 H         1 0HD         0.2933
     37 H16       -44.1509    5.6387   26.1608 H         1 0HD         0.1367
@<TRIPOS>BOND
     1    1   15 ar 
     2   16    1 ar 
     3    2    3 1  
     4    8    2 am 
     5    3    6 ar 
     6    3   17 ar 
     7   17    4 ar 
     8    4   18 ar 
     9    4   21 2  
    10    6    5 ar 
    11    5   18 ar 
    12    8    7 2  
    13    9    8 am 
    14   10    9 1  
    15   11   10 1  
    16   12   11 1  
    17   12   13 ar 
    18   12   16 ar 
    19   13   14 ar 
    20   14   15 ar 
    21   18   19 2  
    22   19   20 1  
    23   20   21 1  
    24    1   22 1  
    25    2   23 1  
    26    5   24 1  
    27    6   25 1  
    28    9   26 1  
    29   10   27 1  
    30   10   28 1  
    31   11   29 1  
    32   11   30 1  
    33   13   31 1  
    34   14   32 1  
    35   15   33 1  
    36   16   34 1  
    37   17   35 1  
    38   20   36 1  
    39   21   37 1  
@<TRIPOS>SUBSTRUCTURE
     1 0HD         1

