### 
### Created by X-TOOL on Mon Sep 10 21:13:11 2018
### 

@<TRIPOS>MOLECULE
3v8t_ligand
   45    48     1     0     0
SMALL
GAST_HUCK


@<TRIPOS>ATOM
      1 CAU       -49.3900  -18.1100   32.4560 C.3       1 477        -0.0745
      2 CAT       -50.1340  -16.9080   33.0390 C.3       1 477        -0.0685
      3 CAR       -51.6530  -17.0340   32.8670 C.3       1 477         0.0240
      4 CAW       -52.3090  -15.8280   33.5540 C.3       1 477        -0.0685
      5 CAX       -53.8290  -15.9750   33.6420 C.3       1 477        -0.0745
      6 OAS       -52.1010  -18.2380   33.5080 O.3       1 477        -0.4475
      7 CAJ       -52.0240  -17.0410   31.3690 C.ar      1 477        -0.0599
      8 CAI       -51.5370  -16.0360   30.5260 C.ar      1 477        -0.0210
      9 CAK       -52.8510  -18.0370   30.8330 C.ar      1 477        -0.0649
     10 CAL       -53.1790  -18.0330   29.4710 C.ar      1 477        -0.0521
     11 CAG       -52.6960  -17.0200   28.6390 C.ar      1 477         0.0049
     12 CAF       -52.8320  -16.7610   27.3360 C.2       1 477        -0.0247
     13 CAH       -51.8570  -16.0440   29.1650 C.ar      1 477         0.0946
     14 NAE       -51.5590  -15.2180   28.1690 N.pl3     1 477        -0.2560
     15 CAD       -52.1400  -15.6510   27.0490 C.2       1 477         0.1127
     16 CAC       -52.0070  -15.0210   25.8070 C.2       1 477         0.1435
     17 NAB       -51.2590  -13.9590   25.5000 N.pl3     1 477        -0.2149
     18 NAA       -51.3870  -13.6690   24.3010 N.2       1 477        -0.2200
     19 CAM       -52.2090  -14.5130   23.6650 C.2       1 477         0.0346
     20 CAQ       -52.7320  -14.7610   22.4410 C.2       1 477        -0.0527
     21 CAN       -52.6350  -15.4170   24.6420 C.2       1 477         0.0753
     22 SAO       -53.6950  -16.5030   23.9020 S.3       1 477        -0.0329
     23 CAP       -53.5750  -15.8020   22.3880 C.2       1 477         0.0780
     24 CAV       -54.3280  -16.2820   21.1450 C.3       1 477         0.2882
     25 FAZ       -54.0670  -15.4300   20.0860 F         1 477        -0.1891
     26 FAY       -53.9360  -17.5710   20.8240 F         1 477        -0.1891
     27 H         -49.7164  -19.0183   32.9625 H         1 477         0.0219
     28 H         -49.6073  -18.1884   31.3908 H         1 477         0.0219
     29 H         -48.3178  -17.9771   32.6006 H         1 477         0.0219
     30 H         -49.8041  -16.0137   32.5103 H         1 477         0.0138
     31 H         -49.9148  -16.8559   34.1055 H         1 477         0.0138
     32 H         -52.0863  -14.9379   32.9655 H         1 477         0.0138
     33 H         -51.9143  -15.7570   34.5676 H         1 477         0.0138
     34 H         -54.2431  -16.0619   32.6375 H         1 477         0.0219
     35 H         -54.0737  -16.8688   34.2158 H         1 477         0.0219
     36 H         -54.2495  -15.0986   34.1352 H         1 477         0.0219
     37 H         -51.6939  -18.9962   33.0825 H         1 477         0.1881
     38 H         -50.9064  -15.2447   30.9314 H         1 477         0.0783
     39 H         -53.2423  -18.8213   31.4810 H         1 477         0.0659
     40 H         -53.8111  -18.8204   29.0604 H         1 477         0.0609
     41 H         -53.4090  -17.3533   26.6258 H         1 477         0.0439
     42 H         -50.9774  -14.3838   28.2479 H         1 477         0.2285
     43 H         -50.6651  -13.4562   26.1594 H         1 477         0.2533
     44 H         -52.4863  -14.1600   21.5654 H         1 477         0.0259
     45 H         -55.3985  -16.2804   21.3503 H         1 477         0.1235
@<TRIPOS>BOND
     1    1    2 1  
     2    2    3 1  
     3    3    4 1  
     4    3    6 1  
     5    3    7 1  
     6    4    5 1  
     7    7    8 ar 
     8    7    9 ar 
     9    8   13 ar 
    10    9   10 ar 
    11   10   11 ar 
    12   11   12 1  
    13   11   13 ar 
    14   12   15 2  
    15   13   14 1  
    16   14   15 1  
    17   15   16 1  
    18   16   17 1  
    19   16   21 2  
    20   17   18 1  
    21   18   19 2  
    22   19   20 1  
    23   19   21 1  
    24   20   23 2  
    25   21   22 1  
    26   22   23 1  
    27   23   24 1  
    28   24   25 1  
    29   24   26 1  
    30    1   27 1  
    31    1   28 1  
    32    1   29 1  
    33    2   30 1  
    34    2   31 1  
    35    4   32 1  
    36    4   33 1  
    37    5   34 1  
    38    5   35 1  
    39    5   36 1  
    40    6   37 1  
    41    8   38 1  
    42    9   39 1  
    43   10   40 1  
    44   12   41 1  
    45   14   42 1  
    46   17   43 1  
    47   20   44 1  
    48   24   45 1  
@<TRIPOS>SUBSTRUCTURE
     1 477         1

