### 
### Created by X-TOOL on Mon Sep 10 21:13:11 2018
### 

@<TRIPOS>MOLECULE
3v8w_ligand
   52    56     1     0     0
SMALL
GAST_HUCK


@<TRIPOS>ATOM
      1 CBB       -52.5750  -15.7470   35.1470 C.3       1 0G2        -0.0745
      2 CAY       -52.7790  -15.7760   33.6280 C.3       1 0G2        -0.0685
      3 CAS       -51.9360  -16.8660   32.9530 C.3       1 0G2         0.0241
      4 CAZ       -50.4450  -16.5520   33.1510 C.3       1 0G2        -0.0685
      5 CBC       -49.5510  -17.6280   32.5280 C.3       1 0G2        -0.0745
      6 OBA       -52.2320  -18.1320   33.5580 O.3       1 0G2        -0.4474
      7 CAH       -52.2810  -16.8910   31.4500 C.ar      1 0G2        -0.0599
      8 CAI       -51.8020  -15.8850   30.6030 C.ar      1 0G2        -0.0210
      9 CAG       -53.0900  -17.9040   30.9240 C.ar      1 0G2        -0.0649
     10 CAF       -53.4050  -17.9220   29.5630 C.ar      1 0G2        -0.0521
     11 CAE       -52.9250  -16.9130   28.7280 C.ar      1 0G2         0.0048
     12 CAB       -53.0500  -16.6840   27.4250 C.2       1 0G2        -0.0248
     13 CAD       -52.1080  -15.9120   29.2410 C.ar      1 0G2         0.0946
     14 NAC       -51.8060  -15.1030   28.2310 N.pl3     1 0G2        -0.2560
     15 CAA       -52.3720  -15.5750   27.1200 C.2       1 0G2         0.1134
     16 CAJ       -52.2590  -14.9910   25.8580 C.2       1 0G2         0.1472
     17 NAK       -51.5150  -13.9520   25.4870 N.pl3     1 0G2        -0.2093
     18 NAL       -51.6770  -13.7130   24.2830 N.2       1 0G2        -0.2072
     19 CAN       -52.5260  -14.5700   23.7060 C.2       1 0G2         0.0529
     20 CAO       -53.0930  -14.8600   22.5110 C.2       1 0G2        -0.0426
     21 CAM       -52.9280  -15.4250   24.7300 C.2       1 0G2         0.0793
     22 SAQ       -54.0140  -16.5180   24.0680 S.3       1 0G2        -0.0436
     23 CAP       -53.9410  -15.9020   22.5000 C.2       1 0G2         0.0343
     24 CAR       -54.6970  -16.4130   21.4430 C.ar      1 0G2        -0.0073
     25 CAT       -54.8150  -15.6870   20.2540 C.ar      1 0G2        -0.0534
     26 CAU       -55.5840  -16.1820   19.1990 C.ar      1 0G2        -0.0616
     27 CAV       -56.2430  -17.4040   19.3280 C.ar      1 0G2        -0.0621
     28 CAW       -56.1370  -18.1300   20.5150 C.ar      1 0G2        -0.0616
     29 CAX       -55.3680  -17.6340   21.5690 C.ar      1 0G2        -0.0534
     30 H         -52.8627  -16.7098   35.5694 H         1 0G2         0.0219
     31 H         -51.5257  -15.5509   35.3677 H         1 0G2         0.0219
     32 H         -53.1920  -14.9598   35.5802 H         1 0G2         0.0219
     33 H         -52.4721  -14.8107   33.2253 H         1 0G2         0.0138
     34 H         -53.8298  -15.9876   33.4301 H         1 0G2         0.0138
     35 H         -50.2415  -16.5143   34.2212 H         1 0G2         0.0138
     36 H         -50.2271  -15.6011   32.6647 H         1 0G2         0.0138
     37 H         -49.7641  -18.5901   32.9939 H         1 0G2         0.0219
     38 H         -49.7499  -17.6890   31.4580 H         1 0G2         0.0219
     39 H         -48.5049  -17.3681   32.6902 H         1 0G2         0.0219
     40 H         -53.1628  -18.3333   33.4372 H         1 0G2         0.1881
     41 H         -51.1892  -15.0793   31.0072 H         1 0G2         0.0783
     42 H         -53.4768  -18.6839   31.5800 H         1 0G2         0.0659
     43 H         -54.0235  -18.7215   29.1552 H         1 0G2         0.0609
     44 H         -53.6123  -17.2990   26.7224 H         1 0G2         0.0438
     45 H         -51.2353  -14.2600   28.2951 H         1 0G2         0.2285
     46 H         -50.8984  -13.4267   26.1069 H         1 0G2         0.2566
     47 H         -52.8746  -14.2830   21.6124 H         1 0G2         0.0455
     48 H         -54.3041  -14.7298   20.1501 H         1 0G2         0.0622
     49 H         -55.6693  -15.6125   18.2735 H         1 0G2         0.0617
     50 H         -56.8402  -17.7917   18.5027 H         1 0G2         0.0614
     51 H         -56.6544  -19.0837   20.6190 H         1 0G2         0.0617
     52 H         -55.2898  -18.2017   22.4962 H         1 0G2         0.0622
@<TRIPOS>BOND
     1    1    2 1  
     2    2    3 1  
     3    3    4 1  
     4    3    6 1  
     5    3    7 1  
     6    4    5 1  
     7    7    8 ar 
     8    7    9 ar 
     9    8   13 ar 
    10    9   10 ar 
    11   10   11 ar 
    12   11   12 1  
    13   11   13 ar 
    14   12   15 2  
    15   13   14 1  
    16   14   15 1  
    17   15   16 1  
    18   16   17 1  
    19   16   21 2  
    20   17   18 1  
    21   18   19 2  
    22   19   20 1  
    23   19   21 1  
    24   20   23 2  
    25   21   22 1  
    26   22   23 1  
    27   23   24 1  
    28   24   25 ar 
    29   24   29 ar 
    30   25   26 ar 
    31   26   27 ar 
    32   27   28 ar 
    33   28   29 ar 
    34    1   30 1  
    35    1   31 1  
    36    1   32 1  
    37    2   33 1  
    38    2   34 1  
    39    4   35 1  
    40    4   36 1  
    41    5   37 1  
    42    5   38 1  
    43    5   39 1  
    44    6   40 1  
    45    8   41 1  
    46    9   42 1  
    47   10   43 1  
    48   12   44 1  
    49   14   45 1  
    50   17   46 1  
    51   20   47 1  
    52   25   48 1  
    53   26   49 1  
    54   27   50 1  
    55   28   51 1  
    56   29   52 1  
@<TRIPOS>SUBSTRUCTURE
     1 0G2         1

