### 
### Created by X-TOOL on Mon Sep 10 21:13:10 2018
### 

@<TRIPOS>MOLECULE
3vap_ligand
   72    77     1     0     0
SMALL
GAST_HUCK


@<TRIPOS>ATOM
      1 C34         9.7650   24.4620    5.5840 C.ar      1 0FY         0.0603
      2 C14         2.3940   35.8260    4.9610 C.2       1 0FY         0.0014
      3 C28         7.3380   29.1230    9.3820 C.2       1 0FY         0.0380
      4 C25         8.5590   29.9720    7.7370 C.2       1 0FY         0.1126
      5 C35         9.8050   23.1890    4.9920 C.ar      1 0FY         0.0264
      6 C37        12.1970   23.1590    5.1710 C.ar      1 0FY         0.0737
      7 C8          5.7560   32.0320    8.9780 C.2       1 0FY         0.1271
      8 C10         7.3680   30.1210    8.4410 C.2       1 0FY         0.0743
      9 C33        10.9960   25.0890    5.9840 C.ar      1 0FY         0.2543
     10 C38        12.2440   24.3790    5.7520 C.ar      1 0FY         0.2734
     11 C9          6.4080   31.1670    8.1410 C.2       1 0FY         0.1177
     12 C15         1.9280   36.1660    3.6520 C.2       1 0FY         0.0399
     13 C13         3.2030   34.7300    4.8330 C.2       1 0FY         0.1554
     14 C4          5.1680   32.5230    6.9140 C.ar      1 0FY         0.2271
     15 C6          6.2650   30.8280    5.5900 C.ar      1 0FY         0.0240
     16 C3          4.6740   33.0930    5.7140 C.ar      1 0FY         0.2195
     17 C1          5.7200   31.3930    4.4940 C.ar      1 0FY         0.0437
     18 C30         9.9730   27.1620    6.9330 C.2       1 0FY         0.3272
     19 C21         3.2330   39.6030    1.1670 C.3       1 0FY        -0.0121
     20 C22         2.1350   39.9810    0.1350 C.3       1 0FY        -0.0408
     21 C20         2.6170   39.0780    2.4840 C.3       1 0FY        -0.0300
     22 C24         0.4640   38.6600    1.3870 C.3       1 0FY        -0.0274
     23 C23         0.9720   38.9430   -0.0220 C.3       1 0FY        -0.0034
     24 C11         6.0990   30.9290    3.1290 C.3       1 0FY        -0.0115
     25 C40         1.1800   37.6040   -0.7900 C.3       1 0FY        -0.0576
     26 C18         1.0780   37.3240    3.3970 C.3       1 0FY         0.0145
     27 C29        10.3670   28.3090    7.8390 C.3       1 0FY         0.1962
     28 N27         8.4290   28.3490    9.2640 N.2       1 0FY        -0.1850
     29 N16         2.3520   35.4420    2.5990 N.2       1 0FY        -0.2984
     30 N2          4.9700   32.5370    4.5400 N.ar      1 0FY        -0.2489
     31 N26         9.1310   28.9020    8.2810 N.pl3     1 0FY        -0.1511
     32 N5          5.9480   31.4210    6.8410 N.ar      1 0FY        -0.2784
     33 N36        11.0000   22.6330    4.8150 N.ar      1 0FY        -0.3575
     34 N7          5.0830   32.8690    8.1780 N.pl3     1 0FY        -0.2095
     35 N32        11.0540   26.3840    6.5700 N.am      1 0FY        -0.1413
     36 N12         3.8110   34.1780    5.8820 N.pl3     1 0FY        -0.2140
     37 N19         1.5670   38.0580    2.1950 N.4       1 0FY         0.2508
     38 O31         8.8160   26.9910    6.5910 O.2       1 0FY        -0.3233
     39 F39        13.5110   24.8080    6.0590 F         1 0FY        -0.1245
     40 S17         3.3980   34.2750    3.0950 S.3       1 0FY         0.0266
     41 H           8.8124   24.9687    5.7384 H         1 0FY         0.0952
     42 H           2.1499   36.3440    5.8885 H         1 0FY         0.0335
     43 H           6.5457   28.9796   10.1167 H         1 0FY         0.0751
     44 H           8.9372   30.5918    6.9240 H         1 0FY         0.1379
     45 H           8.8918   22.6766    4.6893 H         1 0FY         0.0891
     46 H          13.1163   22.6020    4.9901 H         1 0FY         0.0902
     47 H           5.7797   32.0382   10.0677 H         1 0FY         0.1501
     48 H           6.9176   29.9578    5.5194 H         1 0FY         0.0791
     49 H           3.8176   40.4952    1.3912 H         1 0FY         0.0317
     50 H           3.8531   38.8158    0.7383 H         1 0FY         0.0317
     51 H           2.6286   40.0436   -0.8348 H         1 0FY         0.0271
     52 H           1.6802   40.9058    0.4900 H         1 0FY         0.0271
     53 H           2.1648   39.9112    3.0220 H         1 0FY         0.0815
     54 H           3.4018   38.6197    3.0858 H         1 0FY         0.0815
     55 H          -0.3759   37.9669    1.3407 H         1 0FY         0.0817
     56 H           0.1359   39.5900    1.8513 H         1 0FY         0.0817
     57 H           0.2767   39.4336   -0.7031 H         1 0FY         0.0350
     58 H           7.1703   31.0681    2.9838 H         1 0FY         0.0440
     59 H           5.8509   29.8729    3.0237 H         1 0FY         0.0440
     60 H           5.5520   31.5080    2.3849 H         1 0FY         0.0440
     61 H           1.4661   37.8179   -1.8198 H         1 0FY         0.0234
     62 H           1.9675   37.0271   -0.3051 H         1 0FY         0.0234
     63 H           0.2514   37.0332   -0.7806 H         1 0FY         0.0234
     64 H           1.1074   37.9885    4.2605 H         1 0FY         0.1037
     65 H           0.0560   36.9880    3.2218 H         1 0FY         0.1037
     66 H          10.9891   29.0337    7.3137 H         1 0FY         0.0932
     67 H          10.9640   27.9614    8.6822 H         1 0FY         0.0932
     68 H          11.0173   21.7175    4.3656 H         1 0FY         0.1597
     69 H           4.5643   33.6814    8.5119 H         1 0FY         0.2629
     70 H          11.9813   26.7743    6.7377 H         1 0FY         0.3395
     71 H           3.6446   34.5513    6.8165 H         1 0FY         0.2385
     72 H           2.0106   37.3311    1.6334 H         1 0FY         0.2053
@<TRIPOS>BOND
     1    1    5 ar 
     2    9    1 ar 
     3    2   12 1  
     4   13    2 2  
     5    8    3 1  
     6    3   28 2  
     7    4    8 2  
     8   31    4 1  
     9    5   33 ar 
    10   10    6 ar 
    11    6   33 ar 
    12   11    7 2  
    13    7   34 1  
    14    8   11 1  
    15    9   10 ar 
    16   35    9 1  
    17   10   39 1  
    18   11   32 1  
    19   12   26 1  
    20   12   29 2  
    21   36   13 1  
    22   13   40 1  
    23   14   16 ar 
    24   32   14 ar 
    25   14   34 1  
    26   15   17 ar 
    27   32   15 ar 
    28   16   30 ar 
    29   16   36 1  
    30   17   24 1  
    31   17   30 ar 
    32   27   18 1  
    33   18   35 am 
    34   18   38 2  
    35   19   20 1  
    36   21   19 1  
    37   23   20 1  
    38   37   21 1  
    39   22   23 1  
    40   37   22 1  
    41   23   25 1  
    42   26   37 1  
    43   27   31 1  
    44   28   31 1  
    45   29   40 1  
    46    1   41 1  
    47    2   42 1  
    48    3   43 1  
    49    4   44 1  
    50    5   45 1  
    51    6   46 1  
    52    7   47 1  
    53   15   48 1  
    54   19   49 1  
    55   19   50 1  
    56   20   51 1  
    57   20   52 1  
    58   21   53 1  
    59   21   54 1  
    60   22   55 1  
    61   22   56 1  
    62   23   57 1  
    63   24   58 1  
    64   24   59 1  
    65   24   60 1  
    66   25   61 1  
    67   25   62 1  
    68   25   63 1  
    69   26   64 1  
    70   26   65 1  
    71   27   66 1  
    72   27   67 1  
    73   33   68 1  
    74   34   69 1  
    75   35   70 1  
    76   36   71 1  
    77   37   72 1  
@<TRIPOS>SUBSTRUCTURE
     1 0FY         1

