### 
### Created by X-TOOL on Mon Sep 10 21:13:08 2018
### 

@<TRIPOS>MOLECULE
3vbd_ligand
   41    43     1     0     0
SMALL
GAST_HUCK


@<TRIPOS>ATOM
      1 CAB        -5.8180   10.5810   10.2290 C.3       1 0FZ         0.0578
      2 OAR        -6.5820    9.3930   10.4320 O.3       1 0FZ        -0.3272
      3 CAX        -5.8440    8.3990   10.9560 C.ar      1 0FZ         0.0774
      4 CAM        -4.5190    8.5380   11.3120 C.ar      1 0FZ        -0.0374
      5 CAW        -6.4800    7.1880   11.2200 C.ar      1 0FZ        -0.0460
      6 CAL        -5.7310    6.2650   11.8900 C.ar      1 0FZ        -0.0678
      7 CAG        -4.4280    6.3610   12.3770 C.ar      1 0FZ         0.0072
      8 CAT        -3.8000    7.5610   11.9970 C.ar      1 0FZ        -0.0369
      9 CAO        -2.4530    7.8110   12.2330 C.3       1 0FZ         0.0169
     10 CAN        -1.7260    6.4630   12.4300 C.3       1 0FZ        -0.0224
     11 NAP        -2.4570    5.7340   13.5120 N.4       1 0FZ         0.2519
     12 CAS        -3.7850    5.4880   13.2610 C.3       1 0FZ         0.0374
     13 CAU        -4.2620    4.4090   13.9940 C.ar      1 0FZ         0.0129
     14 CAI        -5.5720    4.3050   14.4440 C.ar      1 0FZ        -0.0516
     15 CAK        -6.0460    3.2270   15.1730 C.ar      1 0FZ        -0.0416
     16 CAH        -3.4270    3.3280   14.3410 C.ar      1 0FZ        -0.0516
     17 CAJ        -3.8900    2.2270   15.0920 C.ar      1 0FZ        -0.0416
     18 CAV        -5.2190    2.1730   15.5400 C.ar      1 0FZ         0.1010
     19 SAY        -5.8070    0.8320   16.5930 S.o2      1 0FZ         0.0629
     20 OAE        -5.2410    1.1410   17.9210 O.2       1 0FZ        -0.1513
     21 OAF        -7.3180    1.0140   16.5570 O.2       1 0FZ        -0.1513
     22 NAC        -5.3480   -0.5110   16.1290 N.am      1 0FZ        -0.2617
     23 H1         -6.4625   11.3626    9.8004 H         1 0FZ         0.0575
     24 H2         -4.9886   10.3700    9.5379 H         1 0FZ         0.0575
     25 H3         -5.4140   10.9262   11.1921 H         1 0FZ         0.0575
     26 H4         -4.0096    9.4567   11.0445 H         1 0FZ         0.0463
     27 H5         -7.5012    6.9921   10.9138 H         1 0FZ         0.0469
     28 H6         -6.2221    5.3157   12.0706 H         1 0FZ         0.0517
     29 H7         -2.3438    8.4261   13.1384 H         1 0FZ         0.0463
     30 H8         -2.0192    8.3432   11.3736 H         1 0FZ         0.0463
     31 H9         -0.6814    6.6358   12.7283 H         1 0FZ         0.0836
     32 H10        -1.7494    5.8799   11.4976 H         1 0FZ         0.0836
     33 H11        -2.3961    6.2844   14.3543 H         1 0FZ         0.2044
     34 H12        -1.9980    4.8481   13.6556 H         1 0FZ         0.2044
     35 H13        -3.5646    4.8189   12.4162 H         1 0FZ         0.1142
     36 H14        -6.2598    5.1102   14.2123 H         1 0FZ         0.0562
     37 H15        -7.0898    3.2052   15.4648 H         1 0FZ         0.0619
     38 H16        -2.3919    3.3430   14.0194 H         1 0FZ         0.0562
     39 H17        -3.2120    1.4141   15.3255 H         1 0FZ         0.0619
     40 H18        -5.6123   -1.3321   16.6350 H         1 0FZ         0.1634
     41 H19        -4.7763   -0.5894   15.3123 H         1 0FZ         0.1634
@<TRIPOS>BOND
     1    1    2 1  
     2    2    3 1  
     3    3    4 ar 
     4    3    5 ar 
     5    4    8 ar 
     6    5    6 ar 
     7    6    7 ar 
     8    7    8 ar 
     9    7   12 1  
    10    8    9 1  
    11    9   10 1  
    12   10   11 1  
    13   11   12 1  
    14   12   13 1  
    15   13   14 ar 
    16   13   16 ar 
    17   14   15 ar 
    18   15   18 ar 
    19   16   17 ar 
    20   17   18 ar 
    21   18   19 1  
    22   19   20 2  
    23   19   21 2  
    24   19   22 am 
    25    1   23 1  
    26    1   24 1  
    27    1   25 1  
    28    4   26 1  
    29    5   27 1  
    30    6   28 1  
    31    9   29 1  
    32    9   30 1  
    33   10   31 1  
    34   10   32 1  
    35   11   33 1  
    36   11   34 1  
    37   12   35 1  
    38   14   36 1  
    39   15   37 1  
    40   16   38 1  
    41   17   39 1  
    42   22   40 1  
    43   22   41 1  
@<TRIPOS>SUBSTRUCTURE
     1 0FZ         1

