### 
### Created by X-TOOL on Mon Sep 10 21:13:09 2018
### 

@<TRIPOS>MOLECULE
3vbg_ligand
   42    45     1     0     0
SMALL
GAST_HUCK


@<TRIPOS>ATOM
      1 C4         12.0190  -19.0310   -9.1740 C.ar      1 03M        -0.0806
      2 C6         15.0810  -20.6420   -8.0750 C.2       1 03M         0.0248
      3 C7         13.7130  -20.3840   -7.9660 C.2       1 03M        -0.0382
      4 C8         13.2850  -19.4680   -8.9050 C.ar      1 03M        -0.0256
      5 C10        12.7210  -21.0890   -7.1140 C.2       1 03M        -0.0544
      6 N12        14.4200  -22.6130   -5.9770 N.am      1 03M        -0.2120
      7 C13        14.1740  -23.6380   -5.0920 C.2       1 03M         0.3219
      8 C15        12.2320  -22.9430   -5.4300 C.2       1 03M         0.2544
      9 C20        10.8690  -23.9770   -2.0650 C.ar      1 03M        -0.0637
     10 C21        10.7240  -23.5790   -0.7520 C.ar      1 03M        -0.0365
     11 C22        11.8700  -23.5750    0.0790 C.ar      1 03M         0.1576
     12 C24        13.2800  -24.3720   -1.6260 C.ar      1 03M        -0.0262
     13 C1         11.8960  -18.1090  -10.1930 C.ar      1 03M        -0.0722
     14 C2         12.9730  -17.6410  -10.9100 C.ar      1 03M         0.0263
     15 C3         14.2410  -18.1060  -10.6510 C.ar      1 03M        -0.0112
     16 N5         15.4990  -19.7780   -9.1020 N.pl3     1 03M        -0.2831
     17 C9         14.4120  -19.0630   -9.6260 C.ar      1 03M         0.0689
     18 C11        13.1380  -22.1670   -6.2060 C.2       1 03M         0.1336
     19 N14        12.9360  -23.8540   -4.7720 N.am      1 03M        -0.1547
     20 O16        15.0220  -24.4110   -4.4920 O.2       1 03M        -0.3808
     21 O17        10.9580  -22.7770   -5.4090 O.2       1 03M        -0.3769
     22 C18        12.4970  -24.8600   -3.8320 C.3       1 03M         0.0895
     23 C19        12.1730  -24.3640   -2.4600 C.ar      1 03M        -0.0221
     24 C23        13.1060  -23.9430   -0.3350 C.ar      1 03M         0.1589
     25 F25        14.1440  -23.9120    0.4990 F         1 03M        -0.1861
     26 F26        11.8140  -23.2230    1.3370 F         1 03M        -0.1901
     27 C27        15.4030  -17.5490  -11.4700 C.3       1 03M        -0.0326
     28 CL         12.6070  -16.3850  -12.1640 Cl        1 03M        -0.0870
     29 H          11.1549  -19.3904   -8.6152 H         1 03M         0.0481
     30 H          15.6822  -21.3464   -7.5000 H         1 03M         0.0896
     31 H          11.6703  -20.8031   -7.1629 H         1 03M         0.0350
     32 H          15.3051  -22.2775   -6.3571 H         1 03M         0.2283
     33 H          10.0283  -23.9927   -2.7586 H         1 03M         0.0514
     34 H           9.7516  -23.2753   -0.3643 H         1 03M         0.0576
     35 H          14.2537  -24.7071   -1.9833 H         1 03M         0.0533
     36 H          10.9025  -17.7352  -10.4408 H         1 03M         0.0500
     37 H          16.4626  -19.6837   -9.4228 H         1 03M         0.2257
     38 H          13.3240  -25.5613   -3.7204 H         1 03M         0.0729
     39 H          11.5752  -25.2793   -4.2353 H         1 03M         0.0729
     40 H          16.1112  -17.0554  -10.8045 H         1 03M         0.0378
     41 H          15.9017  -18.3653  -11.9925 H         1 03M         0.0378
     42 H          15.0227  -16.8300  -12.1956 H         1 03M         0.0378
@<TRIPOS>BOND
     1    4    1 ar 
     2    1   13 ar 
     3    3    2 2  
     4    2   16 1  
     5    3    4 1  
     6    5    3 1  
     7    4   17 ar 
     8   18    5 2  
     9    7    6 am 
    10   18    6 1  
    11   19    7 am 
    12    7   20 2  
    13    8   18 1  
    14   19    8 am 
    15    8   21 2  
    16    9   10 ar 
    17   23    9 ar 
    18   10   11 ar 
    19   24   11 ar 
    20   11   26 1  
    21   23   12 ar 
    22   12   24 ar 
    23   13   14 ar 
    24   15   14 ar 
    25   14   28 1  
    26   17   15 ar 
    27   15   27 1  
    28   17   16 1  
    29   22   19 1  
    30   22   23 1  
    31   24   25 1  
    32    1   29 1  
    33    2   30 1  
    34    5   31 1  
    35    6   32 1  
    36    9   33 1  
    37   10   34 1  
    38   12   35 1  
    39   13   36 1  
    40   16   37 1  
    41   22   38 1  
    42   22   39 1  
    43   27   40 1  
    44   27   41 1  
    45   27   42 1  
@<TRIPOS>SUBSTRUCTURE
     1 03M         1

