### 
### Created by X-TOOL on Mon Sep 10 21:13:09 2018
### 

@<TRIPOS>MOLECULE
3vbq_ligand
   50    53     1     0     0
SMALL
GAST_HUCK


@<TRIPOS>ATOM
      1 C10       -23.7340  -36.8950    2.6490 C.ar      1 0F5        -0.0541
      2 C13       -23.3650  -34.4490    2.5990 C.2       1 0F5        -0.0278
      3 C15       -22.6470  -32.1290    2.8120 C.2       1 0F5         0.2478
      4 C17       -21.4800  -31.3880    1.0980 C.2       1 0F5         0.2830
      5 C21       -22.4730  -33.5340   -3.4880 C.3       1 0F5         0.0398
      6 C22       -21.2850  -32.7990   -4.1430 C.3       1 0F5        -0.0248
      7 C24       -22.4380  -30.6290   -3.2610 C.3       1 0F5        -0.0242
      8 C26       -23.7140  -32.6230   -3.5420 C.3       1 0F5        -0.0248
      9 O19       -23.2080  -31.9970    3.9200 O.2       1 0F5        -0.3725
     10 N16       -22.0150  -31.0440    2.2900 N.am      1 0F5        -0.1871
     11 O20       -20.8640  -30.6360    0.3570 O.2       1 0F5        -0.3702
     12 S18       -21.8560  -33.0740    0.6120 S.3       1 0F5         0.0457
     13 C14       -22.6580  -33.3370    2.0960 C.2       1 0F5         0.1203
     14 C12       -23.4990  -35.7170    1.8790 C.ar      1 0F5        -0.0240
     15 C11       -23.4200  -35.7650    0.4940 C.ar      1 0F5        -0.0440
     16 C08       -23.9150  -38.0910    1.9400 C.ar      1 0F5        -0.0593
     17 C09       -23.8370  -38.1350    0.5240 C.ar      1 0F5        -0.0506
     18 C07       -23.5760  -36.9990   -0.2370 C.ar      1 0F5         0.0021
     19 C03       -23.5750  -36.9990   -1.6770 C.ar      1 0F5         0.0654
     20 N02       -23.2190  -35.8760   -2.3550 N.ar      1 0F5        -0.2580
     21 C01       -23.8960  -38.1150   -2.4630 C.ar      1 0F5         0.0329
     22 N05       -23.8870  -38.0650   -3.8300 N.ar      1 0F5        -0.2862
     23 C06       -23.5090  -36.9050   -4.5460 C.ar      1 0F5         0.0578
     24 C04       -23.1810  -35.8300   -3.7130 C.ar      1 0F5         0.1394
     25 N28       -22.8310  -34.7090   -4.2780 N.pl3     1 0F5        -0.2989
     26 C23       -21.1210  -31.4780   -3.3340 C.3       1 0F5        -0.0077
     27 N27       -22.3060  -29.3900   -2.4670 N.4       1 0F5         0.2207
     28 C25       -23.3730  -31.4830   -2.5650 C.3       1 0F5        -0.0077
     29 H1        -23.7709  -36.8666    3.7320 H         1 0F5         0.0631
     30 H2        -23.8370  -34.3597    3.5763 H         1 0F5         0.0590
     31 H3        -22.2261  -33.8130   -2.4530 H         1 0F5         0.0556
     32 H4        -21.5026  -32.5795   -5.1987 H         1 0F5         0.0289
     33 H5        -20.3712  -33.4076   -4.0758 H         1 0F5         0.0289
     34 H6        -22.7894  -30.3840   -4.2741 H         1 0F5         0.0850
     35 H7        -24.6131  -33.1651   -3.2137 H         1 0F5         0.0289
     36 H8        -23.8712  -32.2341   -4.5589 H         1 0F5         0.0289
     37 H9        -21.9560  -30.1418    2.7172 H         1 0F5         0.2256
     38 H10       -23.2357  -34.8483   -0.0545 H         1 0F5         0.0642
     39 H11       -24.1195  -39.0043    2.4870 H         1 0F5         0.0621
     40 H12       -23.9853  -39.0827    0.0191 H         1 0F5         0.0637
     41 H13       -24.1592  -39.0452   -1.9727 H         1 0F5         0.0807
     42 H14       -23.4768  -36.8543   -5.6283 H         1 0F5         0.0819
     43 H15       -22.8063  -34.6503   -5.3060 H         1 0F5         0.1829
     44 H16       -20.3394  -30.8698   -3.8128 H         1 0F5         0.0320
     45 H17       -20.8118  -31.7319   -2.3093 H         1 0F5         0.0320
     46 H18       -23.1857  -28.8978   -2.4636 H         1 0F5         0.1997
     47 H19       -21.5946  -28.8038   -2.8748 H         1 0F5         0.1997
     48 H20       -22.0478  -29.6231   -1.5209 H         1 0F5         0.1997
     49 H21       -24.2811  -30.9209   -2.3015 H         1 0F5         0.0320
     50 H22       -22.9139  -31.8875   -1.6509 H         1 0F5         0.0320
@<TRIPOS>BOND
     1   14    1 ar 
     2   16    1 ar 
     3    2   13 2  
     4   14    2 1  
     5    3    9 2  
     6    3   10 am 
     7   13    3 1  
     8    4   10 am 
     9    4   11 2  
    10   12    4 1  
    11    5    6 1  
    12    5    8 1  
    13   25    5 1  
    14    6   26 1  
    15   26    7 1  
    16    7   27 1  
    17   28    7 1  
    18    8   28 1  
    19   13   12 1  
    20   15   14 ar 
    21   18   15 ar 
    22   17   16 ar 
    23   18   17 ar 
    24   19   18 1  
    25   20   19 ar 
    26   19   21 ar 
    27   24   20 ar 
    28   22   21 ar 
    29   23   22 ar 
    30   24   23 ar 
    31   24   25 1  
    32    1   29 1  
    33    2   30 1  
    34    5   31 1  
    35    6   32 1  
    36    6   33 1  
    37    7   34 1  
    38    8   35 1  
    39    8   36 1  
    40   10   37 1  
    41   15   38 1  
    42   16   39 1  
    43   17   40 1  
    44   21   41 1  
    45   23   42 1  
    46   25   43 1  
    47   26   44 1  
    48   26   45 1  
    49   27   46 1  
    50   27   47 1  
    51   27   48 1  
    52   28   49 1  
    53   28   50 1  
@<TRIPOS>SUBSTRUCTURE
     1 0F5         1

