### 
### Created by X-TOOL on Mon Sep 10 21:13:11 2018
### 

@<TRIPOS>MOLECULE
3vbt_ligand
   20    21     1     0     0
SMALL
GAST_HUCK


@<TRIPOS>ATOM
      1 CAC       -18.5000  -35.9010    2.0470 C.2       1 0F9        -0.0434
      2 CAD       -17.6200  -34.9580    2.4900 C.2       1 0F9         0.0467
      3 NAE       -16.8480  -34.5570    1.4570 N.pl3     1 0F9        -0.2233
      4 NAF       -17.3270  -35.2770    0.2840 N.2       1 0F9        -0.2187
      5 CAB       -18.3040  -36.0900    0.7120 C.2       1 0F9         0.0318
      6 CAA       -18.9620  -36.9750   -0.0920 C.ar      1 0F9         0.0165
      7 CAK       -19.9380  -37.8100    0.4360 C.ar      1 0F9        -0.0486
      8 CAJ       -20.6230  -38.7260   -0.3460 C.ar      1 0F9         0.0287
      9 CL1       -21.7860  -39.7800    0.4390 Cl        1 0F9        -0.0809
     10 CAI       -20.3630  -38.8600   -1.6910 C.ar      1 0F9        -0.0569
     11 CAH       -19.3870  -38.0080   -2.2120 C.ar      1 0F9        -0.0316
     12 CAG       -18.6800  -37.1050   -1.4400 C.ar      1 0F9         0.0977
     13 OAM       -17.7180  -36.2350   -1.9770 O.3       1 0F9        -0.3306
     14 H1        -19.2376  -36.4177    2.6593 H         1 0F9         0.0342
     15 H2        -17.5510  -34.5880    3.5119 H         1 0F9         0.0987
     16 H3        -16.0746  -33.8776    1.4914 H         1 0F9         0.2575
     17 H4        -20.1711  -37.7431    1.4925 H         1 0F9         0.0593
     18 H5        -20.8841  -39.5829   -2.3082 H         1 0F9         0.0592
     19 H6        -19.1733  -38.0570   -3.2736 H         1 0F9         0.0541
     20 H7        -17.3523  -35.7010   -1.2816 H         1 0F9         0.2497
@<TRIPOS>BOND
     1    1    2 2  
     2    1    5 1  
     3    2    3 1  
     4    3    4 1  
     5    4    5 2  
     6    5    6 1  
     7    6    7 ar 
     8    6   12 ar 
     9    7    8 ar 
    10    8    9 1  
    11    8   10 ar 
    12   10   11 ar 
    13   11   12 ar 
    14   12   13 1  
    15    1   14 1  
    16    2   15 1  
    17    3   16 1  
    18    7   17 1  
    19   10   18 1  
    20   11   19 1  
    21   13   20 1  
@<TRIPOS>SUBSTRUCTURE
     1 0F9         1

