### 
### Created by X-TOOL on Mon Sep 10 21:13:11 2018
### 

@<TRIPOS>MOLECULE
3vbv_ligand
   22    23     1     0     0
SMALL
GAST_HUCK


@<TRIPOS>ATOM
      1 CAG        22.9780   34.2020    3.2010 C.ar      1 0FK        -0.0165
      2 CAI        23.1880   35.5360    2.7380 C.ar      1 0FK        -0.0361
      3 CAH        22.9520   35.8130    1.3880 C.ar      1 0FK         0.0018
      4 CAN        23.2350   37.1210    0.9450 C.ar      1 0FK        -0.0590
      5 CAL        23.0140   37.4260   -0.4040 C.ar      1 0FK        -0.0680
      6 CAM        22.5770   36.4410   -1.3450 C.ar      1 0FK        -0.0273
      7 CAE        22.3240   35.1640   -0.8460 C.ar      1 0FK         0.1182
      8 OAK        21.8780   34.2070   -1.7450 O.3       1 0FK        -0.3251
      9 CAB        22.5210   34.8030    0.5250 C.ar      1 0FK         0.0887
     10 NAA        22.2800   33.5110    1.0240 N.ar      1 0FK        -0.2719
     11 CAC        22.4810   33.1810    2.3390 C.ar      1 0FK         0.1196
     12 CAD        22.3070   31.8460    2.7830 C.2       1 0FK         0.2221
     13 OAF        21.7370   31.1420    1.9420 O.2       1 0FK        -0.3783
     14 NAJ        23.0390   31.3140    3.9720 N.am      1 0FK        -0.2978
     15 H1         23.2020   33.9594    4.2335 H         1 0FK         0.0724
     16 H2         23.5217   36.3138    3.4153 H         1 0FK         0.0748
     17 H3         23.6136   37.8708    1.6302 H         1 0FK         0.0525
     18 H4         23.1794   38.4412   -0.7461 H         1 0FK         0.0615
     19 H5         22.4488   36.6762   -2.3954 H         1 0FK         0.0536
     20 H6         21.7422   33.3847   -1.2890 H         1 0FK         0.2524
     21 H7         22.8978   30.3681    4.2640 H         1 0FK         0.1812
     22 H8         23.6701   31.9039    4.4758 H         1 0FK         0.1812
@<TRIPOS>BOND
     1    1    2 ar 
     2    1   11 ar 
     3    2    3 ar 
     4    3    4 ar 
     5    3    9 ar 
     6    4    5 ar 
     7    5    6 ar 
     8    6    7 ar 
     9    7    8 1  
    10    7    9 ar 
    11    9   10 ar 
    12   10   11 ar 
    13   11   12 1  
    14   12   13 2  
    15   12   14 am 
    16    1   15 1  
    17    2   16 1  
    18    4   17 1  
    19    5   18 1  
    20    6   19 1  
    21    8   20 1  
    22   14   21 1  
    23   14   22 1  
@<TRIPOS>SUBSTRUCTURE
     1 0FK         1

