### 
### Created by X-TOOL on Mon Sep 10 21:13:11 2018
### 

@<TRIPOS>MOLECULE
3vbw_ligand
   18    19     1     0     0
SMALL
GAST_HUCK


@<TRIPOS>ATOM
      1 OAH        23.1710   33.5730    3.3930 O.2       1 0FN        -0.3685
      2 CAC        22.7250   33.9470    2.2880 C.2       1 0FN         0.1838
      3 CAD        22.9040   35.1720    1.6910 C.ar      1 0FN         0.0548
      4 CAK        23.3820   36.3300    2.1930 C.ar      1 0FN        -0.0378
      5 CAL        23.4930   37.4620    1.3670 C.ar      1 0FN        -0.0517
      6 CAM        23.0680   37.3740    0.0280 C.ar      1 0FN        -0.0517
      7 CAJ        22.5430   36.1410   -0.4340 C.ar      1 0FN        -0.0378
      8 CAE        22.4930   35.0860    0.3810 C.ar      1 0FN         0.0548
      9 CAB        22.0290   33.8290    0.1720 C.2       1 0FN         0.1838
     10 OAI        21.6140   33.3570   -0.9000 O.2       1 0FN        -0.3685
     11 CAA        21.8460   33.2340    1.4620 C.3       1 0FN         0.2306
     12 CAF        21.7410   31.7360    1.5120 C.1       1 0FN         0.1326
     13 NAG        21.5520   30.5400    1.5470 N.1       1 0FN        -0.2980
     14 H          23.6821   36.3875    3.2393 H         1 0FN         0.0684
     15 H          23.9020   38.3938    1.7575 H         1 0FN         0.0665
     16 H          23.1409   38.2338   -0.6380 H         1 0FN         0.0665
     17 H          22.1792   36.0546   -1.4579 H         1 0FN         0.0684
     18 H          20.8407   33.3407    1.8696 H         1 0FN         0.1038
@<TRIPOS>BOND
     1    1    2 2  
     2    2    3 1  
     3    2   11 1  
     4    3    4 ar 
     5    3    8 ar 
     6    4    5 ar 
     7    5    6 ar 
     8    6    7 ar 
     9    7    8 ar 
    10    8    9 1  
    11    9   10 2  
    12    9   11 1  
    13   11   12 1  
    14   12   13 3  
    15    4   14 1  
    16    5   15 1  
    17    6   16 1  
    18    7   17 1  
    19   11   18 1  
@<TRIPOS>SUBSTRUCTURE
     1 0FN         1

