### 
### Created by X-TOOL on Mon Sep 10 21:13:11 2018
### 

@<TRIPOS>MOLECULE
3vbx_ligand
   18    19     1     0     0
SMALL
GAST_HUCK


@<TRIPOS>ATOM
      1 CAD       -17.4290  -35.1730   -0.6590 C.3       1 0FO         0.1259
      2 CAE       -17.3640  -35.5540   -2.0070 C.2       1 0FO         0.2766
      3 OAG       -16.6070  -34.9580   -2.7940 O.2       1 0FO        -0.3600
      4 OAF       -18.1310  -36.5620   -2.5000 O.3       1 0FO        -0.2035
      5 CAA       -19.0350  -37.2650   -1.7610 C.ar      1 0FO         0.1472
      6 CAL       -19.7430  -38.2440   -2.4320 C.ar      1 0FO        -0.0185
      7 CAK       -20.6020  -39.0330   -1.7080 C.ar      1 0FO        -0.0552
      8 CAJ       -20.7230  -38.7150   -0.3570 C.ar      1 0FO         0.0082
      9 BR1       -21.7870  -39.7430    0.6110 Br        1 0FO        -0.0578
     10 CAI       -19.9720  -37.7520    0.3340 C.ar      1 0FO        -0.0403
     11 CAB       -19.0740  -37.0030   -0.3970 C.ar      1 0FO         0.0719
     12 CAC       -18.2680  -35.9560    0.1260 C.2       1 0FO         0.1493
     13 OAH       -18.3460  -35.6520    1.3960 O.2       1 0FO        -0.3820
     14 H1        -17.7879  -34.1342   -0.6134 H         1 0FO         0.0740
     15 H2        -16.4145  -35.2292   -0.2377 H         1 0FO         0.0740
     16 H3        -19.6234  -38.3849   -3.5001 H         1 0FO         0.0574
     17 H4        -21.1513  -39.8515   -2.1589 H         1 0FO         0.0655
     18 H5        -20.0930  -37.6026    1.4008 H         1 0FO         0.0674
@<TRIPOS>BOND
     1    1    2 1  
     2    1   12 1  
     3    2    3 2  
     4    2    4 1  
     5    4    5 1  
     6    5    6 ar 
     7    5   11 ar 
     8    6    7 ar 
     9    7    8 ar 
    10    8    9 1  
    11    8   10 ar 
    12   10   11 ar 
    13   11   12 1  
    14   12   13 2  
    15    1   14 1  
    16    1   15 1  
    17    6   16 1  
    18    7   17 1  
    19   10   18 1  
@<TRIPOS>SUBSTRUCTURE
     1 0FO         1

