### 
### Created by X-TOOL on Mon Sep 10 21:13:11 2018
### 

@<TRIPOS>MOLECULE
3vby_ligand
   25    27     1     0     0
SMALL
GAST_HUCK


@<TRIPOS>ATOM
      1 CAI        23.3150   37.4160   -0.4510 C.ar      1 0FR        -0.0417
      2 CAH        23.7980   38.0080    0.7360 C.ar      1 0FR        -0.0756
      3 CAG        23.7920   37.2510    1.9390 C.ar      1 0FR        -0.0782
      4 CAF        23.3160   35.9400    1.8280 C.ar      1 0FR        -0.0730
      5 CAE        22.9110   35.3980    0.6860 C.ar      1 0FR        -0.0098
      6 CAD        22.8760   36.1430   -0.4620 C.ar      1 0FR         0.0692
      7 NAC        22.4340   35.3380   -1.4750 N.pl3     1 0FR        -0.2698
      8 CAB        22.1260   34.1030   -0.9470 C.2       1 0FR         0.0480
      9 CAA        22.4320   34.1500    0.3820 C.2       1 0FR         0.0351
     10 CAJ        22.3170   33.1010    1.2610 C.2       1 0FR         0.1568
     11 OAP        22.5970   33.1890    2.4790 O.2       1 0FR        -0.3937
     12 CAK        21.9290   31.9020    0.7690 C.2       1 0FR         0.1621
     13 OAL        21.4780   30.8270    1.5990 O.3       1 0FR        -0.2525
     14 CAM        21.1770   29.8260    0.6640 C.2       1 0FR         0.0869
     15 CAN        21.4200   30.3130   -0.5610 C.2       1 0FR        -0.0553
     16 CAO        21.8510   31.5640   -0.5090 C.2       1 0FR        -0.0455
     17 H1         23.2972   37.9948   -1.3674 H         1 0FR         0.0549
     18 H2         24.1686   39.0267    0.7301 H         1 0FR         0.0534
     19 H3         24.1341   37.6628    2.8816 H         1 0FR         0.0519
     20 H4         23.2757   35.3328    2.7251 H         1 0FR         0.0538
     21 H5         22.3462   35.6088   -2.4649 H         1 0FR         0.2320
     22 H6         21.7162   33.2512   -1.4877 H         1 0FR         0.1066
     23 H7         20.8097   28.8268    0.8933 H         1 0FR         0.1042
     24 H8         21.2805   29.7506   -1.4830 H         1 0FR         0.0366
     25 H9         22.0960   32.1978   -1.3600 H         1 0FR         0.0435
@<TRIPOS>BOND
     1    1    2 ar 
     2    1    6 ar 
     3    2    3 ar 
     4    3    4 ar 
     5    4    5 ar 
     6    5    6 ar 
     7    5    9 1  
     8    6    7 1  
     9    7    8 1  
    10    8    9 2  
    11    9   10 1  
    12   10   11 2  
    13   10   12 1  
    14   12   13 1  
    15   12   16 2  
    16   13   14 1  
    17   14   15 2  
    18   15   16 1  
    19    1   17 1  
    20    2   18 1  
    21    3   19 1  
    22    4   20 1  
    23    7   21 1  
    24    8   22 1  
    25   14   23 1  
    26   15   24 1  
    27   16   25 1  
@<TRIPOS>SUBSTRUCTURE
     1 0FR         1

