### 
### Created by X-TOOL on Mon Sep 10 21:13:12 2018
### 

@<TRIPOS>MOLECULE
3vc4_ligand
   24    25     1     0     0
SMALL
GAST_HUCK


@<TRIPOS>ATOM
      1 C01        42.2280   -2.0760   -2.0700 C.ar      1 0FS        -0.0286
      2 C02        44.5320   -1.8050   -1.6630 C.ar      1 0FS        -0.0326
      3 C03        43.4780   -1.9430   -2.5870 C.ar      1 0FS        -0.0328
      4 C04        44.2540   -1.8310   -0.2490 C.ar      1 0FS         0.0472
      5 C05        41.9510   -2.1070   -0.5810 C.ar      1 0FS         0.0020
      6 C06        42.9630   -1.9660    0.3070 C.ar      1 0FS        -0.0264
      7 C07        38.5640   -2.9710    1.0700 C.2       1 0FS         0.2479
      8 N08        38.2140   -3.6680    2.4420 N.am      1 0FS        -0.1870
      9 C09        39.4200   -3.9290    3.1110 C.2       1 0FS         0.2830
     10 S10        40.6920   -3.3460    2.2420 S.3       1 0FS         0.0457
     11 C11        40.0130   -2.7820    0.9750 C.2       1 0FS         0.1209
     12 C12        45.3830   -1.6550    0.6810 C.3       1 0FS         0.3767
     13 C13        40.5220   -2.2080   -0.1340 C.2       1 0FS        -0.0215
     14 O14        37.7210   -2.6470    0.2790 O.2       1 0FS        -0.3725
     15 O15        39.4310   -4.4690    4.1850 O.2       1 0FS        -0.3702
     16 F16        46.5030   -2.2360    0.2200 F         1 0FS        -0.2200
     17 F17        45.0540   -2.0310    1.9390 F         1 0FS        -0.2200
     18 F18        45.5470   -0.3380    0.5690 F         1 0FS        -0.2200
     19 H          41.3916   -2.1638   -2.7540 H         1 0FS         0.0851
     20 H          45.5497   -1.6795   -2.0144 H         1 0FS         0.0843
     21 H          43.6548   -1.9431   -3.6565 H         1 0FS         0.0695
     22 H          42.7930   -1.9573    1.3776 H         1 0FS         0.0844
     23 H          37.2965   -3.8850    2.7753 H         1 0FS         0.2256
     24 H          39.7914   -1.7525   -0.8008 H         1 0FS         0.0596
@<TRIPOS>BOND
     1    1    3 ar 
     2    5    1 ar 
     3    3    2 ar 
     4    4    2 ar 
     5    6    4 ar 
     6    4   12 1  
     7    5    6 ar 
     8   13    5 1  
     9    7    8 am 
    10   11    7 1  
    11    7   14 2  
    12    9    8 am 
    13   10    9 1  
    14    9   15 2  
    15   11   10 1  
    16   11   13 2  
    17   12   16 1  
    18   12   17 1  
    19   12   18 1  
    20    1   19 1  
    21    2   20 1  
    22    3   21 1  
    23    6   22 1  
    24    8   23 1  
    25   13   24 1  
@<TRIPOS>SUBSTRUCTURE
     1 0FS         1

