### 
### Created by X-TOOL on Mon Sep 10 21:13:09 2018
### 

@<TRIPOS>MOLECULE
3vd4_ligand
   33    33     1     0     0
SMALL
GAST_HUCK


@<TRIPOS>ATOM
      1 C1        -14.6700  -27.5650  -26.3070 C.3       1 IPT         0.1332
      2 C2        -13.3560  -27.3730  -25.5420 C.3       1 IPT         0.1189
      3 O2        -13.4580  -26.1820  -24.7590 O.3       1 IPT        -0.3857
      4 C3        -12.1600  -27.2510  -26.4940 C.3       1 IPT         0.1126
      5 O3        -10.9280  -27.3470  -25.7590 O.3       1 IPT        -0.3865
      6 C4        -12.1820  -28.3050  -27.6100 C.3       1 IPT         0.1118
      7 O4        -11.8520  -29.5850  -27.0510 O.3       1 IPT        -0.3865
      8 C5        -13.5710  -28.3350  -28.2620 C.3       1 IPT         0.1115
      9 O5        -14.5280  -28.6260  -27.2490 O.3       1 IPT        -0.3553
     10 C6        -13.7790  -29.3590  -29.3730 C.3       1 IPT         0.0730
     11 O6        -12.6910  -29.3540  -30.3060 O.3       1 IPT        -0.3924
     12 S1        -16.0120  -27.9980  -25.2420 S.3       1 IPT        -0.1243
     13 C1'       -17.5270  -27.5400  -26.0430 C.3       1 IPT         0.0021
     14 C2'       -17.7430  -28.3350  -27.3330 C.3       1 IPT        -0.0535
     15 C3'       -18.6920  -27.7510  -25.0820 C.3       1 IPT        -0.0535
     16 H1        -14.9118  -26.6297  -26.8331 H         1 IPT         0.0740
     17 H2        -13.1970  -28.2364  -24.8792 H         1 IPT         0.0655
     18 H3        -12.6492  -26.0500  -24.2785 H         1 IPT         0.2100
     19 H4        -12.2058  -26.2584  -26.9659 H         1 IPT         0.0647
     20 H5        -10.8892  -28.1867  -25.3164 H         1 IPT         0.2100
     21 H6        -11.4346  -28.0427  -28.3733 H         1 IPT         0.0647
     22 H7        -11.8640  -30.2417  -27.7374 H         1 IPT         0.2100
     23 H8        -13.7663  -27.3365  -28.6802 H         1 IPT         0.0646
     24 H9        -14.7096  -29.1204  -29.9087 H         1 IPT         0.0584
     25 H10       -13.8603  -30.3603  -28.9249 H         1 IPT         0.0584
     26 H11       -12.6179  -28.4930  -30.7009 H         1 IPT         0.2095
     27 H12       -17.4745  -26.4723  -26.3021 H         1 IPT         0.0407
     28 H13       -18.6892  -28.0251  -27.8006 H         1 IPT         0.0240
     29 H14       -17.7841  -29.4091  -27.0993 H         1 IPT         0.0240
     30 H15       -16.9110  -28.1422  -28.0262 H         1 IPT         0.0240
     31 H16       -19.6321  -27.4673  -25.5776 H         1 IPT         0.0240
     32 H17       -18.5467  -27.1279  -24.1872 H         1 IPT         0.0240
     33 H18       -18.7376  -28.8100  -24.7880 H         1 IPT         0.0240
@<TRIPOS>BOND
     1    1    2 1  
     2    1    9 1  
     3    1   12 1  
     4    2    3 1  
     5    2    4 1  
     6    4    5 1  
     7    4    6 1  
     8    6    7 1  
     9    6    8 1  
    10    8    9 1  
    11    8   10 1  
    12   10   11 1  
    13   12   13 1  
    14   13   14 1  
    15   13   15 1  
    16    1   16 1  
    17    2   17 1  
    18    3   18 1  
    19    4   19 1  
    20    5   20 1  
    21    6   21 1  
    22    7   22 1  
    23    8   23 1  
    24   10   24 1  
    25   10   25 1  
    26   11   26 1  
    27   13   27 1  
    28   14   28 1  
    29   14   29 1  
    30   14   30 1  
    31   15   31 1  
    32   15   32 1  
    33   15   33 1  
@<TRIPOS>SUBSTRUCTURE
     1 IPT         1

