### 
### Created by X-TOOL on Mon Sep 10 21:13:10 2018
### 

@<TRIPOS>MOLECULE
3vd7_ligand
   24    25     1     0     0
SMALL
GAST_HUCK


@<TRIPOS>ATOM
      1 C1         53.7990  -11.7540   27.8990 C.2       1 GTZ         0.1975
      2 C2         54.3390  -10.4040   27.5970 C.3       1 GTZ         0.1694
      3 C3         53.3890   -9.2610   28.0160 C.3       1 GTZ         0.1278
      4 C4         51.9060   -9.6500   28.1790 C.3       1 GTZ         0.1212
      5 C5         51.6580  -10.9400   28.9850 C.3       1 GTZ         0.1447
      6 C6         50.2060  -11.4160   28.8780 C.3       1 GTZ         0.0799
      7 N1         54.3490  -12.9680   27.6340 N.2       1 GTZ        -0.2201
      8 O2         55.5800  -10.2690   28.2920 O.3       1 GTZ        -0.3672
      9 O3         53.4930   -8.1820   27.0650 O.3       1 GTZ        -0.3836
     10 O4         51.3400   -9.7820   26.8690 O.3       1 GTZ        -0.3856
     11 N5         52.6340  -11.9600   28.5020 N.pl3     1 GTZ        -0.1275
     12 O6         49.4000  -10.6610   29.7900 O.3       1 GTZ        -0.3917
     13 NA         52.3660  -13.3300   28.6620 N.2       1 GTZ        -0.0699
     14 NB         53.4790  -13.9790   28.0980 N.2       1 GTZ        -0.1529
     15 H          54.4629  -10.3204   26.5173 H         1 GTZ         0.0891
     16 H          53.7203   -8.9662   29.0117 H         1 GTZ         0.0678
     17 H          51.4315   -8.8590   28.7597 H         1 GTZ         0.0656
     18 H          51.8122  -10.7574   30.0485 H         1 GTZ         0.0734
     19 H          50.1472  -12.4758   29.1258 H         1 GTZ         0.0590
     20 H          49.8450  -11.2695   27.8600 H         1 GTZ         0.0590
     21 H          55.9783   -9.4237   28.0721 H         1 GTZ         0.2143
     22 H          53.1388   -8.4670   26.2194 H         1 GTZ         0.2103
     23 H          50.3951   -9.9343   26.9437 H         1 GTZ         0.2100
     24 H          49.7203  -10.7952   30.6850 H         1 GTZ         0.2095
@<TRIPOS>BOND
     1    1    2 1  
     2    1    7 2  
     3    1   11 1  
     4    2    3 1  
     5    2    8 1  
     6    3    4 1  
     7    3    9 1  
     8    4    5 1  
     9    4   10 1  
    10    5    6 1  
    11    5   11 1  
    12    6   12 1  
    13    7   14 1  
    14   11   13 1  
    15   13   14 2  
    16    2   15 1  
    17    3   16 1  
    18    4   17 1  
    19    5   18 1  
    20    6   19 1  
    21    6   20 1  
    22    8   21 1  
    23    9   22 1  
    24   10   23 1  
    25   12   24 1  
@<TRIPOS>SUBSTRUCTURE
     1 GTZ         1

