### 
### Created by X-TOOL on Mon Sep 10 21:13:09 2018
### 

@<TRIPOS>MOLECULE
3vd9_ligand
   33    33     1     0     0
SMALL
GAST_HUCK


@<TRIPOS>ATOM
      1 C1        -14.7000  -27.5380  -26.2770 C.3       1 IPT         0.1332
      2 C2        -13.3870  -27.3710  -25.4970 C.3       1 IPT         0.1189
      3 O2        -13.4640  -26.1970  -24.6960 O.3       1 IPT        -0.3857
      4 C3        -12.1560  -27.2630  -26.4070 C.3       1 IPT         0.1126
      5 O3        -10.9520  -27.3730  -25.6270 O.3       1 IPT        -0.3865
      6 C4        -12.1740  -28.3170  -27.5130 C.3       1 IPT         0.1118
      7 O4        -11.8920  -29.5990  -26.9410 O.3       1 IPT        -0.3865
      8 C5        -13.5460  -28.3100  -28.1970 C.3       1 IPT         0.1115
      9 O5        -14.5440  -28.5940  -27.2190 O.3       1 IPT        -0.3553
     10 C6        -13.7240  -29.3100  -29.3320 C.3       1 IPT         0.0730
     11 O6        -12.6340  -29.2570  -30.2580 O.3       1 IPT        -0.3924
     12 S1        -16.0160  -27.9530  -25.1720 S.3       1 IPT        -0.1243
     13 C1'       -17.5960  -28.2970  -25.9160 C.3       1 IPT         0.0021
     14 C2'       -18.6380  -27.3410  -25.3540 C.3       1 IPT        -0.0535
     15 C3'       -17.5950  -28.2580  -27.4440 C.3       1 IPT        -0.0535
     16 H1        -14.9395  -26.6012  -26.8013 H         1 IPT         0.0740
     17 H2        -13.2600  -28.2467  -24.8436 H         1 IPT         0.0655
     18 H3        -12.6532  -26.0912  -24.2124 H         1 IPT         0.2100
     19 H4        -12.1700  -26.2714  -26.8828 H         1 IPT         0.0647
     20 H5        -10.9391  -28.2129  -25.1832 H         1 IPT         0.2100
     21 H6        -11.4009  -28.0782  -28.2582 H         1 IPT         0.0647
     22 H7        -11.9019  -30.2586  -27.6246 H         1 IPT         0.2100
     23 H8        -13.7111  -27.3019  -28.6048 H         1 IPT         0.0646
     24 H9        -14.6576  -29.0806  -29.8665 H         1 IPT         0.0584
     25 H10       -13.7834  -30.3235  -28.9086 H         1 IPT         0.0584
     26 H11       -12.5796  -28.3853  -30.6318 H         1 IPT         0.2095
     27 H12       -17.8792  -29.3183  -25.6213 H         1 IPT         0.0407
     28 H13       -19.6150  -27.5525  -25.8130 H         1 IPT         0.0240
     29 H14       -18.3441  -26.3050  -25.5784 H         1 IPT         0.0240
     30 H15       -18.7082  -27.4744  -24.2644 H         1 IPT         0.0240
     31 H16       -18.6056  -28.4806  -27.8171 H         1 IPT         0.0240
     32 H17       -16.8884  -29.0078  -27.8295 H         1 IPT         0.0240
     33 H18       -17.2904  -27.2576  -27.7851 H         1 IPT         0.0240
@<TRIPOS>BOND
     1    1    2 1  
     2    1    9 1  
     3    1   12 1  
     4    2    3 1  
     5    2    4 1  
     6    4    5 1  
     7    4    6 1  
     8    6    7 1  
     9    6    8 1  
    10    8    9 1  
    11    8   10 1  
    12   10   11 1  
    13   12   13 1  
    14   13   14 1  
    15   13   15 1  
    16    1   16 1  
    17    2   17 1  
    18    3   18 1  
    19    4   19 1  
    20    5   20 1  
    21    6   21 1  
    22    7   22 1  
    23    8   23 1  
    24   10   24 1  
    25   10   25 1  
    26   11   26 1  
    27   13   27 1  
    28   14   28 1  
    29   14   29 1  
    30   14   30 1  
    31   15   31 1  
    32   15   32 1  
    33   15   33 1  
@<TRIPOS>SUBSTRUCTURE
     1 IPT         1

