### 
### Created by X-TOOL on Mon Sep 10 21:13:08 2018
### 

@<TRIPOS>MOLECULE
3vdb_ligand
   22    22     1     0     0
SMALL
GAST_HUCK


@<TRIPOS>ATOM
      1 C1        -11.2710  -26.9760  -25.6780 C.2       1 149         0.2660
      2 C2        -10.3110  -28.0180  -25.1710 C.3       1 149         0.1832
      3 C3         -9.5880  -28.6570  -26.3420 C.3       1 149         0.1280
      4 C4        -10.5840  -29.0700  -27.4300 C.3       1 149         0.1183
      5 C5        -11.2610  -27.8410  -28.0290 C.3       1 149         0.1389
      6 C6        -12.4080  -28.2360  -28.9500 C.3       1 149         0.0774
      7 O1        -11.6400  -26.0740  -24.9510 O.2       1 149        -0.3674
      8 O2         -9.3310  -27.4540  -24.2930 O.3       1 149        -0.3674
      9 O3         -8.8410  -29.7750  -25.8490 O.3       1 149        -0.3840
     10 O4        -11.6060  -29.9330  -26.9200 O.3       1 149        -0.3860
     11 O5        -11.8230  -26.9900  -27.0270 O.3       1 149        -0.2665
     12 O6        -11.9010  -28.7990  -30.1630 O.3       1 149        -0.3920
     13 H1        -10.8789  -28.7873  -24.6273 H         1 149         0.0881
     14 H2         -8.8882  -27.9263  -26.7737 H         1 149         0.0673
     15 H3        -10.0332  -29.6000  -28.2210 H         1 149         0.0652
     16 H4        -10.5092  -27.2782  -28.6018 H         1 149         0.0700
     17 H5        -13.0066  -27.3441  -29.1867 H         1 149         0.0587
     18 H6        -13.0413  -28.9786  -28.4426 H         1 149         0.0587
     19 H7         -8.8265  -26.7997  -24.7619 H         1 149         0.2136
     20 H8         -8.2364  -29.4795  -25.1784 H         1 149         0.2102
     21 H9        -12.1852  -30.1891  -27.6282 H         1 149         0.2100
     22 H10       -11.3553  -28.1586  -30.6042 H         1 149         0.2095
@<TRIPOS>BOND
     1    1    2 1  
     2    1    7 2  
     3    1   11 1  
     4    2    3 1  
     5    2    8 1  
     6    3    4 1  
     7    3    9 1  
     8    4    5 1  
     9    4   10 1  
    10    5    6 1  
    11    5   11 1  
    12    6   12 1  
    13    2   13 1  
    14    3   14 1  
    15    4   15 1  
    16    5   16 1  
    17    6   17 1  
    18    6   18 1  
    19    8   19 1  
    20    9   20 1  
    21   10   21 1  
    22   12   22 1  
@<TRIPOS>SUBSTRUCTURE
     1 149         1

