### 
### Created by X-TOOL on Mon Sep 10 21:13:09 2018
### 

@<TRIPOS>MOLECULE
3vdc_ligand
   33    33     1     0     0
SMALL
GAST_HUCK


@<TRIPOS>ATOM
      1 C1        -14.3050  -27.6140  -26.3700 C.3       1 IPT         0.1332
      2 C2        -13.0010  -27.4150  -25.6020 C.3       1 IPT         0.1189
      3 O2        -13.1240  -26.2020  -24.8560 O.3       1 IPT        -0.3857
      4 C3        -11.7910  -27.2960  -26.5400 C.3       1 IPT         0.1126
      5 O3        -10.5710  -27.4580  -25.8060 O.3       1 IPT        -0.3865
      6 C4        -11.8200  -28.2710  -27.7240 C.3       1 IPT         0.1118
      7 O4        -11.4360  -29.5650  -27.2670 O.3       1 IPT        -0.3865
      8 C5        -13.2240  -28.3270  -28.3220 C.3       1 IPT         0.1115
      9 O5        -14.1170  -28.6960  -27.2770 O.3       1 IPT        -0.3553
     10 C6        -13.4000  -29.2960  -29.4870 C.3       1 IPT         0.0730
     11 O6        -12.3040  -29.1790  -30.4000 O.3       1 IPT        -0.3924
     12 S1        -15.6200  -27.9490  -25.2320 S.3       1 IPT        -0.1243
     13 C1'       -17.2440  -28.2260  -25.9020 C.3       1 IPT         0.0021
     14 C2'       -18.2550  -27.3100  -25.2140 C.3       1 IPT        -0.0535
     15 C3'       -17.3090  -28.0510  -27.4160 C.3       1 IPT        -0.0535
     16 H         -14.5723  -26.7166  -26.9280 H         1 IPT         0.0740
     17 H         -12.8355  -28.2794  -24.9589 H         1 IPT         0.0655
     18 H         -12.3161  -26.0491  -24.3605 H         1 IPT         0.2100
     19 H         -11.8450  -26.2941  -26.9660 H         1 IPT         0.0647
     20 H          -9.8254  -27.3810  -26.4058 H         1 IPT         0.2100
     21 H         -11.1270  -27.9315  -28.4938 H         1 IPT         0.0647
     22 H         -12.0492  -29.8588  -26.5892 H         1 IPT         0.2100
     23 H         -13.4271  -27.3404  -28.7385 H         1 IPT         0.0646
     24 H         -14.3262  -29.0588  -30.0105 H         1 IPT         0.0584
     25 H         -13.4342  -30.3147  -29.1006 H         1 IPT         0.0584
     26 H         -12.2669  -28.2821  -30.7404 H         1 IPT         0.2095
     27 H         -17.4942  -29.2682  -25.7038 H         1 IPT         0.0407
     28 H         -18.2662  -27.5215  -24.1448 H         1 IPT         0.0240
     29 H         -17.9712  -26.2703  -25.3771 H         1 IPT         0.0240
     30 H         -19.2464  -27.4870  -25.6311 H         1 IPT         0.0240
     31 H         -17.0146  -27.0342  -27.6759 H         1 IPT         0.0240
     32 H         -16.6312  -28.7597  -27.8918 H         1 IPT         0.0240
     33 H         -18.3275  -28.2345  -27.7583 H         1 IPT         0.0240
@<TRIPOS>BOND
     1    1    2 1  
     2    1    9 1  
     3    1   12 1  
     4    2    3 1  
     5    2    4 1  
     6    4    5 1  
     7    4    6 1  
     8    6    7 1  
     9    6    8 1  
    10    8    9 1  
    11    8   10 1  
    12   10   11 1  
    13   12   13 1  
    14   13   14 1  
    15   13   15 1  
    16    1   16 1  
    17    2   17 1  
    18    3   18 1  
    19    4   19 1  
    20    5   20 1  
    21    6   21 1  
    22    7   22 1  
    23    8   23 1  
    24   10   24 1  
    25   10   25 1  
    26   11   26 1  
    27   13   27 1  
    28   14   28 1  
    29   14   29 1  
    30   14   30 1  
    31   15   31 1  
    32   15   32 1  
    33   15   33 1  
@<TRIPOS>SUBSTRUCTURE
     1 IPT         1

