### 
### Created by X-TOOL on Mon Sep 10 21:13:09 2018
### 

@<TRIPOS>MOLECULE
3veh_ligand
   29    29     1     0     0
SMALL
GAST_HUCK


@<TRIPOS>ATOM
      1 OAD        -4.5260   -0.6680   33.3570 O.co2     1 0GA        -0.5625
      2 CAL        -4.4180    0.5160   33.7320 C.2       1 0GA         0.0847
      3 OAB        -3.9340    0.7580   34.8510 O.co2     1 0GA        -0.5625
      4 CAN        -4.6420    1.6250   32.7660 C.2       1 0GA         0.1294
      5 CAG        -4.6800    2.9330   33.1050 C.2       1 0GA        -0.0554
      6 CAA        -4.8630    3.9190   31.9840 C.3       1 0GA        -0.0453
      7 OAK        -4.8170    1.3290   31.3390 O.3       1 0GA        -0.2744
      8 CAP        -3.7430    0.5940   30.6850 C.2       1 0GA         0.1029
      9 CAI        -2.5310    0.3190   31.2160 C.2       1 0GA        -0.0811
     10 CAH        -1.4330   -0.1900   30.3980 C.3       1 0GA        -0.0482
     11 CAJ        -1.7580   -0.7040   29.1530 C.3       1 0GA        -0.0327
     12 CAO        -4.1240    0.0730   29.3450 C.3       1 0GA         0.1262
     13 OAF        -5.1730    0.7920   28.7230 O.3       1 0GA        -0.3754
     14 CAQ        -2.9290   -0.0880   28.4310 C.3       1 0GA         0.0503
     15 CAM        -3.3430   -0.5470   27.0280 C.2       1 0GA         0.0425
     16 OAC        -4.4980   -0.2040   26.5910 O.co2     1 0GA        -0.5685
     17 OAE        -2.4910   -1.1910   26.3890 O.co2     1 0GA        -0.5685
     18 H1         -4.5828    3.2573   34.1400 H         1 0GA         0.0473
     19 H2         -4.8765    4.9402   32.3925 H         1 0GA         0.0356
     20 H3         -5.8142    3.7172   31.4698 H         1 0GA         0.0356
     21 H4         -4.0321    3.8208   31.2699 H         1 0GA         0.0356
     22 H5         -2.3689    0.4810   32.2806 H         1 0GA         0.0163
     23 H6         -0.9388   -0.9905   30.9680 H         1 0GA         0.0318
     24 H7         -0.7261    0.6379   30.2402 H         1 0GA         0.0318
     25 H8         -1.9778   -1.7737   29.2851 H         1 0GA         0.0300
     26 H9         -0.8748   -0.5881   28.5076 H         1 0GA         0.0300
     27 H10        -4.5160   -0.9400   29.5184 H         1 0GA         0.0797
     28 H11        -5.3617    0.4053   27.8760 H         1 0GA         0.2132
     29 H12        -2.5821    0.9401   28.2505 H         1 0GA         0.0516
@<TRIPOS>BOND
     1    1    2 ar 
     2    2    3 ar 
     3    2    4 1  
     4    4    5 2  
     5    4    7 1  
     6    5    6 1  
     7    7    8 1  
     8    8    9 2  
     9    8   12 1  
    10    9   10 1  
    11   10   11 1  
    12   11   14 1  
    13   12   13 1  
    14   12   14 1  
    15   14   15 1  
    16   15   16 ar 
    17   15   17 ar 
    18    5   18 1  
    19    6   19 1  
    20    6   20 1  
    21    6   21 1  
    22    9   22 1  
    23   10   23 1  
    24   10   24 1  
    25   11   25 1  
    26   11   26 1  
    27   12   27 1  
    28   13   28 1  
    29   14   29 1  
@<TRIPOS>SUBSTRUCTURE
     1 0GA         1

