### 
### Created by X-TOOL on Mon Sep 10 21:13:09 2018
### 

@<TRIPOS>MOLECULE
3veu_ligand
   90    93     1     0     0
SMALL
GAST_HUCK


@<TRIPOS>ATOM
      1 N1         30.1300   78.7340   15.8710 N.4       1 0GO         0.2395
      2 C2         31.1620   77.6620   15.6870 C.3       1 0GO         0.0737
      3 C3         32.1880   78.3420   14.7440 C.3       1 0GO         0.0056
      4 C4         32.2210   79.7750   15.3040 C.3       1 0GO        -0.0079
      5 C5         30.7020   80.0210   15.3990 C.3       1 0GO        -0.0316
      6 C6         31.8200   77.1910   17.0200 C.3       1 0GO         0.0215
      7 C7         32.1030   75.6830   16.8590 C.3       1 0GO         0.0415
      8 N8         31.2120   75.3110   15.7650 N.am      1 0GO        -0.2464
      9 C9         30.6500   76.3590   15.1230 C.2       1 0GO         0.2522
     10 O10        29.8430   76.3140   14.2030 O.2       1 0GO        -0.3380
     11 C11        30.9320   73.9250   15.3620 C.3       1 0GO         0.1311
     12 C12        30.7840   73.0020   16.5540 C.2       1 0GO         0.2022
     13 N13        29.6150   73.0780   17.2590 N.am      1 0GO        -0.2773
     14 O14        31.6990   72.2320   16.8410 O.2       1 0GO        -0.3945
     15 C15        29.2280   78.8160   17.0510 C.3       1 0GO        -0.0319
     16 C16        27.8750   78.1100   16.7750 C.3       1 0GO        -0.0153
     17 C17        26.9240   78.2220   17.9920 C.3       1 0GO        -0.0605
     18 C18        31.9530   73.4350   14.2950 C.3       1 0GO        -0.0241
     19 C19        29.3280   72.2530   18.4470 C.3       1 0GO         0.0823
     20 C20        28.3840   71.0680   18.0730 C.3       1 0GO         0.1193
     21 C21        28.9700   70.1470   16.9750 C.3       1 0GO        -0.0033
     22 N22        28.1370   68.9400   16.7910 N.4       1 0GO         0.2409
     23 C23        28.8240   67.7810   16.1650 C.3       1 0GO        -0.0014
     24 C24        28.7310   73.1270   19.5920 C.3       1 0GO         0.0066
     25 C25        29.5700   74.3480   20.0040 C.ar      1 0GO        -0.0408
     26 C26        28.9050   75.5810   20.2180 C.ar      1 0GO        -0.0603
     27 C27        29.6320   76.7340   20.6030 C.ar      1 0GO        -0.0686
     28 C28        31.0350   76.6590   20.7760 C.ar      1 0GO        -0.0687
     29 C29        31.7070   75.4310   20.5630 C.ar      1 0GO        -0.0686
     30 C30        30.9800   74.2780   20.1780 C.ar      1 0GO        -0.0603
     31 O31        28.0190   70.2770   19.2180 O.3       1 0GO        -0.3841
     32 C32        29.9550   67.2260   17.0540 C.ar      1 0GO        -0.0054
     33 C33        31.2870   67.2340   16.5700 C.ar      1 0GO        -0.0622
     34 C34        32.3330   66.7300   17.3790 C.ar      1 0GO        -0.0750
     35 C35        32.0590   66.2150   18.6670 C.ar      1 0GO        -0.0670
     36 C36        30.7320   66.1940   19.1700 C.ar      1 0GO        -0.0471
     37 C37        29.6880   66.7070   18.3490 C.ar      1 0GO        -0.0539
     38 C38        30.4660   65.6170   20.5820 C.3       1 0GO        -0.0146
     39 C39        30.3680   66.7230   21.6600 C.3       1 0GO        -0.0529
     40 C40        29.2500   64.6500   20.6440 C.3       1 0GO        -0.0529
     41 H1         29.4636   78.5007   15.1516 H         1 0GO         0.2037
     42 H2         31.8441   78.3272   13.6992 H         1 0GO         0.0312
     43 H3         33.1753   77.8618   14.8119 H         1 0GO         0.0312
     44 H4         32.7119   80.4777   14.6147 H         1 0GO         0.0317
     45 H5         32.7106   79.8239   16.2878 H         1 0GO         0.0317
     46 H6         30.4854   80.8261   16.1166 H         1 0GO         0.0815
     47 H7         30.2917   80.2877   14.4138 H         1 0GO         0.0815
     48 H8         31.1345   77.3612   17.8632 H         1 0GO         0.0330
     49 H9         32.7586   77.7374   17.1945 H         1 0GO         0.0330
     50 H10        31.8560   75.1316   17.7782 H         1 0GO         0.0526
     51 H11        33.1551   75.5018   16.5942 H         1 0GO         0.0526
     52 H12        29.9510   73.9352   14.8644 H         1 0GO         0.0801
     53 H13        28.9183   73.7269   16.9530 H         1 0GO         0.1857
     54 H14        29.0390   79.8741   17.2850 H         1 0GO         0.0815
     55 H15        29.7162   78.3321   17.9098 H         1 0GO         0.0815
     56 H16        28.0621   77.0470   16.5630 H         1 0GO         0.0314
     57 H17        27.3972   78.5794   15.9024 H         1 0GO         0.0314
     58 H18        25.9759   77.7126   17.7646 H         1 0GO         0.0232
     59 H19        26.7278   79.2826   18.2077 H         1 0GO         0.0232
     60 H20        27.3926   77.7502   18.8682 H         1 0GO         0.0232
     61 H21        31.7194   72.3977   14.0132 H         1 0GO         0.0277
     62 H22        32.9699   73.4816   14.7119 H         1 0GO         0.0277
     63 H23        31.8915   74.0792   13.4055 H         1 0GO         0.0277
     64 H24        30.2772   71.8288   18.8063 H         1 0GO         0.0606
     65 H25        27.4616   71.5119   17.6704 H         1 0GO         0.0672
     66 H26        29.9855   69.8413   17.2671 H         1 0GO         0.0840
     67 H27        29.0127   70.7018   16.0261 H         1 0GO         0.0840
     68 H28        27.3533   69.1889   16.2080 H         1 0GO         0.2029
     69 H29        27.8033   68.6513   17.6973 H         1 0GO         0.2029
     70 H30        29.2531   68.1002   15.2037 H         1 0GO         0.0979
     71 H31        28.0866   66.9836   15.9907 H         1 0GO         0.0979
     72 H32        28.6087   72.4864   20.4778 H         1 0GO         0.0449
     73 H33        27.7460   73.4892   19.2625 H         1 0GO         0.0449
     74 H34        27.8308   75.6422   20.0859 H         1 0GO         0.0557
     75 H35        29.1147   77.6727   20.7650 H         1 0GO         0.0599
     76 H36        31.5937   77.5399   21.0709 H         1 0GO         0.0559
     77 H37        32.7814   75.3731   20.6950 H         1 0GO         0.0599
     78 H38        31.4992   73.3404   20.0156 H         1 0GO         0.0557
     79 H39        27.6596   70.8430   19.8910 H         1 0GO         0.2101
     80 H40        31.5040   67.6252   15.5826 H         1 0GO         0.0501
     81 H41        33.3517   66.7388   17.0086 H         1 0GO         0.0582
     82 H42        32.8701   65.8326   19.2760 H         1 0GO         0.0500
     83 H43        28.6693   66.7014   18.7195 H         1 0GO         0.0496
     84 H44        31.3502   65.0135   20.8347 H         1 0GO         0.0455
     85 H45        30.1791   66.2629   22.6412 H         1 0GO         0.0254
     86 H46        29.5428   67.4062   21.4105 H         1 0GO         0.0254
     87 H47        31.3124   67.2859   21.6947 H         1 0GO         0.0254
     88 H48        29.3540   63.8797   19.8656 H         1 0GO         0.0254
     89 H49        28.3220   65.2166   20.4774 H         1 0GO         0.0254
     90 H50        29.2137   64.1694   21.6328 H         1 0GO         0.0254
@<TRIPOS>BOND
     1    1    2 1  
     2    1    5 1  
     3    1   15 1  
     4    2    3 1  
     5    2    6 1  
     6    2    9 1  
     7    3    4 1  
     8    4    5 1  
     9    6    7 1  
    10    7    8 1  
    11    8    9 am 
    12    8   11 1  
    13    9   10 2  
    14   11   12 1  
    15   11   18 1  
    16   12   13 am 
    17   12   14 2  
    18   13   19 1  
    19   15   16 1  
    20   16   17 1  
    21   19   20 1  
    22   19   24 1  
    23   20   21 1  
    24   20   31 1  
    25   21   22 1  
    26   22   23 1  
    27   23   32 1  
    28   24   25 1  
    29   25   26 ar 
    30   25   30 ar 
    31   26   27 ar 
    32   27   28 ar 
    33   28   29 ar 
    34   29   30 ar 
    35   32   33 ar 
    36   32   37 ar 
    37   33   34 ar 
    38   34   35 ar 
    39   35   36 ar 
    40   36   37 ar 
    41   36   38 1  
    42   38   39 1  
    43   38   40 1  
    44    1   41 1  
    45    3   42 1  
    46    3   43 1  
    47    4   44 1  
    48    4   45 1  
    49    5   46 1  
    50    5   47 1  
    51    6   48 1  
    52    6   49 1  
    53    7   50 1  
    54    7   51 1  
    55   11   52 1  
    56   13   53 1  
    57   15   54 1  
    58   15   55 1  
    59   16   56 1  
    60   16   57 1  
    61   17   58 1  
    62   17   59 1  
    63   17   60 1  
    64   18   61 1  
    65   18   62 1  
    66   18   63 1  
    67   19   64 1  
    68   20   65 1  
    69   21   66 1  
    70   21   67 1  
    71   22   68 1  
    72   22   69 1  
    73   23   70 1  
    74   23   71 1  
    75   24   72 1  
    76   24   73 1  
    77   26   74 1  
    78   27   75 1  
    79   28   76 1  
    80   29   77 1  
    81   30   78 1  
    82   31   79 1  
    83   33   80 1  
    84   34   81 1  
    85   35   82 1  
    86   37   83 1  
    87   38   84 1  
    88   39   85 1  
    89   39   86 1  
    90   39   87 1  
    91   40   88 1  
    92   40   89 1  
    93   40   90 1  
@<TRIPOS>SUBSTRUCTURE
     1 0GO         1

