### 
### Created by X-TOOL on Mon Sep 10 21:13:09 2018
### 

@<TRIPOS>MOLECULE
3vf3_ligand
   56    58     1     0     0
SMALL
GAST_HUCK


@<TRIPOS>ATOM
      1 BR1        29.3810   78.9180   19.8940 Br        1 0GS        -0.0638
      2 C2         30.1390   77.3370   20.5050 C.ar      1 0GS         0.0211
      3 C3         31.3930   77.2540   21.1810 C.ar      1 0GS         0.0726
      4 C4         31.8640   75.9770   21.5940 C.ar      1 0GS         0.1448
      5 C5         31.1140   74.8060   21.3480 C.ar      1 0GS        -0.0351
      6 C7         29.8700   74.8920   20.6740 C.ar      1 0GS        -0.0545
      7 C8         29.3930   76.1630   20.2630 C.ar      1 0GS        -0.0663
      8 C10        29.0400   73.6260   20.3770 C.3       1 0GS        -0.0186
      9 C13        29.7230   72.7210   19.2810 C.3       1 0GS         0.0176
     10 C15        28.8460   71.5130   18.8070 C.3       1 0GS         0.1049
     11 C17        29.5950   70.5510   17.8270 C.3       1 0GS         0.0254
     12 C19        30.1430   71.2460   16.5490 C.3       1 0GS         0.1107
     13 S22        31.2730   72.5680   17.0070 S.o2      1 0GS        -0.0252
     14 C23        30.1910   73.5540   18.0410 C.3       1 0GS         0.0729
     15 O26        31.6000   73.3340   15.8180 O.2       1 0GS        -0.1741
     16 O27        32.3760   72.0310   17.7830 O.2       1 0GS        -0.1741
     17 N28        28.7710   69.3580   17.4880 N.4       1 0GS         0.2446
     18 C30        29.3980   68.1270   16.9310 C.3       1 0GS         0.0069
     19 C33        30.4660   67.5790   17.8990 C.ar      1 0GS         0.0302
     20 C34        30.0700   67.0210   19.1380 C.ar      1 0GS        -0.0286
     21 C36        31.0200   66.5080   20.0570 C.ar      1 0GS         0.0064
     22 C37        32.4020   66.5860   19.7220 C.ar      1 0GS        -0.0405
     23 C39        32.8140   67.1400   18.4840 C.ar      1 0GS        -0.0377
     24 C41        31.8480   67.6460   17.5790 C.ar      1 0GS        -0.0265
     25 C43        30.5370   65.9020   21.3960 C.3       1 0GS         0.2276
     26 F44        29.1780   65.8110   21.4370 F         1 0GS        -0.2520
     27 F45        30.9250   66.6790   22.4470 F         1 0GS        -0.2520
     28 C46        31.0870   64.4690   21.5920 C.3       1 0GS        -0.0257
     29 O50        28.4640   70.6540   19.8960 O.3       1 0GS        -0.3857
     30 F52        33.0330   75.8630   22.2240 F         1 0GS        -0.1935
     31 N53        32.1630   78.3410   21.4460 N.pl3     1 0GS        -0.3386
     32 H1         31.4891   73.8427   21.6742 H         1 0GS         0.0533
     33 H2         28.4386   76.2342   19.7540 H         1 0GS         0.0516
     34 H3         28.0449   73.9286   20.0190 H         1 0GS         0.0405
     35 H4         28.9347   73.0437   21.3043 H         1 0GS         0.0405
     36 H5         30.6241   72.2961   19.7473 H         1 0GS         0.0363
     37 H6         27.9483   71.9169   18.3162 H         1 0GS         0.0655
     38 H7         30.4740   70.1809   18.3750 H         1 0GS         0.0893
     39 H8         29.3044   71.6660   15.9743 H         1 0GS         0.0557
     40 H9         30.6766   70.5075   15.9326 H         1 0GS         0.0557
     41 H10        30.7327   74.4469   18.3863 H         1 0GS         0.0505
     42 H11        29.3113   73.8619   17.4568 H         1 0GS         0.0505
     43 H12        28.0887   69.6634   16.8118 H         1 0GS         0.2032
     44 H13        28.3026   69.0823   18.3369 H         1 0GS         0.2032
     45 H14        29.8716   68.3663   15.9674 H         1 0GS         0.0985
     46 H15        28.6217   67.3627   16.7783 H         1 0GS         0.0985
     47 H16        29.0163   66.9850   19.3901 H         1 0GS         0.0781
     48 H17        33.1455   66.2184   20.4200 H         1 0GS         0.0801
     49 H18        33.8671   67.1766   18.2297 H         1 0GS         0.0683
     50 H19        32.1648   68.0853   16.6400 H         1 0GS         0.0805
     51 H20        30.7272   64.0661   22.5502 H         1 0GS         0.0190
     52 H21        32.1867   64.4955   21.5952 H         1 0GS         0.0190
     53 H22        30.7381   63.8267   20.7700 H         1 0GS         0.0190
     54 H23        27.9962   71.1613   20.5489 H         1 0GS         0.2101
     55 H24        31.8471   79.2783   21.1586 H         1 0GS         0.1701
     56 H25        33.0628   78.2280   21.9344 H         1 0GS         0.1701
@<TRIPOS>BOND
     1    1    2 1  
     2    2    3 ar 
     3    2    7 ar 
     4    3    4 ar 
     5    3   31 1  
     6    4    5 ar 
     7    4   30 1  
     8    5    6 ar 
     9    6    7 ar 
    10    6    8 1  
    11    8    9 1  
    12    9   10 1  
    13    9   14 1  
    14   10   11 1  
    15   10   29 1  
    16   11   12 1  
    17   11   17 1  
    18   12   13 1  
    19   13   14 1  
    20   13   15 2  
    21   13   16 2  
    22   17   18 1  
    23   18   19 1  
    24   19   20 ar 
    25   19   24 ar 
    26   20   21 ar 
    27   21   22 ar 
    28   21   25 1  
    29   22   23 ar 
    30   23   24 ar 
    31   25   26 1  
    32   25   27 1  
    33   25   28 1  
    34    5   32 1  
    35    7   33 1  
    36    8   34 1  
    37    8   35 1  
    38    9   36 1  
    39   10   37 1  
    40   11   38 1  
    41   12   39 1  
    42   12   40 1  
    43   14   41 1  
    44   14   42 1  
    45   17   43 1  
    46   17   44 1  
    47   18   45 1  
    48   18   46 1  
    49   20   47 1  
    50   22   48 1  
    51   23   49 1  
    52   24   50 1  
    53   28   51 1  
    54   28   52 1  
    55   28   53 1  
    56   29   54 1  
    57   31   55 1  
    58   31   56 1  
@<TRIPOS>SUBSTRUCTURE
     1 0GS         1

