### 
### Created by X-TOOL on Mon Sep 10 21:13:08 2018
### 

@<TRIPOS>MOLECULE
3vf5_ligand
   81    85     1     0     0
SMALL
GAST_HUCK


@<TRIPOS>ATOM
      1 O39        -7.4830  -14.1430   14.8480 O.3       1 031        -0.3212
      2 C40        -6.1170  -14.1830   15.1610 C.3       1 031         0.0594
      3 C2         -8.1640  -15.2950   15.0740 C.ar      1 031         0.0908
      4 C3         -7.5830  -16.4240   15.6180 C.ar      1 031        -0.0313
      5 C4         -8.3510  -17.5750   15.8200 C.ar      1 031        -0.0440
      6 C5         -9.6970  -17.5760   15.5000 C.ar      1 031         0.0971
      7 C6        -10.2650  -16.4620   14.9230 C.ar      1 031        -0.0440
      8 C7         -9.4980  -15.3500   14.6450 C.ar      1 031        -0.0313
      9 S8        -10.7020  -18.9530   15.9230 S.o2      1 031         0.0658
     10 O9        -11.7840  -19.0800   14.9430 O.2       1 031        -0.1515
     11 O10        -9.7790  -20.0870   16.1050 O.2       1 031        -0.1515
     12 N11       -11.4120  -18.6910   17.3820 N.am      1 031        -0.2305
     13 C12       -10.5030  -18.3830   18.4780 C.3       1 031         0.0527
     14 C13       -10.9270  -18.8870   19.8380 C.3       1 031         0.0610
     15 C14       -11.2480  -20.3770   19.9530 C.3       1 031        -0.0114
     16 N15        -9.8590  -18.6770   20.8450 N.am      1 031        -0.2822
     17 C45        -9.2670  -19.8080   21.1650 C.2       1 031         0.1763
     18 O46        -8.3060  -19.9580   21.9310 O.2       1 031        -0.3971
     19 C47        -9.9570  -20.9820   20.5220 C.3       1 031         0.0394
     20 C16       -12.6860  -17.9880   17.3760 C.3       1 031         0.0579
     21 C17       -13.8140  -18.8350   17.9380 C.3       1 031         0.0967
     22 O18       -15.0020  -18.0600   18.2110 O.3       1 031        -0.3877
     23 C19       -14.2130  -19.9950   17.0390 C.3       1 031         0.0807
     24 N20       -15.0500  -20.9140   17.7710 N.am      1 031        -0.2550
     25 C21       -14.6690  -22.1100   18.2210 C.2       1 031         0.3202
     26 O22       -13.4970  -22.5410   18.1100 O.2       1 031        -0.3775
     27 O23       -15.6400  -22.7760   18.8550 O.3       1 031        -0.2605
     28 C24       -15.4130  -25.0170   17.8640 C.3       1 031        -0.0169
     29 C25       -15.3420  -24.1600   19.1360 C.3       1 031         0.0908
     30 C26       -16.5160  -24.6610   19.9720 C.3       1 031         0.0044
     31 C27       -17.5980  -25.0380   18.9690 C.3       1 031         0.0643
     32 O28       -18.3690  -23.9090   18.5460 O.3       1 031        -0.3762
     33 C29       -18.2020  -23.6650   17.1420 C.3       1 031         0.0484
     34 C30       -17.6050  -24.9360   16.5780 C.3       1 031        -0.0242
     35 C31       -16.8390  -25.5220   17.7330 C.3       1 031        -0.0099
     36 C32       -14.9210  -19.5410   15.7500 C.3       1 031         0.0064
     37 C33       -16.5540  -21.2240   14.7600 C.ar      1 031        -0.0603
     38 C34       -16.9090  -22.3020   13.9770 C.ar      1 031        -0.0686
     39 C35       -15.8790  -23.0360   13.3660 C.ar      1 031        -0.0687
     40 C36       -14.5720  -22.5720   13.4510 C.ar      1 031        -0.0686
     41 C37       -14.2300  -21.4530   14.2220 C.ar      1 031        -0.0603
     42 C38       -15.2660  -20.7670   14.8990 C.ar      1 031        -0.0408
     43 H1         -5.6620  -13.2057   14.9423 H         1 031         0.0577
     44 H2         -5.6250  -14.9598   14.5572 H         1 031         0.0577
     45 H3         -5.9922  -14.4148   16.2290 H         1 031         0.0577
     46 H4         -6.5332  -16.4177   15.8879 H         1 031         0.0542
     47 H5         -7.8910  -18.4678   16.2279 H         1 031         0.0608
     48 H6        -11.3227  -16.4591   14.6856 H         1 031         0.0608
     49 H7         -9.9259  -14.5194   14.0954 H         1 031         0.0542
     50 H8        -10.4035  -17.2892   18.5382 H         1 031         0.0501
     51 H9         -9.5250  -18.8277   18.2419 H         1 031         0.0501
     52 H10       -11.8220  -18.3164   20.1268 H         1 031         0.0573
     53 H11       -11.4812  -20.8057   18.9672 H         1 031         0.0312
     54 H12       -12.0943  -20.5449   20.6354 H         1 031         0.0312
     55 H13        -9.6186  -17.7871   21.2326 H         1 031         0.1854
     56 H14        -9.3376  -21.4102   19.7201 H         1 031         0.0503
     57 H15       -10.1829  -21.7601   21.2660 H         1 031         0.0503
     58 H16       -12.9330  -17.7122   16.3402 H         1 031         0.0504
     59 H17       -12.5903  -17.0771   17.9852 H         1 031         0.0504
     60 H18       -13.4550  -19.2549   18.8892 H         1 031         0.0634
     61 H19       -14.7984  -17.3834   18.8460 H         1 031         0.2100
     62 H20       -13.2939  -20.5236   16.7461 H         1 031         0.0604
     63 H21       -15.9913  -20.6315   17.9558 H         1 031         0.1873
     64 H22       -14.7195  -25.8670   17.9446 H         1 031         0.0297
     65 H23       -15.1477  -24.4093   16.9864 H         1 031         0.0297
     66 H24       -14.3734  -24.2671   19.6463 H         1 031         0.0648
     67 H25       -16.8749  -23.8682   20.6448 H         1 031         0.0319
     68 H26       -16.2189  -25.5386   20.5650 H         1 031         0.0319
     69 H27       -18.2543  -25.8187   19.3809 H         1 031         0.0599
     70 H28       -17.5227  -22.8156   16.9777 H         1 031         0.0560
     71 H29       -19.1732  -23.4544   16.6704 H         1 031         0.0560
     72 H30       -16.9329  -24.7124   15.7364 H         1 031         0.0291
     73 H31       -18.3952  -25.6243   16.2435 H         1 031         0.0291
     74 H32       -16.8349  -26.6198   17.6642 H         1 031         0.0327
     75 H33       -14.2556  -18.8751   15.1810 H         1 031         0.0449
     76 H34       -15.8446  -19.0026   16.0089 H         1 031         0.0449
     77 H35       -17.3390  -20.7056   15.2986 H         1 031         0.0557
     78 H36       -17.9490  -22.5741   13.8375 H         1 031         0.0599
     79 H37       -16.1012  -23.9541   12.8342 H         1 031         0.0559
     80 H38       -13.7933  -23.0914   12.9043 H         1 031         0.0599
     81 H39       -13.2005  -21.1221   14.2977 H         1 031         0.0557
@<TRIPOS>BOND
     1    1    2 1  
     2    3    1 1  
     3    4    3 ar 
     4    8    3 ar 
     5    5    4 ar 
     6    6    5 ar 
     7    6    7 ar 
     8    9    6 1  
     9    7    8 ar 
    10    9   10 2  
    11    9   11 2  
    12   12    9 am 
    13   12   13 1  
    14   20   12 1  
    15   13   14 1  
    16   14   15 1  
    17   14   16 1  
    18   15   19 1  
    19   16   17 am 
    20   17   18 2  
    21   17   19 1  
    22   21   20 1  
    23   21   22 1  
    24   23   21 1  
    25   23   24 1  
    26   36   23 1  
    27   24   25 am 
    28   25   26 2  
    29   25   27 1  
    30   27   29 1  
    31   29   28 1  
    32   28   35 1  
    33   29   30 1  
    34   30   31 1  
    35   31   32 1  
    36   31   35 1  
    37   32   33 1  
    38   34   33 1  
    39   35   34 1  
    40   42   36 1  
    41   37   38 ar 
    42   37   42 ar 
    43   38   39 ar 
    44   39   40 ar 
    45   40   41 ar 
    46   41   42 ar 
    47    2   43 1  
    48    2   44 1  
    49    2   45 1  
    50    4   46 1  
    51    5   47 1  
    52    7   48 1  
    53    8   49 1  
    54   13   50 1  
    55   13   51 1  
    56   14   52 1  
    57   15   53 1  
    58   15   54 1  
    59   16   55 1  
    60   19   56 1  
    61   19   57 1  
    62   20   58 1  
    63   20   59 1  
    64   21   60 1  
    65   22   61 1  
    66   23   62 1  
    67   24   63 1  
    68   28   64 1  
    69   28   65 1  
    70   29   66 1  
    71   30   67 1  
    72   30   68 1  
    73   31   69 1  
    74   33   70 1  
    75   33   71 1  
    76   34   72 1  
    77   34   73 1  
    78   35   74 1  
    79   36   75 1  
    80   36   76 1  
    81   37   77 1  
    82   38   78 1  
    83   39   79 1  
    84   40   80 1  
    85   41   81 1  
@<TRIPOS>SUBSTRUCTURE
     1 031         1

