### 
### Created by X-TOOL on Mon Sep 10 21:13:08 2018
### 

@<TRIPOS>MOLECULE
3vf7_ligand
   81    85     1     0     0
SMALL
GAST_HUCK


@<TRIPOS>ATOM
      1 O39         7.3650   14.1990   14.7430 O.3       1 031        -0.3212
      2 C40         6.0010   14.2340   15.1570 C.3       1 031         0.0594
      3 C2          8.0210   15.3540   14.9890 C.ar      1 031         0.0908
      4 C3          7.4450   16.4900   15.5500 C.ar      1 031        -0.0313
      5 C4          8.2580   17.6180   15.6820 C.ar      1 031        -0.0440
      6 C5          9.6220   17.5730   15.4340 C.ar      1 031         0.0971
      7 C6         10.1670   16.4490   14.8690 C.ar      1 031        -0.0440
      8 C7          9.3470   15.3550   14.5850 C.ar      1 031        -0.0313
      9 S8         10.6240   18.9600   15.8910 S.o2      1 031         0.0658
     10 O9         11.7350   19.0630   14.8760 O.2       1 031        -0.1515
     11 O10         9.7410   20.1000   16.0820 O.2       1 031        -0.1515
     12 N11        11.3200   18.5870   17.3360 N.am      1 031        -0.2305
     13 C12        10.4260   18.1800   18.3720 C.3       1 031         0.0527
     14 C13        10.9490   18.4420   19.7990 C.3       1 031         0.0610
     15 C14        10.9400   19.9180   20.1940 C.3       1 031        -0.0114
     16 N15         9.9710   17.7940   20.6790 N.am      1 031        -0.2822
     17 C45         9.1240   18.6780   21.1470 C.2       1 031         0.1763
     18 O46         8.1410   18.3470   21.8070 O.2       1 031        -0.3971
     19 C47         9.5330   20.0870   20.7710 C.3       1 031         0.0394
     20 C16        12.6160   17.9410   17.3670 C.3       1 031         0.0579
     21 C17        13.6710   18.8820   18.0130 C.3       1 031         0.0967
     22 O18        14.7690   18.0290   18.3120 O.3       1 031        -0.3877
     23 C19        14.0560   20.0080   17.0580 C.3       1 031         0.0807
     24 N20        14.8780   20.9600   17.7760 N.am      1 031        -0.2550
     25 C21        14.4480   22.1160   18.2900 C.2       1 031         0.3202
     26 O22        13.3460   22.5970   18.2000 O.2       1 031        -0.3775
     27 O23        15.4600   22.7790   18.9330 O.3       1 031        -0.2605
     28 C24        15.1760   25.0400   18.0720 C.3       1 031        -0.0169
     29 C25        15.1550   24.1280   19.2940 C.3       1 031         0.0908
     30 C26        16.3160   24.6260   20.1840 C.3       1 031         0.0044
     31 C27        17.3790   25.0690   19.2010 C.3       1 031         0.0643
     32 O28        18.2090   23.9750   18.7890 O.3       1 031        -0.3762
     33 C29        18.1100   23.6780   17.4330 C.3       1 031         0.0484
     34 C30        17.4160   24.9240   16.8180 C.3       1 031        -0.0242
     35 C31        16.6190   25.5040   17.9750 C.3       1 031        -0.0099
     36 C32        14.8060   19.5940   15.7770 C.3       1 031         0.0064
     37 C33        16.4780   21.2120   14.7920 C.ar      1 031        -0.0603
     38 C34        16.7700   22.3530   14.0350 C.ar      1 031        -0.0686
     39 C35        15.7490   23.0220   13.3470 C.ar      1 031        -0.0687
     40 C36        14.4500   22.5180   13.3590 C.ar      1 031        -0.0686
     41 C37        14.1610   21.4000   14.1400 C.ar      1 031        -0.0603
     42 C38        15.1520   20.7620   14.8730 C.ar      1 031        -0.0408
     43 H1          5.5242   13.2689   14.9305 H         1 031         0.0577
     44 H2          5.4754   15.0375   14.6203 H         1 031         0.0577
     45 H3          5.9511   14.4225   16.2396 H         1 031         0.0577
     46 H4          6.4096   16.4990   15.8708 H         1 031         0.0542
     47 H5          7.8097   18.5565   15.9873 H         1 031         0.0608
     48 H6         11.2268   16.4098   14.6444 H         1 031         0.0608
     49 H7          9.7486   14.5039   14.0470 H         1 031         0.0542
     50 H8         10.2426   17.1007   18.2648 H         1 031         0.0501
     51 H9          9.4801   18.7270   18.2457 H         1 031         0.0501
     52 H10        11.9580   18.0213   19.9211 H         1 031         0.0573
     53 H11        11.0931   20.5665   19.3188 H         1 031         0.0312
     54 H12        11.7098   20.1338   20.9495 H         1 031         0.0312
     55 H13         9.9529   16.8170   20.8916 H         1 031         0.1854
     56 H14         8.8487   20.5058   20.0185 H         1 031         0.0503
     57 H15         9.5484   20.7397   21.6562 H         1 031         0.0503
     58 H16        12.9259   17.6992   16.3396 H         1 031         0.0504
     59 H17        12.5461   17.0150   17.9565 H         1 031         0.0504
     60 H18        13.2734   19.3236   18.9387 H         1 031         0.0634
     61 H19        15.0890   17.6336   17.5097 H         1 031         0.2100
     62 H20        13.1251   20.5044   16.7465 H         1 031         0.0604
     63 H21        15.8447   20.7341   17.8967 H         1 031         0.1873
     64 H22        14.5000   25.8962   18.2131 H         1 031         0.0297
     65 H23        14.8830   24.4866   17.1676 H         1 031         0.0297
     66 H24        14.1864   24.1829   19.8124 H         1 031         0.0648
     67 H25        16.6917   23.8143   20.8243 H         1 031         0.0319
     68 H26        15.9913   25.4684   20.8124 H         1 031         0.0319
     69 H27        17.9881   25.8831   19.6207 H         1 031         0.0599
     70 H28        17.5016   22.7753   17.2750 H         1 031         0.0560
     71 H29        19.1070   23.5300   16.9925 H         1 031         0.0560
     72 H30        16.7513   24.6339   15.9910 H         1 031         0.0291
     73 H31        18.1605   25.6472   16.4537 H         1 031         0.0291
     74 H32        16.6186   26.6012   17.8968 H         1 031         0.0327
     75 H33        14.1720   18.8937   15.2134 H         1 031         0.0449
     76 H34        15.7398   19.0905   16.0678 H         1 031         0.0449
     77 H35        17.2687   20.6817   15.3103 H         1 031         0.0557
     78 H36        17.7886   22.7198   13.9810 H         1 031         0.0599
     79 H37        15.9702   23.9338   12.8041 H         1 031         0.0559
     80 H38        13.6733   22.9897   12.7680 H         1 031         0.0599
     81 H39        13.1454   21.0227   14.1754 H         1 031         0.0557
@<TRIPOS>BOND
     1    1    2 1  
     2    3    1 1  
     3    4    3 ar 
     4    8    3 ar 
     5    5    4 ar 
     6    6    5 ar 
     7    6    7 ar 
     8    9    6 1  
     9    7    8 ar 
    10    9   10 2  
    11    9   11 2  
    12   12    9 am 
    13   12   13 1  
    14   20   12 1  
    15   13   14 1  
    16   14   15 1  
    17   14   16 1  
    18   15   19 1  
    19   16   17 am 
    20   17   18 2  
    21   17   19 1  
    22   21   20 1  
    23   21   22 1  
    24   23   21 1  
    25   23   24 1  
    26   36   23 1  
    27   24   25 am 
    28   25   26 2  
    29   25   27 1  
    30   27   29 1  
    31   29   28 1  
    32   28   35 1  
    33   29   30 1  
    34   30   31 1  
    35   31   32 1  
    36   31   35 1  
    37   32   33 1  
    38   34   33 1  
    39   35   34 1  
    40   42   36 1  
    41   37   38 ar 
    42   37   42 ar 
    43   38   39 ar 
    44   39   40 ar 
    45   40   41 ar 
    46   41   42 ar 
    47    2   43 1  
    48    2   44 1  
    49    2   45 1  
    50    4   46 1  
    51    5   47 1  
    52    7   48 1  
    53    8   49 1  
    54   13   50 1  
    55   13   51 1  
    56   14   52 1  
    57   15   53 1  
    58   15   54 1  
    59   16   55 1  
    60   19   56 1  
    61   19   57 1  
    62   20   58 1  
    63   20   59 1  
    64   21   60 1  
    65   22   61 1  
    66   23   62 1  
    67   24   63 1  
    68   28   64 1  
    69   28   65 1  
    70   29   66 1  
    71   30   67 1  
    72   30   68 1  
    73   31   69 1  
    74   33   70 1  
    75   33   71 1  
    76   34   72 1  
    77   34   73 1  
    78   35   74 1  
    79   36   75 1  
    80   36   76 1  
    81   37   77 1  
    82   38   78 1  
    83   39   79 1  
    84   40   80 1  
    85   41   81 1  
@<TRIPOS>SUBSTRUCTURE
     1 031         1

