### 
### Created by X-TOOL on Mon Sep 10 21:13:11 2018
### 

@<TRIPOS>MOLECULE
3vf8_ligand
   47    49     1     0     0
SMALL
GAST_HUCK


@<TRIPOS>ATOM
      1 CAZ         4.5720   -5.0060  -16.7650 C.3       1 0JE        -0.0374
      2 CAY         3.2220   -4.5530  -16.2050 C.3       1 0JE         0.0655
      3 OAX         3.3930   -3.1970  -15.7650 O.3       1 0JE        -0.3238
      4 CAB         2.2550   -2.5230  -15.4210 C.ar      1 0JE         0.1117
      5 CAC         1.0200   -2.7800  -16.0330 C.ar      1 0JE        -0.0146
      6 CAA         2.3540   -1.5140  -14.4610 C.ar      1 0JE         0.1452
      7 FAW         3.5420   -1.2640  -13.8740 F         1 0JE        -0.1980
      8 CAD         1.2310   -0.7670  -14.1040 C.ar      1 0JE        -0.0367
      9 CAH         0.0010   -1.0360  -14.7060 C.ar      1 0JE         0.0118
     10 NAG        -1.2060   -0.5050  -14.5580 N.2       1 0JE        -0.3285
     11 CAI        -0.1040   -2.0300  -15.6740 C.ar      1 0JE         0.0650
     12 NAE        -1.3730   -2.0450  -16.0760 N.pl3     1 0JE        -0.2597
     13 CAF        -2.0470   -1.1150  -15.3930 C.2       1 0JE         0.1436
     14 CAJ        -3.4030   -0.8210  -15.5420 C.2       1 0JE         0.1516
     15 NAK        -4.3120   -1.4190  -16.3090 N.pl3     1 0JE        -0.2190
     16 NAL        -5.4060   -0.8530  -16.1720 N.2       1 0JE        -0.2133
     17 CAM        -5.3230    0.1700  -15.3100 C.2       1 0JE         0.0374
     18 CAN        -4.0630    0.2050  -14.8860 C.2       1 0JE         0.1045
     19 NAO        -3.4790    1.0910  -14.0620 N.am      1 0JE        -0.2263
     20 CAP        -3.8440    2.3670  -13.8430 C.2       1 0JE         0.2862
     21 OAR        -4.8560    2.8660  -14.3390 O.2       1 0JE        -0.3916
     22 NAQ        -3.0630    3.0810  -13.0180 N.am      1 0JE        -0.2553
     23 CAU        -1.8470    2.5140  -12.4070 C.3       1 0JE         0.0319
     24 CAV        -0.6280    2.9530  -13.2200 C.3       1 0JE        -0.0448
     25 CAS        -3.3850    4.4800  -12.6830 C.3       1 0JE         0.0319
     26 CAT        -2.9330    5.3950  -13.8240 C.3       1 0JE        -0.0448
     27 H           4.8541   -4.3602  -17.5965 H         1 0JE         0.0255
     28 H           5.3280   -4.9438  -15.9822 H         1 0JE         0.0255
     29 H           4.4922   -6.0356  -17.1138 H         1 0JE         0.0255
     30 H           2.9089   -5.1929  -15.3800 H         1 0JE         0.0607
     31 H           2.4436   -4.6198  -16.9651 H         1 0JE         0.0607
     32 H           0.9364   -3.5627  -16.7869 H         1 0JE         0.0440
     33 H           1.3140    0.0234  -13.3580 H         1 0JE         0.0498
     34 H          -1.7652   -2.6629  -16.7864 H         1 0JE         0.2251
     35 H          -4.1353   -2.2196  -16.9159 H         1 0JE         0.2471
     36 H          -6.1295    0.8412  -15.0146 H         1 0JE         0.0663
     37 H          -2.6662    0.7581  -13.5434 H         1 0JE         0.2212
     38 H          -1.9121    1.4260  -12.4017 H         1 0JE         0.0517
     39 H          -1.7515    2.8700  -11.3812 H         1 0JE         0.0517
     40 H          -0.7270    2.5929  -14.2440 H         1 0JE         0.0249
     41 H          -0.5660    4.0412  -13.2205 H         1 0JE         0.0249
     42 H           0.2746    2.5366  -12.7727 H         1 0JE         0.0249
     43 H          -2.8690    4.7618  -11.7652 H         1 0JE         0.0517
     44 H          -4.4609    4.5811  -12.5407 H         1 0JE         0.0517
     45 H          -1.8570    5.2930  -13.9653 H         1 0JE         0.0249
     46 H          -3.4496    5.1122  -14.7412 H         1 0JE         0.0249
     47 H          -3.1716    6.4290  -13.5751 H         1 0JE         0.0249
@<TRIPOS>BOND
     1    1    2 1  
     2    2    3 1  
     3    3    4 1  
     4    4    5 ar 
     5    4    6 ar 
     6    5   11 ar 
     7    6    7 1  
     8    6    8 ar 
     9    8    9 ar 
    10    9   10 1  
    11    9   11 ar 
    12   10   13 2  
    13   11   12 1  
    14   12   13 1  
    15   13   14 1  
    16   14   15 1  
    17   14   18 2  
    18   15   16 1  
    19   16   17 2  
    20   17   18 1  
    21   18   19 1  
    22   19   20 am 
    23   20   21 2  
    24   20   22 am 
    25   22   23 1  
    26   22   25 1  
    27   23   24 1  
    28   25   26 1  
    29    1   27 1  
    30    1   28 1  
    31    1   29 1  
    32    2   30 1  
    33    2   31 1  
    34    5   32 1  
    35    8   33 1  
    36   12   34 1  
    37   15   35 1  
    38   17   36 1  
    39   19   37 1  
    40   23   38 1  
    41   23   39 1  
    42   24   40 1  
    43   24   41 1  
    44   24   42 1  
    45   25   43 1  
    46   25   44 1  
    47   26   45 1  
    48   26   46 1  
    49   26   47 1  
@<TRIPOS>SUBSTRUCTURE
     1 0JE         1

