### 
### Created by X-TOOL on Mon Sep 10 21:13:12 2018
### 

@<TRIPOS>MOLECULE
3vf9_ligand
   36    39     1     0     0
SMALL
GAST_HUCK


@<TRIPOS>ATOM
      1 CAT         4.6870   -3.1810  -15.2690 C.3       1 477        -0.0780
      2 CAR         3.3940   -3.6470  -15.9460 C.3       1 477         0.0190
      3 CAW         3.0560   -5.0670  -15.4830 C.3       1 477        -0.0780
      4 OAS         3.5570   -3.6260  -17.3670 O.3       1 477        -0.4480
      5 CAJ         2.2210   -2.7200  -15.5700 C.ar      1 477        -0.0604
      6 CAI         0.9570   -2.9490  -16.1230 C.ar      1 477        -0.0210
      7 CAK         2.3940   -1.6610  -14.6710 C.ar      1 477        -0.0650
      8 CAL         1.3210   -0.8350  -14.3330 C.ar      1 477        -0.0521
      9 CAG         0.0650   -1.0690  -14.8930 C.ar      1 477         0.0049
     10 CAF        -1.1100   -0.4620  -14.7590 C.2       1 477        -0.0247
     11 CAH        -0.1150   -2.1180  -15.7880 C.ar      1 477         0.0946
     12 NAE        -1.3910   -2.0960  -16.1580 N.pl3     1 477        -0.2560
     13 CAD        -2.0020   -1.0910  -15.5270 C.2       1 477         0.1133
     14 CAC        -3.3500   -0.7650  -15.6670 C.2       1 477         0.1466
     15 NAB        -4.2520   -1.3150  -16.4760 N.pl3     1 477        -0.2099
     16 NAA        -5.3520   -0.7670  -16.3280 N.2       1 477        -0.2091
     17 CAM        -5.3200    0.1910  -15.3930 C.2       1 477         0.0492
     18 CAQ        -6.1110    1.1020  -14.7840 C.2       1 477        -0.0525
     19 CAN        -4.0080    0.2020  -14.9280 C.2       1 477         0.0788
     20 SAO        -3.9100    1.4130  -13.7650 S.3       1 477        -0.0484
     21 CAP        -5.5330    1.8750  -13.8510 C.2       1 477        -0.0077
     22 H           4.9198   -2.1665  -15.5925 H         1 477         0.0105
     23 H           4.5555   -3.1975  -14.1871 H         1 477         0.0105
     24 H           5.5024   -3.8486  -15.5474 H         1 477         0.0105
     25 H           2.9089   -5.0703  -14.4030 H         1 477         0.0105
     26 H           2.1432   -5.4010  -15.9763 H         1 477         0.0105
     27 H           3.8761   -5.7369  -15.7413 H         1 477         0.0105
     28 H           2.7416   -3.9111  -17.7857 H         1 477         0.1880
     29 H           0.8080   -3.7768  -16.8162 H         1 477         0.0783
     30 H           3.3748   -1.4800  -14.2313 H         1 477         0.0659
     31 H           1.4638   -0.0106  -13.6344 H         1 477         0.0609
     32 H          -1.3111    0.4038  -14.1280 H         1 477         0.0439
     33 H          -1.8307   -2.7403  -16.8152 H         1 477         0.2285
     34 H          -4.0639   -2.0789  -17.1252 H         1 477         0.2562
     35 H          -7.1661    1.2041  -15.0378 H         1 477         0.0416
     36 H          -6.0183    2.6526  -13.2612 H         1 477         0.0782
@<TRIPOS>BOND
     1    1    2 1  
     2    2    3 1  
     3    2    4 1  
     4    2    5 1  
     5    5    6 ar 
     6    5    7 ar 
     7    6   11 ar 
     8    7    8 ar 
     9    8    9 ar 
    10    9   10 1  
    11    9   11 ar 
    12   10   13 2  
    13   11   12 1  
    14   12   13 1  
    15   13   14 1  
    16   14   15 1  
    17   14   19 2  
    18   15   16 1  
    19   16   17 2  
    20   17   18 1  
    21   17   19 1  
    22   18   21 2  
    23   19   20 1  
    24   20   21 1  
    25    1   22 1  
    26    1   23 1  
    27    1   24 1  
    28    3   25 1  
    29    3   26 1  
    30    3   27 1  
    31    4   28 1  
    32    6   29 1  
    33    7   30 1  
    34    8   31 1  
    35   10   32 1  
    36   12   33 1  
    37   15   34 1  
    38   18   35 1  
    39   21   36 1  
@<TRIPOS>SUBSTRUCTURE
     1 477         1

