### 
### Created by X-TOOL on Mon Sep 10 21:13:09 2018
### 

@<TRIPOS>MOLECULE
3vfa_ligand
   81    85     1     0     0
SMALL
GAST_HUCK


@<TRIPOS>ATOM
      1 O39        21.7070   29.0210   14.6010 O.3       1 031        -0.3212
      2 C40        23.0980   28.7120   14.7520 C.3       1 031         0.0594
      3 C2         20.9740   27.8870   14.8060 C.ar      1 031         0.0908
      4 C3         21.5520   26.7560   15.3940 C.ar      1 031        -0.0313
      5 C4         20.7770   25.6310   15.6430 C.ar      1 031        -0.0440
      6 C5         19.4240   25.6390   15.3270 C.ar      1 031         0.0971
      7 C6         18.8700   26.7590   14.7400 C.ar      1 031        -0.0440
      8 C7         19.6350   27.8760   14.4500 C.ar      1 031        -0.0313
      9 S8         18.3970   24.2640   15.7110 S.o2      1 031         0.0658
     10 O9         17.3610   24.0920   14.6690 O.2       1 031        -0.1515
     11 O10        19.3320   23.1160   15.9280 O.2       1 031        -0.1515
     12 N11        17.7180   24.4800   17.1740 N.am      1 031        -0.2305
     13 C12        18.6790   24.8310   18.2070 C.3       1 031         0.0527
     14 C13        18.0880   24.5120   19.5820 C.3       1 031         0.0610
     15 C14        18.0650   23.0230   19.8540 C.3       1 031        -0.0114
     16 N15        19.0130   25.0900   20.5690 N.am      1 031        -0.2822
     17 C45        19.7760   24.1650   21.0940 C.2       1 031         0.1763
     18 O46        20.6630   24.4150   21.8860 O.2       1 031        -0.3971
     19 C47        19.3920   22.7810   20.5960 C.3       1 031         0.0394
     20 C16        16.4900   25.2440   17.2520 C.3       1 031         0.0579
     21 C17        15.3610   24.3450   17.7440 C.3       1 031         0.0967
     22 O18        14.1850   25.0620   18.0660 O.3       1 031        -0.3877
     23 C19        15.0110   23.2280   16.7770 C.3       1 031         0.0807
     24 N20        14.1150   22.2800   17.4510 N.am      1 031        -0.2550
     25 C21        14.4390   21.0990   17.9620 C.2       1 031         0.3202
     26 O22        15.5870   20.6170   17.9740 O.2       1 031        -0.3775
     27 O23        13.3900   20.4240   18.5290 O.3       1 031        -0.2605
     28 C24        13.6970   18.2050   17.5390 C.3       1 031        -0.0169
     29 C25        13.7100   19.0490   18.8250 C.3       1 031         0.0908
     30 C26        12.5230   18.5190   19.6260 C.3       1 031         0.0044
     31 C27        11.4840   18.2120   18.5630 C.3       1 031         0.0643
     32 O28        10.6830   19.3320   18.2040 O.3       1 031        -0.3762
     33 C29        10.6790   19.5450   16.7970 C.3       1 031         0.0484
     34 C30        11.5250   18.4550   16.1740 C.3       1 031        -0.0242
     35 C31        12.2570   17.7850   17.3360 C.3       1 031        -0.0099
     36 C32        14.4120   23.7000   15.4500 C.3       1 031         0.0064
     37 C33        12.7160   22.1810   14.2770 C.ar      1 031        -0.0603
     38 C34        12.3520   21.0390   13.5580 C.ar      1 031        -0.0686
     39 C35        13.3520   20.3130   12.9310 C.ar      1 031        -0.0687
     40 C36        14.6890   20.6350   13.1700 C.ar      1 031        -0.0686
     41 C37        15.0280   21.7320   13.9770 C.ar      1 031        -0.0603
     42 C38        14.0370   22.5090   14.5580 C.ar      1 031        -0.0408
     43 H1         23.6954   29.6210   14.5883 H         1 031         0.0577
     44 H2         23.3856   27.9468   14.0160 H         1 031         0.0577
     45 H3         23.2809   28.3311   15.7676 H         1 031         0.0577
     46 H4         22.6041   26.7583   15.6549 H         1 031         0.0542
     47 H5         21.2267   24.7483   16.0830 H         1 031         0.0608
     48 H6         17.8127   26.7640   14.5009 H         1 031         0.0608
     49 H7         19.1923   28.7305   13.9511 H         1 031         0.0542
     50 H8         18.9070   25.9054   18.1461 H         1 031         0.0501
     51 H9         19.6024   24.2513   18.0612 H         1 031         0.0501
     52 H10        17.0775   24.9365   19.6746 H         1 031         0.0573
     53 H11        18.0280   22.4509   18.9152 H         1 031         0.0312
     54 H12        17.2054   22.7502   20.4838 H         1 031         0.0312
     55 H13        19.0535   26.0604   20.8072 H         1 031         0.1854
     56 H14        20.1572   22.3821   19.9138 H         1 031         0.0503
     57 H15        19.2516   22.0854   21.4365 H         1 031         0.0503
     58 H16        16.2384   25.6361   16.2555 H         1 031         0.0504
     59 H17        16.6233   26.0815   17.9526 H         1 031         0.0504
     60 H18        15.7203   23.8727   18.6702 H         1 031         0.0634
     61 H19        13.8741   25.5211   17.2945 H         1 031         0.2100
     62 H20        15.9452   22.6999   16.5356 H         1 031         0.0604
     63 H21        13.1568   22.5540   17.5339 H         1 031         0.1873
     64 H22        14.3412   17.3209   17.6545 H         1 031         0.0297
     65 H23        14.0455   18.8035   16.6844 H         1 031         0.0297
     66 H24        14.6649   18.9617   19.3639 H         1 031         0.0648
     67 H25        12.1526   19.2795   20.3291 H         1 031         0.0319
     68 H26        12.7980   17.6097   20.1806 H         1 031         0.0319
     69 H27        10.8307   17.3992   18.9130 H         1 031         0.0599
     70 H28        11.1058   20.5318   16.5645 H         1 031         0.0560
     71 H29         9.6505   19.4901   16.4109 H         1 031         0.0560
     72 H30        12.2461   18.8873   15.4647 H         1 031         0.0291
     73 H31        10.8879   17.7266   15.6510 H         1 031         0.0291
     74 H32        12.2222   16.6932   17.2068 H         1 031         0.0327
     75 H33        15.1499   24.3239   14.9245 H         1 031         0.0449
     76 H34        13.5090   24.2938   15.6546 H         1 031         0.0449
     77 H35        11.9324   22.8408   14.6315 H         1 031         0.0557
     78 H36        11.3152   20.7295   13.4926 H         1 031         0.0599
     79 H37        13.0978   19.5008   12.2597 H         1 031         0.0559
     80 H38        15.4735   20.0316   12.7278 H         1 031         0.0599
     81 H39        16.0710   21.9735   14.1473 H         1 031         0.0557
@<TRIPOS>BOND
     1    1    2 1  
     2    3    1 1  
     3    4    3 ar 
     4    8    3 ar 
     5    5    4 ar 
     6    6    5 ar 
     7    6    7 ar 
     8    9    6 1  
     9    7    8 ar 
    10    9   10 2  
    11    9   11 2  
    12   12    9 am 
    13   12   13 1  
    14   20   12 1  
    15   13   14 1  
    16   14   15 1  
    17   14   16 1  
    18   15   19 1  
    19   16   17 am 
    20   17   18 2  
    21   17   19 1  
    22   21   20 1  
    23   21   22 1  
    24   23   21 1  
    25   23   24 1  
    26   36   23 1  
    27   24   25 am 
    28   25   26 2  
    29   25   27 1  
    30   27   29 1  
    31   29   28 1  
    32   28   35 1  
    33   29   30 1  
    34   30   31 1  
    35   31   32 1  
    36   31   35 1  
    37   32   33 1  
    38   34   33 1  
    39   35   34 1  
    40   42   36 1  
    41   37   38 ar 
    42   37   42 ar 
    43   38   39 ar 
    44   39   40 ar 
    45   40   41 ar 
    46   41   42 ar 
    47    2   43 1  
    48    2   44 1  
    49    2   45 1  
    50    4   46 1  
    51    5   47 1  
    52    7   48 1  
    53    8   49 1  
    54   13   50 1  
    55   13   51 1  
    56   14   52 1  
    57   15   53 1  
    58   15   54 1  
    59   16   55 1  
    60   19   56 1  
    61   19   57 1  
    62   20   58 1  
    63   20   59 1  
    64   21   60 1  
    65   22   61 1  
    66   23   62 1  
    67   24   63 1  
    68   28   64 1  
    69   28   65 1  
    70   29   66 1  
    71   30   67 1  
    72   30   68 1  
    73   31   69 1  
    74   33   70 1  
    75   33   71 1  
    76   34   72 1  
    77   34   73 1  
    78   35   74 1  
    79   36   75 1  
    80   36   76 1  
    81   37   77 1  
    82   38   78 1  
    83   39   79 1  
    84   40   80 1  
    85   41   81 1  
@<TRIPOS>SUBSTRUCTURE
     1 031         1

