### 
### Created by X-TOOL on Mon Sep 10 21:13:08 2018
### 

@<TRIPOS>MOLECULE
3vfb_ligand
   81    85     1     0     0
SMALL
GAST_HUCK


@<TRIPOS>ATOM
      1 O39         7.7930   14.2590   14.4240 O.3       1 031        -0.3212
      2 C40         6.4080   14.1270   14.6630 C.3       1 031         0.0594
      3 C2          8.3800   15.4480   14.7280 C.ar      1 031         0.0908
      4 C3          7.7370   16.5720   15.2430 C.ar      1 031        -0.0313
      5 C4          8.4810   17.7210   15.5410 C.ar      1 031        -0.0440
      6 C5          9.8510   17.7550   15.3460 C.ar      1 031         0.0971
      7 C6         10.4390   16.6690   14.7490 C.ar      1 031        -0.0440
      8 C7          9.7220   15.5600   14.3700 C.ar      1 031        -0.0313
      9 S8         10.8730   19.1060   15.8520 S.o2      1 031         0.0658
     10 O9         11.9470   19.3090   14.8650 O.2       1 031        -0.1515
     11 O10         9.9650   20.2810   16.0510 O.2       1 031        -0.1515
     12 N11        11.5220   18.7170   17.3150 N.am      1 031        -0.2305
     13 C12        10.6060   18.3100   18.3250 C.3       1 031         0.0527
     14 C13        11.0990   18.6470   19.7350 C.3       1 031         0.0610
     15 C14        11.0450   20.1310   20.0250 C.3       1 031        -0.0114
     16 N15        10.1030   18.0310   20.6140 N.am      1 031        -0.2822
     17 C45         9.3120   18.8950   21.1410 C.2       1 031         0.1763
     18 O46         8.4090   18.4860   21.8590 O.2       1 031        -0.3971
     19 C47         9.7010   20.3000   20.7630 C.3       1 031         0.0394
     20 C16        12.8200   18.0740   17.3300 C.3       1 031         0.0579
     21 C17        13.9090   18.9610   17.9410 C.3       1 031         0.0967
     22 O18        15.0070   18.1580   18.3250 O.3       1 031        -0.3877
     23 C19        14.3450   20.1300   17.0620 C.3       1 031         0.0807
     24 N20        15.1310   21.0830   17.8070 N.am      1 031        -0.2550
     25 C21        14.7680   22.2710   18.2920 C.2       1 031         0.3202
     26 O22        13.6480   22.7340   18.1890 O.2       1 031        -0.3775
     27 O23        15.7880   22.9380   18.9320 O.3       1 031        -0.2605
     28 C24        15.5270   25.1870   18.1160 C.3       1 031        -0.0169
     29 C25        15.4920   24.2730   19.3320 C.3       1 031         0.0908
     30 C26        16.6490   24.8180   20.1830 C.3       1 031         0.0044
     31 C27        17.7200   25.2040   19.1860 C.3       1 031         0.0643
     32 O28        18.4800   24.0710   18.7550 O.3       1 031        -0.3762
     33 C29        18.5390   23.9520   17.3540 C.3       1 031         0.0484
     34 C30        17.7030   25.1020   16.7790 C.3       1 031        -0.0242
     35 C31        16.9610   25.7000   17.9900 C.3       1 031        -0.0099
     36 C32        15.0790   19.7460   15.7700 C.3       1 031         0.0064
     37 C33        16.7150   21.3790   14.7700 C.ar      1 031        -0.0603
     38 C34        16.9760   22.5500   14.0560 C.ar      1 031        -0.0686
     39 C35        15.9740   23.2120   13.3520 C.ar      1 031        -0.0687
     40 C36        14.6800   22.7100   13.4360 C.ar      1 031        -0.0686
     41 C37        14.3860   21.5910   14.2080 C.ar      1 031        -0.0603
     42 C38        15.3940   20.9480   14.8970 C.ar      1 031        -0.0408
     43 H1          6.0799   13.1187   14.3702 H         1 031         0.0577
     44 H2          5.8609   14.8766   14.0724 H         1 031         0.0577
     45 H3          6.2040   14.2827   15.7326 H         1 031         0.0577
     46 H4          6.6664   16.5573   15.4122 H         1 031         0.0542
     47 H5          7.9758   18.5974   15.9305 H         1 031         0.0608
     48 H6         11.5079   16.6864   14.5698 H         1 031         0.0608
     49 H7         10.1987   14.7748   13.7944 H         1 031         0.0542
     50 H8         10.4618   17.2219   18.2526 H         1 031         0.0501
     51 H9          9.6457   18.8192   18.1561 H         1 031         0.0501
     52 H10        12.1118   18.2531   19.9056 H         1 031         0.0573
     53 H11        11.0589   20.7153   19.0932 H         1 031         0.0312
     54 H12        11.8864   20.4386   20.6633 H         1 031         0.0312
     55 H13        10.0451   17.0474   20.7849 H         1 031         0.1854
     56 H14         8.9459   20.7499   20.1016 H         1 031         0.0503
     57 H15         9.8233   20.9260   21.6592 H         1 031         0.0503
     58 H16        13.1040   17.8292   16.2959 H         1 031         0.0504
     59 H17        12.7478   17.1481   17.9195 H         1 031         0.0504
     60 H18        13.4860   19.4011   18.8561 H         1 031         0.0634
     61 H19        15.3527   17.7102   17.5618 H         1 031         0.2100
     62 H20        13.4209   20.6409   16.7536 H         1 031         0.0604
     63 H21        16.0783   20.8161   17.9841 H         1 031         0.1873
     64 H22        14.8343   26.0299   18.2558 H         1 031         0.0297
     65 H23        15.2447   24.6264   17.2127 H         1 031         0.0297
     66 H24        14.5282   24.3188   19.8601 H         1 031         0.0648
     67 H25        17.0214   24.0441   20.8703 H         1 031         0.0319
     68 H26        16.3240   25.6959   20.7607 H         1 031         0.0319
     69 H27        18.3834   25.9767   19.6016 H         1 031         0.0599
     70 H28        18.1215   22.9847   17.0377 H         1 031         0.0560
     71 H29        19.5808   24.0318   17.0102 H         1 031         0.0560
     72 H30        16.9866   24.7246   16.0345 H         1 031         0.0291
     73 H31        18.3530   25.8569   16.3126 H         1 031         0.0291
     74 H32        16.9629   26.7987   17.9373 H         1 031         0.0327
     75 H33        14.4457   19.0518   15.1982 H         1 031         0.0449
     76 H34        16.0226   19.2471   16.0360 H         1 031         0.0449
     77 H35        17.5247   20.8144   15.2180 H         1 031         0.0557
     78 H36        17.9823   22.9531   14.0497 H         1 031         0.0599
     79 H37        16.1955   24.0908   12.7573 H         1 031         0.0559
     80 H38        13.8837   23.2010   12.8884 H         1 031         0.0599
     81 H39        13.3675   21.2249   14.2683 H         1 031         0.0557
@<TRIPOS>BOND
     1    1    2 1  
     2    3    1 1  
     3    4    3 ar 
     4    8    3 ar 
     5    5    4 ar 
     6    6    5 ar 
     7    6    7 ar 
     8    9    6 1  
     9    7    8 ar 
    10    9   10 2  
    11    9   11 2  
    12   12    9 am 
    13   12   13 1  
    14   20   12 1  
    15   13   14 1  
    16   14   15 1  
    17   14   16 1  
    18   15   19 1  
    19   16   17 am 
    20   17   18 2  
    21   17   19 1  
    22   21   20 1  
    23   21   22 1  
    24   23   21 1  
    25   23   24 1  
    26   36   23 1  
    27   24   25 am 
    28   25   26 2  
    29   25   27 1  
    30   27   29 1  
    31   29   28 1  
    32   28   35 1  
    33   29   30 1  
    34   30   31 1  
    35   31   32 1  
    36   31   35 1  
    37   32   33 1  
    38   34   33 1  
    39   35   34 1  
    40   42   36 1  
    41   37   38 ar 
    42   37   42 ar 
    43   38   39 ar 
    44   39   40 ar 
    45   40   41 ar 
    46   41   42 ar 
    47    2   43 1  
    48    2   44 1  
    49    2   45 1  
    50    4   46 1  
    51    5   47 1  
    52    7   48 1  
    53    8   49 1  
    54   13   50 1  
    55   13   51 1  
    56   14   52 1  
    57   15   53 1  
    58   15   54 1  
    59   16   55 1  
    60   19   56 1  
    61   19   57 1  
    62   20   58 1  
    63   20   59 1  
    64   21   60 1  
    65   22   61 1  
    66   23   62 1  
    67   24   63 1  
    68   28   64 1  
    69   28   65 1  
    70   29   66 1  
    71   30   67 1  
    72   30   68 1  
    73   31   69 1  
    74   33   70 1  
    75   33   71 1  
    76   34   72 1  
    77   34   73 1  
    78   35   74 1  
    79   36   75 1  
    80   36   76 1  
    81   37   77 1  
    82   38   78 1  
    83   39   79 1  
    84   40   80 1  
    85   41   81 1  
@<TRIPOS>SUBSTRUCTURE
     1 031         1

