### 
### Created by X-TOOL on Mon Sep 10 21:13:09 2018
### 

@<TRIPOS>MOLECULE
3vg1_ligand
   70    73     1     0     0
SMALL
GAST_HUCK


@<TRIPOS>ATOM
      1 F1         27.2780   78.1810   16.4870 F         1 0GT        -0.2078
      2 C2         28.4680   77.9880   17.1190 C.3       1 0GT         0.2432
      3 F4         29.4560   78.6440   16.4510 F         1 0GT        -0.2078
      4 C5         28.3650   78.4970   18.5770 C.3       1 0GT         0.0240
      5 C8         29.4060   77.8650   19.4680 C.2       1 0GT        -0.0434
      6 C9         30.3940   78.4840   20.1410 C.2       1 0GT         0.0151
      7 N11        31.1010   77.6140   20.8180 N.pl3     1 0GT        -0.2919
      8 C13        30.6400   76.3630   20.6390 C.ar      1 0GT         0.0546
      9 C14        29.5400   76.3970   19.7790 C.ar      1 0GT        -0.0287
     10 C15        28.8520   75.2250   19.4060 C.ar      1 0GT        -0.0747
     11 C17        29.3130   73.9890   19.9310 C.ar      1 0GT        -0.0601
     12 C18        30.4330   73.9530   20.8140 C.ar      1 0GT        -0.0736
     13 C20        31.1130   75.1460   21.1790 C.ar      1 0GT        -0.0488
     14 C22        28.5850   72.6980   19.5180 C.3       1 0GT        -0.0188
     15 C25        29.4810   71.7990   18.5950 C.3       1 0GT         0.0178
     16 C27        28.7550   70.4740   18.1840 C.3       1 0GT         0.1050
     17 C29        29.6390   69.5290   17.3040 C.3       1 0GT         0.0254
     18 C31        30.1760   70.1620   15.9900 C.3       1 0GT         0.1107
     19 S34        31.1560   71.6080   16.4040 S.o2      1 0GT        -0.0252
     20 C35        29.9530   72.5700   17.3210 C.3       1 0GT         0.0729
     21 O38        32.2430   71.2260   17.2860 O.2       1 0GT        -0.1741
     22 O39        31.4390   72.3350   15.1800 O.2       1 0GT        -0.1741
     23 N40        28.9890   68.2090   17.0760 N.4       1 0GT         0.2446
     24 C42        29.7510   67.0670   16.4890 C.3       1 0GT         0.0069
     25 C45        30.9690   66.7700   17.3790 C.ar      1 0GT         0.0301
     26 C46        30.7620   66.2930   18.6920 C.ar      1 0GT        -0.0336
     27 C48        31.8270   65.9990   19.5880 C.ar      1 0GT        -0.0545
     28 C49        33.1490   66.2110   19.0910 C.ar      1 0GT        -0.0455
     29 C51        33.3850   66.6870   17.7750 C.ar      1 0GT        -0.0379
     30 C53        32.2960   66.9670   16.9150 C.ar      1 0GT        -0.0265
     31 C55        31.4680   65.4810   21.0280 C.3       1 0GT        -0.0466
     32 C56        32.6940   64.8830   21.7910 C.3       1 0GT        -0.0838
     33 C60        30.9150   66.6340   21.9230 C.3       1 0GT        -0.0838
     34 C64        30.3600   64.3790   20.9760 C.3       1 0GT        -0.0838
     35 O68        28.4120   69.7400   19.3760 O.3       1 0GT        -0.3857
     36 H1         28.6995   76.9127   17.1313 H         1 0GT         0.1033
     37 H2         27.3664   78.2539   18.9690 H         1 0GT         0.0402
     38 H3         28.5060   79.5879   18.5837 H         1 0GT         0.0402
     39 H4         30.5792   79.5570   20.1248 H         1 0GT         0.0792
     40 H5         31.9070   77.8566   21.4116 H         1 0GT         0.2202
     41 H6         27.9981   75.2659   18.7395 H         1 0GT         0.0462
     42 H7         30.7698   73.0026   21.2119 H         1 0GT         0.0486
     43 H8         31.9652   75.1233   21.8486 H         1 0GT         0.0531
     44 H9         27.6668   72.9644   18.9740 H         1 0GT         0.0408
     45 H10        28.3233   72.1306   20.4233 H         1 0GT         0.0408
     46 H11        30.3763   71.5247   19.1722 H         1 0GT         0.0363
     47 H12        27.8421   70.7317   17.6271 H         1 0GT         0.0655
     48 H13        30.5332   69.3215   17.9101 H         1 0GT         0.0893
     49 H14        29.3317   70.4583   15.3502 H         1 0GT         0.0557
     50 H15        30.8018   69.4315   15.4564 H         1 0GT         0.0557
     51 H16        30.4098   73.5234   17.6250 H         1 0GT         0.0505
     52 H17        29.0837   72.7687   16.6770 H         1 0GT         0.0505
     53 H18        28.2070   68.3769   16.4626 H         1 0GT         0.2032
     54 H19        28.6515   67.8971   17.9731 H         1 0GT         0.2032
     55 H20        30.0895   67.3309   15.4762 H         1 0GT         0.0985
     56 H21        29.1045   66.1784   16.4397 H         1 0GT         0.0985
     57 H22        29.7439   66.1439   19.0330 H         1 0GT         0.0779
     58 H23        33.9948   66.0028   19.7362 H         1 0GT         0.0800
     59 H24        34.4010   66.8364   17.4278 H         1 0GT         0.0683
     60 H25        32.4742   67.3294   15.9090 H         1 0GT         0.0805
     61 H26        32.3750   64.5410   22.7866 H         1 0GT         0.0138
     62 H27        33.4702   65.6548   21.8998 H         1 0GT         0.0138
     63 H28        33.0996   64.0323   21.2237 H         1 0GT         0.0138
     64 H29        30.0450   67.0943   21.4319 H         1 0GT         0.0138
     65 H30        31.6978   67.3929   22.0685 H         1 0GT         0.0138
     66 H31        30.6124   66.2274   22.8993 H         1 0GT         0.0138
     67 H32        30.7055   63.5408   20.3531 H         1 0GT         0.0138
     68 H33        29.4415   64.8027   20.5438 H         1 0GT         0.0138
     69 H34        30.1536   64.0182   21.9944 H         1 0GT         0.0138
     70 H35        27.8727   70.2844   19.9376 H         1 0GT         0.2101
@<TRIPOS>BOND
     1    1    2 1  
     2    2    3 1  
     3    2    4 1  
     4    4    5 1  
     5    5    6 2  
     6    5    9 1  
     7    6    7 1  
     8    7    8 1  
     9    8    9 ar 
    10    8   13 ar 
    11    9   10 ar 
    12   10   11 ar 
    13   11   12 ar 
    14   11   14 1  
    15   12   13 ar 
    16   14   15 1  
    17   15   16 1  
    18   15   20 1  
    19   16   17 1  
    20   16   35 1  
    21   17   18 1  
    22   17   23 1  
    23   18   19 1  
    24   19   20 1  
    25   19   21 2  
    26   19   22 2  
    27   23   24 1  
    28   24   25 1  
    29   25   26 ar 
    30   25   30 ar 
    31   26   27 ar 
    32   27   28 ar 
    33   27   31 1  
    34   28   29 ar 
    35   29   30 ar 
    36   31   32 1  
    37   31   33 1  
    38   31   34 1  
    39    2   36 1  
    40    4   37 1  
    41    4   38 1  
    42    6   39 1  
    43    7   40 1  
    44   10   41 1  
    45   12   42 1  
    46   13   43 1  
    47   14   44 1  
    48   14   45 1  
    49   15   46 1  
    50   16   47 1  
    51   17   48 1  
    52   18   49 1  
    53   18   50 1  
    54   20   51 1  
    55   20   52 1  
    56   23   53 1  
    57   23   54 1  
    58   24   55 1  
    59   24   56 1  
    60   26   57 1  
    61   28   58 1  
    62   29   59 1  
    63   30   60 1  
    64   32   61 1  
    65   32   62 1  
    66   32   63 1  
    67   33   64 1  
    68   33   65 1  
    69   33   66 1  
    70   34   67 1  
    71   34   68 1  
    72   34   69 1  
    73   35   70 1  
@<TRIPOS>SUBSTRUCTURE
     1 0GT         1

