### 
### Created by X-TOOL on Mon Sep 10 21:13:10 2018
### 

@<TRIPOS>MOLECULE
3vhc_ligand
   51    54     1     0     0
SMALL
GAST_HUCK


@<TRIPOS>ATOM
      1 C1         10.5510   -3.0840   15.3170 C.3       1 VHC        -0.0270
      2 C2         10.3540   -1.6240   14.8670 C.ar      1 VHC        -0.0278
      3 C3          9.4560   -1.4000   13.8250 C.ar      1 VHC        -0.0481
      4 C4          9.2310   -0.1030   13.3320 C.ar      1 VHC        -0.0326
      5 C5          8.2350    0.0670   12.1790 C.3       1 VHC        -0.0271
      6 C6          9.9510    0.9780   13.8670 C.ar      1 VHC         0.0036
      7 C7         10.8670    0.7440   14.9100 C.ar      1 VHC        -0.0397
      8 C8         11.0660   -0.5520   15.4390 C.ar      1 VHC         0.0494
      9 C9         12.0140   -0.7080   16.6320 C.2       1 VHC         0.1966
     10 O10        11.7030   -1.4300   17.5960 O.2       1 VHC        -0.3912
     11 N11        13.0770    0.0870   16.6080 N.am      1 VHC        -0.2880
     12 C13        14.1070    0.0960   17.6730 C.3       1 VHC         0.0325
     13 C14        14.6590    1.5010   17.9620 C.3       1 VHC        -0.0049
     14 C15        15.4810    2.0470   16.7820 C.3       1 VHC         0.0721
     15 O16        14.4280    2.5160   15.9240 O.3       1 VHC        -0.3196
     16 C17        14.6910    3.1360   14.7450 C.ar      1 VHC         0.0858
     17 C18        13.6010    3.7910   14.1780 C.ar      1 VHC        -0.0188
     18 C19        15.9110    3.0880   14.0450 C.ar      1 VHC        -0.0396
     19 C20        15.9950    3.7090   12.8010 C.ar      1 VHC        -0.0758
     20 C21        14.9200    4.4060   12.2570 C.ar      1 VHC        -0.0579
     21 C22        13.6980    4.3960   12.9330 C.ar      1 VHC         0.0260
     22 S23        12.3320    5.2910   12.2210 S.3       1 VHC        -0.0215
     23 C24        10.9410    4.3110   12.6620 C.ar      1 VHC         0.0998
     24 N25         9.7710    4.9510   12.6440 N.ar      1 VHC        -0.2474
     25 C26        11.0260    2.9480   12.9780 C.ar      1 VHC        -0.0083
     26 C27         9.8650    2.3070   13.4050 C.ar      1 VHC         0.0392
     27 N28         8.7010    2.9900   13.4120 N.ar      1 VHC        -0.2660
     28 C29         8.6390    4.2890   13.0150 C.ar      1 VHC         0.1741
     29 N30         7.4430    4.8950   12.9670 N.pl3     1 VHC        -0.3056
     30 H1          9.8911   -3.7405   14.7309 H         1 VHC         0.0413
     31 H2         10.3041   -3.1750   16.3850 H         1 VHC         0.0413
     32 H3         11.5984   -3.3791   15.1563 H         1 VHC         0.0413
     33 H4          8.9237   -2.2375   13.3887 H         1 VHC         0.0518
     34 H5          7.7937   -0.9090   11.9288 H         1 VHC         0.0413
     35 H6          8.7580    0.4693   11.2989 H         1 VHC         0.0413
     36 H7          7.4386    0.7626   12.4820 H         1 VHC         0.0413
     37 H8         11.4319    1.5752   15.3163 H         1 VHC         0.0678
     38 H9         13.1879    0.7099   15.8336 H         1 VHC         0.1840
     39 H10        14.9402   -0.5506   17.3605 H         1 VHC         0.0520
     40 H11        13.6604   -0.3019   18.5961 H         1 VHC         0.0520
     41 H12        15.3029    1.4541   18.8526 H         1 VHC         0.0311
     42 H13        13.8166    2.1818   18.1540 H         1 VHC         0.0311
     43 H14        16.0752    1.2563   16.3006 H         1 VHC         0.0614
     44 H15        16.1454    2.8661   17.0944 H         1 VHC         0.0614
     45 H16        12.6617    3.8289   14.7177 H         1 VHC         0.0493
     46 H17        16.7694    2.5772   14.4661 H         1 VHC         0.0489
     47 H18        16.9217    3.6479   12.2420 H         1 VHC         0.0573
     48 H19        15.0295    4.9475   11.3243 H         1 VHC         0.0479
     49 H20        11.9636    2.4107   12.8930 H         1 VHC         0.0593
     50 H21         7.3756    5.8786   12.6688 H         1 VHC         0.1824
     51 H22         6.5922    4.3767   13.2284 H         1 VHC         0.1824
@<TRIPOS>BOND
     1    1    2 1  
     2    2    3 ar 
     3    2    8 ar 
     4    3    4 ar 
     5    4    5 1  
     6    4    6 ar 
     7    6    7 ar 
     8    6   26 1  
     9    7    8 ar 
    10    8    9 1  
    11    9   10 2  
    12    9   11 am 
    13   11   12 1  
    14   12   13 1  
    15   13   14 1  
    16   14   15 1  
    17   15   16 1  
    18   16   17 ar 
    19   16   18 ar 
    20   17   21 ar 
    21   18   19 ar 
    22   19   20 ar 
    23   20   21 ar 
    24   21   22 1  
    25   22   23 1  
    26   23   24 ar 
    27   23   25 ar 
    28   24   28 ar 
    29   25   26 ar 
    30   26   27 ar 
    31   27   28 ar 
    32   28   29 1  
    33    1   30 1  
    34    1   31 1  
    35    1   32 1  
    36    3   33 1  
    37    5   34 1  
    38    5   35 1  
    39    5   36 1  
    40    7   37 1  
    41   11   38 1  
    42   12   39 1  
    43   12   40 1  
    44   13   41 1  
    45   13   42 1  
    46   14   43 1  
    47   14   44 1  
    48   17   45 1  
    49   18   46 1  
    50   19   47 1  
    51   20   48 1  
    52   25   49 1  
    53   29   50 1  
    54   29   51 1  
@<TRIPOS>SUBSTRUCTURE
     1 VHC         1

