### 
### Created by X-TOOL on Mon Sep 10 21:13:09 2018
### 

@<TRIPOS>MOLECULE
3vhd_ligand
   50    52     1     0     0
SMALL
GAST_HUCK


@<TRIPOS>ATOM
      1 C1        -11.7180   -5.3100  -10.6610 C.ar      1 VHE         0.0036
      2 C2        -10.6440   -6.0100  -11.2300 C.ar      1 VHE        -0.0326
      3 C3         -9.3400   -5.7390  -10.7060 C.ar      1 VHE        -0.0481
      4 C4         -9.1060   -4.8110   -9.6660 C.ar      1 VHE        -0.0278
      5 C5        -10.1990   -4.1100   -9.1470 C.ar      1 VHE         0.0494
      6 C6        -11.4930   -4.3680   -9.6110 C.ar      1 VHE        -0.0397
      7 C7        -10.1270   -3.1390   -8.0690 C.2       1 VHE         0.1966
      8 C8         -7.6700   -4.5790   -9.1970 C.3       1 VHE        -0.0270
      9 O9         -9.5430   -3.3820   -6.9730 O.2       1 VHE        -0.3912
     10 N10       -10.7750   -1.9450   -8.3180 N.am      1 VHE        -0.2881
     11 C11       -10.7960   -7.0170  -12.3920 C.3       1 VHE        -0.0271
     12 C12       -13.1020   -5.4090  -11.1310 C.ar      1 VHE         0.0389
     13 C13       -13.7840   -4.2180  -11.4850 C.ar      1 VHE        -0.0105
     14 C14       -15.0840   -4.3840  -11.9490 C.ar      1 VHE         0.0857
     15 N15       -15.7030   -5.5520  -12.0550 N.ar      1 VHE        -0.2496
     16 C16       -14.9660   -6.6660  -11.6980 C.ar      1 VHE         0.1738
     17 N17       -13.6890   -6.5950  -11.2560 N.ar      1 VHE        -0.2661
     18 N18       -15.5440   -7.9480  -11.7560 N.pl3     1 VHE        -0.3056
     19 C19       -10.8300   -0.8710   -7.2690 C.3       1 VHE         0.0319
     20 C20       -11.9790    0.1010   -7.6520 C.3       1 VHE        -0.0126
     21 C21       -13.3500   -0.4110   -7.2210 C.3       1 VHE         0.0327
     22 N22       -14.0440   -1.3390   -8.1650 N.am      1 VHE        -0.2869
     23 C23       -14.8910   -0.8600   -9.1530 C.2       1 VHE         0.1770
     24 C24       -15.5700   -1.8790  -10.0130 C.3       1 VHE         0.0488
     25 O25       -15.0910    0.3720   -9.3170 O.2       1 VHE        -0.3970
     26 C26       -15.3540   -1.6120  -11.5320 C.3       1 VHE         0.0281
     27 S27       -16.0990   -3.0340  -12.4500 S.3       1 VHE        -0.0745
     28 H1         -8.4932   -6.2697  -11.1259 H         1 VHE         0.0518
     29 H2        -12.3346   -3.8472   -9.1688 H         1 VHE         0.0678
     30 H3         -6.9915   -5.2453   -9.7499 H         1 VHE         0.0413
     31 H4         -7.5968   -4.7926   -8.1204 H         1 VHE         0.0413
     32 H5         -7.3880   -3.5322   -9.3832 H         1 VHE         0.0413
     33 H6        -11.2117   -1.7940   -9.2049 H         1 VHE         0.1840
     34 H7        -11.8578   -7.1027  -12.6663 H         1 VHE         0.0413
     35 H8        -10.4183   -8.0007  -12.0765 H         1 VHE         0.0413
     36 H9        -10.2202   -6.6644  -13.2604 H         1 VHE         0.0413
     37 H10       -13.3220   -3.2411  -11.3995 H         1 VHE         0.0589
     38 H11       -16.5135   -8.0614  -12.0848 H         1 VHE         0.1824
     39 H12       -14.9975   -8.7728  -11.4696 H         1 VHE         0.1824
     40 H13        -9.8740   -0.3278   -7.2378 H         1 VHE         0.0519
     41 H14       -11.0299   -1.3184   -6.2842 H         1 VHE         0.0519
     42 H15       -11.9797    0.2325   -8.7441 H         1 VHE         0.0304
     43 H16       -11.7966    1.0708   -7.1660 H         1 VHE         0.0304
     44 H17       -14.0013    0.4629   -7.0727 H         1 VHE         0.0520
     45 H18       -13.2234   -0.9404   -6.2651 H         1 VHE         0.0520
     46 H19       -13.8946   -2.3243   -8.0825 H         1 VHE         0.1850
     47 H20       -16.6491   -1.8581   -9.8006 H         1 VHE         0.0512
     48 H21       -15.1672   -2.8729   -9.7682 H         1 VHE         0.0512
     49 H22       -14.2787   -1.5428  -11.7531 H         1 VHE         0.0432
     50 H23       -15.8494   -0.6743  -11.8238 H         1 VHE         0.0432
@<TRIPOS>BOND
     1    1    2 ar 
     2    1    6 ar 
     3    1   12 1  
     4    2    3 ar 
     5    2   11 1  
     6    3    4 ar 
     7    4    5 ar 
     8    4    8 1  
     9    5    6 ar 
    10    5    7 1  
    11    7    9 2  
    12    7   10 am 
    13   10   19 1  
    14   12   13 ar 
    15   12   17 ar 
    16   13   14 ar 
    17   14   15 ar 
    18   14   27 1  
    19   15   16 ar 
    20   16   17 ar 
    21   16   18 1  
    22   19   20 1  
    23   20   21 1  
    24   21   22 1  
    25   22   23 am 
    26   23   24 1  
    27   23   25 2  
    28   24   26 1  
    29   26   27 1  
    30    3   28 1  
    31    6   29 1  
    32    8   30 1  
    33    8   31 1  
    34    8   32 1  
    35   10   33 1  
    36   11   34 1  
    37   11   35 1  
    38   11   36 1  
    39   13   37 1  
    40   18   38 1  
    41   18   39 1  
    42   19   40 1  
    43   19   41 1  
    44   20   42 1  
    45   20   43 1  
    46   21   44 1  
    47   21   45 1  
    48   22   46 1  
    49   24   47 1  
    50   24   48 1  
    51   26   49 1  
    52   26   50 1  
@<TRIPOS>SUBSTRUCTURE
     1 VHE         1

