### 
### Created by X-TOOL on Mon Sep 10 21:13:06 2018
### 

@<TRIPOS>MOLECULE
3vhe_ligand
   47    50     1     0     0
SMALL
GAST_HUCK


@<TRIPOS>ATOM
      1 C1        -20.6780    2.5390  -14.1850 C.ar      1 42Q         0.0419
      2 N2        -21.7270    3.4780  -14.0570 N.ar      1 42Q        -0.3095
      3 C3        -22.9850    2.8900  -13.6920 C.ar      1 42Q         0.0493
      4 N4        -23.1220    1.4970  -13.4870 N.ar      1 42Q        -0.2585
      5 C5        -22.0180    0.6260  -13.6410 C.ar      1 42Q         0.2236
      6 C6        -20.7980    1.1440  -13.9820 C.ar      1 42Q         0.1510
      7 N8        -19.5290    0.5860  -14.1970 N.pl3     1 42Q        -0.2552
      8 C9        -18.6960    1.6110  -14.5090 C.2       1 42Q         0.0348
      9 C10       -19.3540    2.8170  -14.5130 C.2       1 42Q        -0.0437
     10 C11       -19.1690   -0.8340  -14.1030 C.3       1 42Q         0.0435
     11 O17       -22.1300   -0.7600  -13.4810 O.3       1 42Q        -0.2414
     12 C18       -23.2890   -1.2090  -12.8270 C.ar      1 42Q         0.1065
     13 C19       -23.1630   -1.8300  -11.5210 C.ar      1 42Q        -0.0437
     14 C20       -24.3060   -2.4190  -10.8890 C.ar      1 42Q        -0.0489
     15 C21       -25.5800   -2.3780  -11.5670 C.ar      1 42Q         0.0919
     16 C22       -25.6940   -1.7520  -12.8580 C.ar      1 42Q         0.1456
     17 C23       -24.5820   -1.1690  -13.4980 C.ar      1 42Q        -0.0061
     18 N27       -26.6790   -2.9510  -11.0040 N.am      1 42Q        -0.2191
     19 C28       -26.9740   -2.7780   -9.7050 C.2       1 42Q         0.3138
     20 N29       -28.0750   -3.5030   -9.2940 N.am      1 42Q        -0.2091
     21 C30       -28.5160   -3.5970   -7.9810 C.ar      1 42Q         0.0958
     22 O31       -26.3220   -2.0400   -8.9630 O.2       1 42Q        -0.3818
     23 F34       -26.9090   -1.7630  -13.4120 F         1 42Q        -0.1959
     24 C35       -29.3820   -4.7080   -7.6210 C.ar      1 42Q        -0.0114
     25 C36       -29.9100   -4.8400   -6.2850 C.ar      1 42Q        -0.0435
     26 C37       -29.5760   -3.8650   -5.2960 C.ar      1 42Q        -0.0452
     27 C38       -28.7000   -2.7360   -5.6290 C.ar      1 42Q         0.0333
     28 C39       -28.1690   -2.6050   -6.9880 C.ar      1 42Q        -0.0127
     29 C44       -28.3190   -1.6970   -4.5400 C.3       1 42Q         0.3726
     30 F45       -28.8140   -0.5380   -4.9040 F         1 42Q        -0.2209
     31 F46       -26.9990   -1.6490   -4.4650 F         1 42Q        -0.2209
     32 F47       -28.8280   -2.0770   -3.3960 F         1 42Q        -0.2209
     33 H1        -23.8517    3.5296  -13.5704 H         1 42Q         0.0971
     34 H2        -17.6361    1.4921  -14.7292 H         1 42Q         0.1018
     35 H3        -18.9257    3.7946  -14.7294 H         1 42Q         0.0322
     36 H4        -20.0591   -1.4207  -13.8321 H         1 42Q         0.0572
     37 H5        -18.3947   -0.9658  -13.3329 H         1 42Q         0.0572
     38 H6        -18.7835   -1.1796  -15.0735 H         1 42Q         0.0572
     39 H7        -22.2008   -1.8482  -11.0221 H         1 42Q         0.0489
     40 H8        -24.2156   -2.8885   -9.9161 H         1 42Q         0.0468
     41 H9        -24.6863   -0.7002  -14.4698 H         1 42Q         0.0508
     42 H10       -27.2807   -3.5138  -11.5707 H         1 42Q         0.2220
     43 H11       -28.5925   -3.9963   -9.9932 H         1 42Q         0.2263
     44 H12       -29.6353   -5.4500   -8.3695 H         1 42Q         0.0758
     45 H13       -30.5558   -5.6735   -6.0334 H         1 42Q         0.0663
     46 H14       -29.9728   -3.9599   -4.2917 H         1 42Q         0.0740
     47 H15       -27.5231   -1.7736   -7.2463 H         1 42Q         0.0709
@<TRIPOS>BOND
     1    1    2 ar 
     2    1    6 ar 
     3    1    9 1  
     4    2    3 ar 
     5    3    4 ar 
     6    4    5 ar 
     7    5    6 ar 
     8    5   11 1  
     9    6    7 1  
    10    7    8 1  
    11    7   10 1  
    12    8    9 2  
    13   11   12 1  
    14   12   13 ar 
    15   12   17 ar 
    16   13   14 ar 
    17   14   15 ar 
    18   15   16 ar 
    19   15   18 1  
    20   16   17 ar 
    21   16   23 1  
    22   18   19 am 
    23   19   20 am 
    24   19   22 2  
    25   20   21 1  
    26   21   24 ar 
    27   21   28 ar 
    28   24   25 ar 
    29   25   26 ar 
    30   26   27 ar 
    31   27   28 ar 
    32   27   29 1  
    33   29   30 1  
    34   29   31 1  
    35   29   32 1  
    36    3   33 1  
    37    8   34 1  
    38    9   35 1  
    39   10   36 1  
    40   10   37 1  
    41   10   38 1  
    42   13   39 1  
    43   14   40 1  
    44   17   41 1  
    45   18   42 1  
    46   20   43 1  
    47   24   44 1  
    48   25   45 1  
    49   26   46 1  
    50   28   47 1  
@<TRIPOS>SUBSTRUCTURE
     1 42Q         1

