### 
### Created by X-TOOL on Mon Sep 10 21:13:11 2018
### 

@<TRIPOS>MOLECULE
3vhk_ligand
   39    41     1     0     0
SMALL
GAST_HUCK


@<TRIPOS>ATOM
      1 C5        -24.2820   27.8600   12.5080 C.ar      1 BPK        -0.0620
      2 C4        -25.4720   28.3480   12.0210 C.ar      1 BPK        -0.0613
      3 C6        -24.2820   26.9950   13.5800 C.ar      1 BPK        -0.0613
      4 C19       -31.1760   27.3200   21.1670 C.ar      1 BPK        -0.0771
      5 C3        -26.6560   27.9690   12.6110 C.ar      1 BPK        -0.0496
      6 C7        -25.4670   26.6190   14.1710 C.ar      1 BPK        -0.0496
      7 C18       -31.7000   26.0610   21.3640 C.ar      1 BPK        -0.0692
      8 C20       -30.5310   27.6160   19.9870 C.ar      1 BPK        -0.0399
      9 C16       -30.9380   25.3870   19.2080 C.ar      1 BPK        -0.0299
     10 C2        -26.6570   27.1080   13.6850 C.ar      1 BPK         0.0316
     11 C17       -31.5840   25.0920   20.3890 C.ar      1 BPK        -0.0267
     12 C15       -30.4170   26.6490   19.0130 C.ar      1 BPK         0.0863
     13 C9        -29.5350   26.3100   15.5560 C.2       1 BPK         0.0432
     14 C10       -29.9110   26.0420   14.2570 C.2       1 BPK         0.1165
     15 C1        -27.8990   26.7340   14.2990 C.2       1 BPK         0.1881
     16 C12       -31.1370   25.5540   13.6100 C.3       1 BPK        -0.0014
     17 C21       -32.1510   23.7340   20.5980 C.3       1 BPK         0.0757
     18 C13       -30.3100   26.1830   16.8010 C.3       1 BPK         0.0972
     19 N8        -28.2390   26.7550   15.5700 N.2       1 BPK        -0.3103
     20 O11       -28.8640   26.3110   13.4380 O.3       1 BPK        -0.2355
     21 O22       -31.5970   23.1950   21.7870 O.3       1 BPK        -0.3827
     22 O14       -29.7590   26.9840   17.8400 O.3       1 BPK        -0.3130
     23 H1        -23.3455   28.1556   12.0490 H         1 BPK         0.0615
     24 H2        -25.4772   29.0278   11.1766 H         1 BPK         0.0617
     25 H3        -23.3435   26.6082   13.9604 H         1 BPK         0.0617
     26 H4        -31.2712   28.0753   21.9387 H         1 BPK         0.0572
     27 H5        -27.5949   28.3513   12.2271 H         1 BPK         0.0626
     28 H6        -25.4622   25.9402   15.0161 H         1 BPK         0.0626
     29 H7        -32.2079   25.8299   22.2934 H         1 BPK         0.0465
     30 H8        -30.1155   28.6041   19.8257 H         1 BPK         0.0486
     31 H9        -30.8399   24.6316   18.4368 H         1 BPK         0.0479
     32 H10       -30.9781   25.4914   12.5233 H         1 BPK         0.0409
     33 H11       -31.9639   26.2483   13.8202 H         1 BPK         0.0409
     34 H12       -31.3866   24.5570   14.0021 H         1 BPK         0.0409
     35 H13       -31.8957   23.0895   19.7440 H         1 BPK         0.0720
     36 H14       -33.2448   23.7990   20.6942 H         1 BPK         0.0720
     37 H15       -30.3048   25.1303   17.1199 H         1 BPK         0.0708
     38 H16       -31.3451   26.5040   16.6125 H         1 BPK         0.0708
     39 H17       -31.9507   22.3256   21.9341 H         1 BPK         0.2126
@<TRIPOS>BOND
     1    2    1 ar 
     2    3    1 ar 
     3    5    2 ar 
     4    6    3 ar 
     5    4    7 ar 
     6    8    4 ar 
     7   10    5 ar 
     8   10    6 ar 
     9   11    7 ar 
    10   12    8 ar 
    11    9   11 ar 
    12   12    9 ar 
    13   15   10 1  
    14   11   17 1  
    15   22   12 1  
    16   13   14 2  
    17   18   13 1  
    18   13   19 1  
    19   14   16 1  
    20   14   20 1  
    21   19   15 2  
    22   15   20 1  
    23   17   21 1  
    24   18   22 1  
    25    1   23 1  
    26    2   24 1  
    27    3   25 1  
    28    4   26 1  
    29    5   27 1  
    30    6   28 1  
    31    7   29 1  
    32    8   30 1  
    33    9   31 1  
    34   16   32 1  
    35   16   33 1  
    36   16   34 1  
    37   17   35 1  
    38   17   36 1  
    39   18   37 1  
    40   18   38 1  
    41   21   39 1  
@<TRIPOS>SUBSTRUCTURE
     1 BPK         1

