### 
### Created by X-TOOL on Mon Sep 10 21:13:06 2018
### 

@<TRIPOS>MOLECULE
3vhu_ligand
   61    65     1     0     0
SMALL
GAST_HUCK


@<TRIPOS>ATOM
      1 C8         20.4060   11.1410   -0.7490 C.3       1 SNL        -0.0183
      2 C4         17.3590   13.2880   -0.1940 C.3       1 SNL        -0.0450
      3 C5         18.7590   12.9370   -0.6750 C.3       1 SNL         0.0046
      4 C2         18.3130   16.2810    2.1040 C.3       1 SNL        -0.0377
      5 C6         19.6550   12.9910    0.5530 C.3       1 SNL        -0.0291
      6 C1         16.9060   16.5190    2.6230 C.3       1 SNL        -0.0611
      7 C3         17.3460   14.6820    0.4020 C.3       1 SNL        -0.0583
      8 C7         20.9110   12.2480    0.1590 C.3       1 SNL        -0.0464
      9 C9         18.9730   11.4990   -1.1290 C.3       1 SNL         0.1060
     10 C10        19.1930   13.8800   -1.8060 C.3       1 SNL        -0.0563
     11 C11        18.6600   17.3230    1.0510 C.3       1 SNL        -0.0890
     12 C12        16.8240   17.8240    3.3910 C.3       1 SNL         0.0243
     13 C13        17.9430   10.5560   -0.5400 C.3       1 SNL        -0.0005
     14 C14        16.9540   10.3230   -1.6410 C.3       1 SNL         0.0517
     15 C15        17.6710   10.8220   -2.8470 C.2       1 SNL         0.2344
     16 C16        21.5980   13.1350    4.7090 C.2       1 SNL         0.1615
     17 C17        21.5090   12.0230    5.7000 C.3       1 SNL         0.0201
     18 C18        17.8070   17.8040    4.5130 C.2       1 SNL         0.1764
     19 C19        19.1280   17.1700    4.3110 C.2       1 SNL         0.0477
     20 C20        19.3290   16.4630    3.1890 C.2       1 SNL        -0.0401
     21 C21        20.6780   15.8510    2.9930 C.3       1 SNL        -0.0026
     22 C22        20.6810   14.4600    2.3750 C.3       1 SNL         0.0383
     23 C23        19.7570   14.3820    1.1650 C.3       1 SNL        -0.0273
     24 C24        18.3460   14.8470    1.5510 C.3       1 SNL        -0.0607
     25 O57        17.2450   10.7610   -3.9800 O.2       1 SNL        -0.3704
     26 O58        18.8750   11.3500   -2.5300 O.3       1 SNL        -0.2695
     27 O59        22.5820   13.8560    4.6720 O.2       1 SNL        -0.3794
     28 O60        17.5680   18.3570    5.5730 O.2       1 SNL        -0.3440
     29 S61        20.1680   13.3110    3.6740 S.3       1 SNL        -0.0444
     30 H1         20.4272   10.1775   -0.2187 H         1 SNL         0.0297
     31 H2         21.0318   11.0768   -1.6513 H         1 SNL         0.0297
     32 H3         17.0447   12.5626    0.5709 H         1 SNL         0.0271
     33 H4         16.6621   13.2496   -1.0442 H         1 SNL         0.0271
     34 H5         19.1761   12.3824    1.3342 H         1 SNL         0.0310
     35 H6         16.6235   15.6909    3.2897 H         1 SNL         0.0172
     36 H7         16.2103   16.5582    1.7718 H         1 SNL         0.0172
     37 H8         16.3356   14.8918    0.7829 H         1 SNL         0.0259
     38 H9         17.5971   15.4044   -0.3886 H         1 SNL         0.0259
     39 H10        21.6056   12.9100   -0.3789 H         1 SNL         0.0269
     40 H11        21.4134   11.8305    1.0440 H         1 SNL         0.0269
     41 H12        19.0436   14.9233   -1.4911 H         1 SNL         0.0236
     42 H13        18.5900   13.6780   -2.7035 H         1 SNL         0.0236
     43 H14        20.2564   13.7145   -2.0337 H         1 SNL         0.0236
     44 H15        19.6800   17.1440    0.6802 H         1 SNL         0.0112
     45 H16        18.6027   18.3273    1.4961 H         1 SNL         0.0112
     46 H17        17.9483   17.2511    0.2154 H         1 SNL         0.0112
     47 H18        15.8086   17.9481    3.7955 H         1 SNL         0.0483
     48 H19        17.0549   18.6615    2.7163 H         1 SNL         0.0483
     49 H20        17.4513   11.0155    0.3301 H         1 SNL         0.0322
     50 H21        18.4143    9.6093   -0.2373 H         1 SNL         0.0322
     51 H22        16.0285   10.8917   -1.4679 H         1 SNL         0.0519
     52 H23        16.7147    9.2537   -1.7377 H         1 SNL         0.0519
     53 H24        22.4333   11.9876    6.2953 H         1 SNL         0.0467
     54 H25        21.3780   11.0685    5.1693 H         1 SNL         0.0467
     55 H26        20.6502   12.1932    6.3660 H         1 SNL         0.0467
     56 H27        19.9171   17.2745    5.0541 H         1 SNL         0.1318
     57 H28        21.1673   15.7865    3.9760 H         1 SNL         0.0463
     58 H29        21.2597   16.5150    2.3367 H         1 SNL         0.0463
     59 H30        21.7012   14.2091    2.0491 H         1 SNL         0.0468
     60 H31        20.1553   15.0616    0.3972 H         1 SNL         0.0311
     61 H32        18.0113   14.1860    2.3640 H         1 SNL         0.0187
@<TRIPOS>BOND
     1    8    1 1  
     2    1    9 1  
     3    3    2 1  
     4    2    7 1  
     5    5    3 1  
     6    3    9 1  
     7    3   10 1  
     8    4    6 1  
     9    4   11 1  
    10   20    4 1  
    11    4   24 1  
    12    5    8 1  
    13   23    5 1  
    14    6   12 1  
    15   24    7 1  
    16    9   13 1  
    17    9   26 1  
    18   18   12 1  
    19   13   14 1  
    20   15   14 1  
    21   15   25 2  
    22   26   15 1  
    23   16   17 1  
    24   16   27 2  
    25   29   16 1  
    26   19   18 1  
    27   18   28 2  
    28   20   19 2  
    29   21   20 1  
    30   22   21 1  
    31   22   23 1  
    32   22   29 1  
    33   23   24 1  
    34    1   30 1  
    35    1   31 1  
    36    2   32 1  
    37    2   33 1  
    38    5   34 1  
    39    6   35 1  
    40    6   36 1  
    41    7   37 1  
    42    7   38 1  
    43    8   39 1  
    44    8   40 1  
    45   10   41 1  
    46   10   42 1  
    47   10   43 1  
    48   11   44 1  
    49   11   45 1  
    50   11   46 1  
    51   12   47 1  
    52   12   48 1  
    53   13   49 1  
    54   13   50 1  
    55   14   51 1  
    56   14   52 1  
    57   17   53 1  
    58   17   54 1  
    59   17   55 1  
    60   19   56 1  
    61   21   57 1  
    62   21   58 1  
    63   22   59 1  
    64   23   60 1  
    65   24   61 1  
@<TRIPOS>SUBSTRUCTURE
     1 SNL         1

