### 
### Created by X-TOOL on Mon Sep 10 21:13:05 2018
### 

@<TRIPOS>MOLECULE
3vhv_ligand
   39    43     1     0     0
SMALL
GAST_HUCK


@<TRIPOS>ATOM
      1 C1         -1.8470   17.3960   -8.3030 C.ar      1 LD1         0.1221
      2 C2         -2.5360   16.2090   -8.3920 C.ar      1 LD1         0.1020
      3 C3         -3.3020   15.7670   -7.3370 C.ar      1 LD1        -0.0347
      4 C4         -3.3750   16.5530   -6.2070 C.ar      1 LD1        -0.0134
      5 C5         -2.6890   17.7490   -6.1290 C.ar      1 LD1        -0.0698
      6 C6         -1.9160   18.1850   -7.1780 C.ar      1 LD1        -0.0390
      7 O7         -1.0810   17.8150   -9.3640 O.3       1 LD1        -0.2991
      8 C8         -0.4220   16.7090   -9.9990 C.3       1 LD1         0.1627
      9 C9         -1.4080   15.6570  -10.4360 C.2       1 LD1         0.2315
     10 N10        -2.4350   15.4530   -9.5600 N.am      1 LD1        -0.2336
     11 O11        -1.2800   15.0150  -11.4690 O.2       1 LD1        -0.3833
     12 C12        -4.1680   16.0490   -5.0680 C.2       1 LD1         0.0798
     13 C13        -4.1720   16.8740   -3.7870 C.3       1 LD1         0.1112
     14 S14        -5.6050   16.5570   -2.6980 S.3       1 LD1        -0.0051
     15 C15        -5.8340   14.8800   -3.0380 C.2       1 LD1         0.2273
     16 N16        -5.3860   14.3260   -4.1940 N.pl3     1 LD1        -0.1145
     17 N17        -4.7170   14.8840   -5.2180 N.2       1 LD1        -0.1710
     18 N18        -6.4450   13.9900   -2.2980 N.2       1 LD1        -0.2583
     19 N19        -6.3960   12.8010   -2.9860 N.2       1 LD1        -0.2689
     20 C20        -5.7600   13.0180   -4.1180 C.2       1 LD1         0.1402
     21 C21        -2.8350   16.7960   -3.0880 C.ar      1 LD1        -0.0124
     22 C22        -1.8730   15.8630   -3.4320 C.ar      1 LD1        -0.0565
     23 C23        -0.6540   15.8340   -2.7940 C.ar      1 LD1        -0.0680
     24 C24        -0.3860   16.7580   -1.8070 C.ar      1 LD1        -0.0683
     25 C25        -1.3380   17.6930   -1.4640 C.ar      1 LD1        -0.0680
     26 C26        -2.5590   17.7130   -2.0960 C.ar      1 LD1        -0.0565
     27 H1         -3.8344   14.8244   -7.3935 H         1 LD1         0.0497
     28 H2         -2.7612   18.3506   -5.2301 H         1 LD1         0.0511
     29 H3         -1.3762   19.1233   -7.1208 H         1 LD1         0.0515
     30 H4          0.2883   16.2604   -9.2890 H         1 LD1         0.0862
     31 H5          0.1235   17.0761  -10.8808 H         1 LD1         0.0862
     32 H6         -3.1223   14.7541   -9.7578 H         1 LD1         0.2223
     33 H7         -4.2806   17.9209   -4.1068 H         1 LD1         0.0809
     34 H8         -5.5624   12.2650   -4.8795 H         1 LD1         0.1271
     35 H9         -2.0826   15.1441   -4.2158 H         1 LD1         0.0563
     36 H10         0.0881   15.0918   -3.0650 H         1 LD1         0.0600
     37 H11         0.5727   16.7491   -1.3012 H         1 LD1         0.0562
     38 H12        -1.1225   18.4195   -0.6889 H         1 LD1         0.0600
     39 H13        -3.3037   18.4488   -1.8147 H         1 LD1         0.0563
@<TRIPOS>BOND
     1    1    2 ar 
     2    1    6 ar 
     3    1    7 1  
     4    2    3 ar 
     5    2   10 1  
     6    3    4 ar 
     7    4    5 ar 
     8    4   12 1  
     9    5    6 ar 
    10    7    8 1  
    11    8    9 1  
    12    9   10 am 
    13    9   11 2  
    14   12   13 1  
    15   12   17 2  
    16   13   14 1  
    17   13   21 1  
    18   14   15 1  
    19   15   16 1  
    20   15   18 2  
    21   16   17 1  
    22   16   20 1  
    23   18   19 1  
    24   19   20 2  
    25   21   22 ar 
    26   21   26 ar 
    27   22   23 ar 
    28   23   24 ar 
    29   24   25 ar 
    30   25   26 ar 
    31    3   27 1  
    32    5   28 1  
    33    6   29 1  
    34    8   30 1  
    35    8   31 1  
    36   10   32 1  
    37   13   33 1  
    38   20   34 1  
    39   22   35 1  
    40   23   36 1  
    41   24   37 1  
    42   25   38 1  
    43   26   39 1  
@<TRIPOS>SUBSTRUCTURE
     1 LD1         1

