### 
### Created by X-TOOL on Mon Sep 10 21:13:11 2018
### 

@<TRIPOS>MOLECULE
3vi2_ligand
   27    27     1     0     0
SMALL
GAST_HUCK


@<TRIPOS>ATOM
      1 CAA        18.4180   33.8580    9.8760 C.3       1 HMZ         0.0605
      2 OAB        25.2220   37.0350   12.7100 O.co2     1 HMZ        -0.5689
      3 OAC        22.1880   33.2690   16.0680 O.2       1 HMZ        -0.3903
      4 OAD        25.7190   36.2930   14.7270 O.co2     1 HMZ        -0.5689
      5 OAE        20.2830   36.4620   14.6090 O.3       1 HMZ        -0.3301
      6 CAF        19.8350   32.9020   12.4830 C.ar      1 HMZ        -0.0372
      7 CAG        20.8150   33.0270   13.4410 C.ar      1 HMZ        -0.0592
      8 CAH        19.1740   35.1130   12.9520 C.ar      1 HMZ         0.0013
      9 CAI        23.5560   35.7770   13.8110 C.3       1 HMZ         0.0150
     10 CAJ        23.2440   35.2520   15.2280 C.3       1 HMZ         0.0302
     11 OAK        17.9990   33.7900   11.2010 O.3       1 HMZ        -0.3203
     12 CAL        24.9480   36.4250   13.7530 C.2       1 HMZ         0.0369
     13 CAM        22.1260   34.1900   15.2470 C.2       1 HMZ         0.1211
     14 CAN        19.0090   33.9570   12.2140 C.ar      1 HMZ         0.0881
     15 CAO        20.1450   35.2710   13.9110 C.ar      1 HMZ         0.0999
     16 CAP        20.9830   34.2000   14.1800 C.ar      1 HMZ         0.0500
     17 H1         17.5539   33.7153    9.2104 H         1 HMZ         0.0580
     18 H2         19.1615   33.0700    9.6856 H         1 HMZ         0.0580
     19 H3         18.8697   34.8425    9.6843 H         1 HMZ         0.0580
     20 H4         19.4789   36.6468   15.0798 H         1 HMZ         0.2508
     21 H5         19.7185   31.9692   11.9432 H         1 HMZ         0.0471
     22 H6         21.4769   32.1891   13.6278 H         1 HMZ         0.0619
     23 H7         18.5002   35.9411   12.7641 H         1 HMZ         0.0476
     24 H8         22.7999   36.5252   13.5309 H         1 HMZ         0.0454
     25 H9         23.5213   34.9372   13.1014 H         1 HMZ         0.0454
     26 H10        22.9317   36.1003   15.8548 H         1 HMZ         0.0498
     27 H11        24.1585   34.8050   15.6450 H         1 HMZ         0.0498
@<TRIPOS>BOND
     1   11    1 1  
     2   12    2 ar 
     3   13    3 2  
     4   12    4 ar 
     5   15    5 1  
     6    7    6 ar 
     7    6   14 ar 
     8   16    7 ar 
     9   14    8 ar 
    10    8   15 ar 
    11   10    9 1  
    12    9   12 1  
    13   13   10 1  
    14   14   11 1  
    15   13   16 1  
    16   15   16 ar 
    17    1   17 1  
    18    1   18 1  
    19    1   19 1  
    20    5   20 1  
    21    6   21 1  
    22    7   22 1  
    23    8   23 1  
    24    9   24 1  
    25    9   25 1  
    26   10   26 1  
    27   10   27 1  
@<TRIPOS>SUBSTRUCTURE
     1 HMZ         1

