### 
### Created by X-TOOL on Mon Sep 10 21:13:09 2018
### 

@<TRIPOS>MOLECULE
3vi5_ligand
   46    49     1     0     0
SMALL
GAST_HUCK


@<TRIPOS>ATOM
      1 C1         25.0190    5.1200   66.3190 C.ar      1 M4M         0.0485
      2 N1         25.9850    0.1350   67.5030 N.pl3     1 M4M        -0.3358
      3 O1         25.9130    2.4050   68.5800 O.2       1 M4M        -0.3706
      4 S1         25.8480   -1.7480   65.2010 S.o2      1 M4M        -0.1657
      5 C2         24.7870    6.5040   66.3010 C.ar      1 M4M        -0.0388
      6 N2         24.7590    2.5920   62.7060 N.pl3     1 M4M        -0.2762
      7 O2         27.0990   -2.1430   65.9470 O.co2     1 M4M        -0.4811
      8 S2         22.0900    1.1170   57.8430 S.o2      1 M4M         0.0604
      9 C3         24.8590    7.2560   67.4740 C.ar      1 M4M        -0.0521
     10 N3         20.8680    0.2980   58.1250 N.am      1 M4M        -0.2622
     11 O3         24.8210   -2.5290   65.9150 O.co2     1 M4M        -0.4811
     12 C4         25.2220    6.6390   68.6800 C.ar      1 M4M        -0.0521
     13 O4         25.7960   -2.2800   63.7890 O.co2     1 M4M        -0.4811
     14 C5         25.4660    5.2520   68.6870 C.ar      1 M4M        -0.0389
     15 C6         25.3600    4.4820   67.5170 C.ar      1 M4M         0.0483
     16 O6         21.6980    2.3950   57.1670 O.2       1 M4M        -0.1521
     17 C7         25.6090    3.0030   67.5320 C.2       1 M4M         0.1568
     18 O7         24.6460    5.0120   64.0050 O.2       1 M4M        -0.3701
     19 C8         25.4940    2.1730   66.3090 C.ar      1 M4M         0.0609
     20 O8         22.9930    0.3690   56.9190 O.2       1 M4M        -0.1521
     21 C9         25.6920    0.6910   66.3300 C.ar      1 M4M         0.0718
     22 C10        25.5900   -0.1000   65.1800 C.ar      1 M4M         0.0713
     23 C11        25.2610    0.5700   63.9840 C.ar      1 M4M        -0.0163
     24 C12        25.0510    1.9620   63.8710 C.ar      1 M4M         0.0730
     25 C13        24.1790    2.1190   61.5880 C.ar      1 M4M         0.0575
     26 C14        23.4860    3.0950   60.8640 C.ar      1 M4M        -0.0382
     27 C15        22.8270    2.7750   59.6870 C.ar      1 M4M        -0.0459
     28 C16        22.8720    1.4490   59.2220 C.ar      1 M4M         0.0954
     29 C17        23.5830    0.4580   59.9550 C.ar      1 M4M        -0.0459
     30 C18        24.2490    0.7870   61.1530 C.ar      1 M4M        -0.0382
     31 C19        25.1690    2.8560   65.0520 C.ar      1 M4M         0.0626
     32 C20        24.9270    4.3520   65.0520 C.2       1 M4M         0.1575
     33 H1         26.0590    0.7212   68.3467 H         1 M4M         0.1716
     34 H2         26.1378   -0.8816   67.5672 H         1 M4M         0.1716
     35 H3         24.5489    6.9948   65.3642 H         1 M4M         0.0681
     36 H4         25.0222    3.5872   62.6719 H         1 M4M         0.2075
     37 H5         24.6345    8.3163   67.4532 H         1 M4M         0.0663
     38 H6         20.1560    0.6543   58.7301 H         1 M4M         0.1633
     39 H7         20.7642   -0.6051   57.7082 H         1 M4M         0.1633
     40 H8         25.3132    7.2196   69.5909 H         1 M4M         0.0663
     41 H9         25.7419    4.7675   69.6166 H         1 M4M         0.0681
     42 H10        25.1619   -0.0273   63.0848 H         1 M4M         0.0576
     43 H11        23.4640    4.1157   61.2284 H         1 M4M         0.0529
     44 H12        22.2860    3.5346   59.1344 H         1 M4M         0.0604
     45 H13        23.6128   -0.5615   59.5879 H         1 M4M         0.0604
     46 H14        24.7946    0.0391   61.7169 H         1 M4M         0.0529
@<TRIPOS>BOND
     1    1    5 ar 
     2   15    1 ar 
     3    1   32 1  
     4   21    2 1  
     5   17    3 2  
     6    4    7 ar 
     7    4   11 ar 
     8    4   13 ar 
     9   22    4 1  
    10    5    9 ar 
    11    6   24 1  
    12   25    6 1  
    13    8   10 am 
    14    8   16 2  
    15    8   20 2  
    16   28    8 1  
    17   12    9 ar 
    18   14   12 ar 
    19   15   14 ar 
    20   17   15 1  
    21   19   17 1  
    22   32   18 2  
    23   19   21 ar 
    24   31   19 ar 
    25   22   21 ar 
    26   23   22 ar 
    27   24   23 ar 
    28   24   31 ar 
    29   26   25 ar 
    30   25   30 ar 
    31   27   26 ar 
    32   27   28 ar 
    33   28   29 ar 
    34   29   30 ar 
    35   31   32 1  
    36    2   33 1  
    37    2   34 1  
    38    5   35 1  
    39    6   36 1  
    40    9   37 1  
    41   10   38 1  
    42   10   39 1  
    43   12   40 1  
    44   14   41 1  
    45   23   42 1  
    46   26   43 1  
    47   27   44 1  
    48   29   45 1  
    49   30   46 1  
@<TRIPOS>SUBSTRUCTURE
     1 M4M         1

