### 
### Created by X-TOOL on Mon Sep 10 21:13:09 2018
### 

@<TRIPOS>MOLECULE
3vi7_ligand
   70    75     1     0     0
SMALL
GAST_HUCK


@<TRIPOS>ATOM
      1 C1         10.4760    2.3430   74.0600 C.ar      1 CBD         0.0581
      2 SA         11.0280    2.0690   72.5560 S.o2      1 CBD        -0.1714
      3 O1A        10.3580    3.0120   71.6350 O.co2     1 CBD        -0.4825
      4 O2A        10.6100    0.6640   72.2320 O.co2     1 CBD        -0.4825
      5 O3A        12.5180    2.2300   72.4290 O.co2     1 CBD        -0.4825
      6 C2          9.1270    2.1510   74.3780 C.ar      1 CBD         0.0598
      7 N2          8.2910    1.7330   73.3890 N.pl3     1 CBD        -0.3385
      8 C3          8.6570    2.3810   75.7020 C.ar      1 CBD         0.0490
      9 C4          7.3120    2.1900   76.0590 C.2       1 CBD         0.1382
     10 O4          6.4920    1.8140   75.1960 O.2       1 CBD        -0.3892
     11 C5          6.8720    2.4180   77.3680 C.ar      1 CBD         0.0358
     12 C6          5.5430    2.2270   77.7190 C.ar      1 CBD        -0.0497
     13 C7          5.0930    2.4580   79.0260 C.ar      1 CBD        -0.0626
     14 C8          5.9570    2.8940   80.0070 C.ar      1 CBD        -0.0635
     15 C9          7.2850    3.0790   79.6350 C.ar      1 CBD        -0.0495
     16 C10         7.7600    2.8450   78.3410 C.ar      1 CBD         0.0155
     17 C11         9.1030    3.0420   78.0070 C.3       1 CBD         0.1256
     18 O11         9.9980    3.4610   78.9430 O.3       1 CBD        -0.3660
     19 C12         9.5460    2.8040   76.7010 C.ar      1 CBD         0.0305
     20 C13        10.8810    2.9910   76.3820 C.ar      1 CBD         0.0589
     21 C14        11.3340    2.7630   75.0810 C.ar      1 CBD        -0.0304
     22 NB         11.7280    3.4080   77.3370 N.pl3     1 CBD        -0.2896
     23 CB1        14.9580    2.4430   76.0500 C.ar      1 CBD         0.0656
     24 SB         15.5270    1.2870   75.0840 S.o2      1 CBD        -0.1680
     25 O1B        14.9150   -0.0080   75.4680 O.co2     1 CBD        -0.4815
     26 O2B        15.1370    1.6430   73.6880 O.co2     1 CBD        -0.4815
     27 O3B        17.0040    1.1100   75.1940 O.co2     1 CBD        -0.4815
     28 CB2        15.7590    3.4170   76.6460 C.ar      1 CBD         0.0777
     29 CB3        15.2090    4.3890   77.4800 C.ar      1 CBD        -0.0455
     30 CB4        13.8390    4.3940   77.7080 C.ar      1 CBD        -0.0488
     31 CB5        13.0430    3.4230   77.1170 C.ar      1 CBD         0.0455
     32 CB6        13.5950    2.4590   76.2930 C.ar      1 CBD        -0.0272
     33 NC         17.0850    3.3790   76.4210 N.pl3     1 CBD        -0.2441
     34 NC1        18.1890    4.9530   75.1260 N.ar      1 CBD        -0.2253
     35 CC2        19.0330    6.0030   75.0430 C.ar      1 CBD         0.1809
     36 CL         19.3970    6.6900   73.4270 Cl        1 CBD        -0.0062
     37 NC3        19.5910    6.5300   76.1660 N.ar      1 CBD        -0.2248
     38 CC4        19.3110    6.0010   77.3900 C.ar      1 CBD         0.2050
     39 NC5        18.4610    4.9450   77.4700 N.ar      1 CBD        -0.2147
     40 CC6        17.9040    4.4380   76.3430 C.ar      1 CBD         0.2028
     41 ND         19.8760    6.5240   78.5130 N.pl3     1 CBD        -0.2374
     42 CD1        18.6050    6.8660   80.5350 C.ar      1 CBD         0.0752
     43 SD         17.9620    8.2600   79.9910 S.o2      1 CBD        -0.1655
     44 O1D        17.0770    7.9810   78.8270 O.co2     1 CBD        -0.4813
     45 O2D        19.0410    9.1790   79.5330 O.co2     1 CBD        -0.4813
     46 O3D        17.1680    8.9570   81.0400 O.co2     1 CBD        -0.4813
     47 CD2        19.5130    6.1100   79.7580 C.ar      1 CBD         0.0895
     48 CD3        20.0630    4.9100   80.2510 C.ar      1 CBD        -0.0357
     49 CD4        19.7160    4.4400   81.5170 C.ar      1 CBD        -0.0709
     50 CD5        18.8200    5.1820   82.2920 C.ar      1 CBD        -0.0713
     51 CD6        18.2680    6.3780   81.8100 C.ar      1 CBD        -0.0491
     52 H           8.6537    1.5694   72.4498 H         1 CBD         0.1711
     53 H           7.3016    1.5833   73.5869 H         1 CBD         0.1711
     54 H           4.8343    1.8903   76.9623 H         1 CBD         0.0651
     55 H           4.0440    2.2903   79.2702 H         1 CBD         0.0575
     56 H           5.6167    3.0847   81.0248 H         1 CBD         0.0637
     57 H           7.9908    3.4238   80.3907 H         1 CBD         0.0574
     58 H           8.1477    3.2685   78.4804 H         1 CBD         0.0935
     59 H          10.0341    2.8218   79.6583 H         1 CBD         0.2166
     60 H          12.3890    2.9172   74.8544 H         1 CBD         0.0532
     61 H          11.3624    3.7158   78.2381 H         1 CBD         0.2000
     62 H          15.8477    5.1377   77.9486 H         1 CBD         0.0512
     63 H          13.3920    5.1556   78.3469 H         1 CBD         0.0500
     64 H          12.9535    1.7077   75.8324 H         1 CBD         0.0518
     65 H          17.5068    2.4584   76.2983 H         1 CBD         0.2182
     66 H          20.5907    7.2456   78.4189 H         1 CBD         0.2212
     67 H          20.7651    4.3449   79.6380 H         1 CBD         0.0540
     68 H          20.1367    3.5088   81.8964 H         1 CBD         0.0588
     69 H          18.5463    4.8260   83.2852 H         1 CBD         0.0523
     70 H          17.5685    6.9365   82.4320 H         1 CBD         0.0606
@<TRIPOS>BOND
     1    1    2 1  
     2    1    6 ar 
     3   21    1 ar 
     4    2    3 ar 
     5    2    4 ar 
     6    2    5 ar 
     7    6    7 1  
     8    8    6 ar 
     9    8    9 1  
    10   19    8 ar 
    11    9   10 2  
    12    9   11 1  
    13   11   12 ar 
    14   16   11 ar 
    15   12   13 ar 
    16   14   13 ar 
    17   15   14 ar 
    18   16   15 ar 
    19   17   16 1  
    20   17   18 1  
    21   19   17 1  
    22   20   19 ar 
    23   20   21 ar 
    24   22   20 1  
    25   31   22 1  
    26   23   24 1  
    27   28   23 ar 
    28   23   32 ar 
    29   24   25 ar 
    30   24   26 ar 
    31   24   27 ar 
    32   28   29 ar 
    33   33   28 1  
    34   29   30 ar 
    35   30   31 ar 
    36   32   31 ar 
    37   40   33 1  
    38   35   34 ar 
    39   40   34 ar 
    40   35   36 1  
    41   37   35 ar 
    42   38   37 ar 
    43   38   39 ar 
    44   41   38 1  
    45   39   40 ar 
    46   47   41 1  
    47   42   43 1  
    48   42   47 ar 
    49   42   51 ar 
    50   43   44 ar 
    51   43   45 ar 
    52   43   46 ar 
    53   47   48 ar 
    54   48   49 ar 
    55   49   50 ar 
    56   50   51 ar 
    57    7   52 1  
    58    7   53 1  
    59   12   54 1  
    60   13   55 1  
    61   14   56 1  
    62   15   57 1  
    63   17   58 1  
    64   18   59 1  
    65   21   60 1  
    66   22   61 1  
    67   29   62 1  
    68   30   63 1  
    69   32   64 1  
    70   33   65 1  
    71   41   66 1  
    72   48   67 1  
    73   49   68 1  
    74   50   69 1  
    75   51   70 1  
@<TRIPOS>SUBSTRUCTURE
     1 CBD         1

