### 
### Created by X-TOOL on Mon Sep 10 21:13:11 2018
### 

@<TRIPOS>MOLECULE
3vid_ligand
   30    33     1     0     0
SMALL
GAST_HUCK


@<TRIPOS>ATOM
      1 C5         -1.3620   19.9310  -28.5670 C.ar      1 4TT        -0.0179
      2 C6         -0.1970   17.7050  -29.1820 C.3       1 4TT        -0.0320
      3 C7         -2.2100   16.6350  -31.3580 C.2       1 4TT        -0.0231
      4 C10        -0.4890   20.4680  -27.6210 C.ar      1 4TT        -0.0739
      5 C13        -3.0710   16.0200  -32.2650 C.2       1 4TT        -0.0024
      6 C15        -2.8150   21.8490  -28.3520 C.ar      1 4TT        -0.0443
      7 C17        -1.9530   22.3900  -27.3970 C.ar      1 4TT        -0.0769
      8 N4         -3.1710   19.8810  -29.8720 N.pl3     1 4TT        -0.2819
      9 C9         -2.5240   20.6150  -28.9460 C.ar      1 4TT         0.0601
     10 C16        -0.7940   21.6980  -27.0280 C.ar      1 4TT        -0.0792
     11 C1         -2.4310   18.7850  -30.0720 C.2       1 4TT         0.0832
     12 C3         -2.8660   17.8170  -30.9880 C.2       1 4TT         0.1007
     13 N8         -4.0590   17.9710  -31.5940 N.pl3     1 4TT        -0.2243
     14 N14        -4.1510   16.8190  -32.3890 N.2       1 4TT        -0.2276
     15 C2         -1.2860   18.7420  -29.2780 C.2       1 4TT        -0.0327
     16 C11         0.1100   17.1470  -30.5570 C.3       1 4TT        -0.0425
     17 C12        -0.8870   16.0590  -30.9160 C.3       1 4TT        -0.0307
     18 H1         -0.5283   16.8887  -28.5233 H         1 4TT         0.0366
     19 H2          0.7103   18.1670  -28.7655 H         1 4TT         0.0366
     20 H3          0.4163   19.9379  -27.3481 H         1 4TT         0.0539
     21 H4         -2.9037   15.0735  -32.7769 H         1 4TT         0.0630
     22 H5         -3.7131   22.3861  -28.6349 H         1 4TT         0.0536
     23 H6         -2.1813   23.3465  -26.9409 H         1 4TT         0.0530
     24 H7         -4.0603   20.1173  -30.3348 H         1 4TT         0.2178
     25 H8         -0.1302   22.1164  -26.2801 H         1 4TT         0.0510
     26 H9         -4.7350   18.7422  -31.4977 H         1 4TT         0.2479
     27 H10         1.1255   16.7243  -30.5592 H         1 4TT         0.0297
     28 H11         0.0480   17.9561  -31.2997 H         1 4TT         0.0297
     29 H12        -0.4720   15.4516  -31.7338 H         1 4TT         0.0364
     30 H13        -1.0525   15.4227  -30.0341 H         1 4TT         0.0364
@<TRIPOS>BOND
     1    1    4 ar 
     2    9    1 ar 
     3    1   15 1  
     4   15    2 1  
     5    2   16 1  
     6    3    5 1  
     7   12    3 2  
     8    3   17 1  
     9    4   10 ar 
    10    5   14 2  
    11    6    7 ar 
    12    9    6 ar 
    13    7   10 ar 
    14    8    9 1  
    15   11    8 1  
    16   11   12 1  
    17   11   15 2  
    18   12   13 1  
    19   13   14 1  
    20   16   17 1  
    21    2   18 1  
    22    2   19 1  
    23    4   20 1  
    24    5   21 1  
    25    6   22 1  
    26    7   23 1  
    27    8   24 1  
    28   10   25 1  
    29   13   26 1  
    30   16   27 1  
    31   16   28 1  
    32   17   29 1  
    33   17   30 1  
@<TRIPOS>SUBSTRUCTURE
     1 4TT         1

