### 
### Created by X-TOOL on Mon Sep 10 21:13:08 2018
### 

@<TRIPOS>MOLECULE
3vjc_ligand
   92    94     1     0     0
SMALL
GAST_HUCK


@<TRIPOS>ATOM
      1 CAA        15.7190   65.0890   51.9800 C.2       1 ZGA        -0.1262
      2 CAB        14.2120   52.1260   54.0460 C.3       1 ZGA        -0.0650
      3 CAC        12.1350   65.8550   49.5260 C.3       1 ZGA         0.0374
      4 CAD        19.5350   53.4300   50.7880 C.3       1 ZGA        -0.0487
      5 CAE        14.9990   53.8410   51.5800 C.3       1 ZGA        -0.0622
      6 CAF        17.2520   64.8110   48.8050 C.3       1 ZGA        -0.0557
      7 OAG        12.7620   63.8630   50.7180 O.2       1 ZGA        -0.3705
      8 OAH        18.7320   56.7470   54.3970 O.2       1 ZGA        -0.3745
      9 OAI        18.7920   63.1290   57.5370 O.co2     1 ZGA        -0.5663
     10 OAJ        20.3410   58.7270   56.2600 O.co2     1 ZGA        -0.5449
     11 OAK        21.2470   59.0500   53.2180 O.co2     1 ZGA        -0.5450
     12 OAL        20.0280   61.4140   58.0960 O.co2     1 ZGA        -0.5663
     13 OAM        22.0160   60.1040   56.0020 O.co2     1 ZGA        -0.5449
     14 OAN        20.6930   60.5370   51.7290 O.co2     1 ZGA        -0.5450
     15 OAO        16.1700   60.0230   55.1360 O.3       1 ZGA        -0.3835
     16 OAP        20.7520   61.9630   54.9020 O.3       1 ZGA        -0.3788
     17 CAQ        18.1600   56.1490   52.1670 C.2       1 ZGA         0.0095
     18 CAR        18.4010   54.8610   52.3690 C.2       1 ZGA        -0.0550
     19 CAS        18.5760   61.5280   44.7620 C.ar      1 ZGA        -0.0687
     20 CAT        18.1010   62.8350   44.6490 C.ar      1 ZGA        -0.0686
     21 CAU        18.1380   60.7250   45.8130 C.ar      1 ZGA        -0.0686
     22 CAV        17.2240   63.3360   45.6050 C.ar      1 ZGA        -0.0603
     23 CAW        17.2630   61.2240   46.7830 C.ar      1 ZGA        -0.0603
     24 CAX        15.3540   51.8370   53.0880 C.3       1 ZGA        -0.0531
     25 CAY        16.2240   62.5930   52.0680 C.3       1 ZGA        -0.0103
     26 CAZ        16.6700   62.8430   53.4950 C.3       1 ZGA         0.0160
     27 CBA        15.8190   63.1270   47.6590 C.3       1 ZGA        -0.0117
     28 CBB        17.2890   52.7250   51.7480 C.3       1 ZGA        -0.0343
     29 OBC        14.4630   64.7800   49.5380 O.3       1 ZGA        -0.2572
     30 OBD        18.1600   58.4850   52.9320 O.3       1 ZGA        -0.2747
     31 OBE        17.9110   62.1480   55.3740 O.3       1 ZGA        -0.3261
     32 OBF        18.7220   61.5400   53.2970 O.3       1 ZGA        -0.3301
     33 CBG        13.0830   64.7800   49.9870 C.2       1 ZGA         0.2333
     34 CBH        18.3880   57.0970   53.2710 C.2       1 ZGA         0.2336
     35 CBI        15.7490   63.8770   51.3840 C.2       1 ZGA        -0.0398
     36 CBJ        19.2290   61.9780   57.3180 C.2       1 ZGA         0.0659
     37 CBK        20.8110   59.8110   55.8530 C.2       1 ZGA         0.0828
     38 CBL        20.5040   59.9770   52.8400 C.2       1 ZGA         0.0820
     39 CBM        16.8060   62.5350   46.6710 C.ar      1 ZGA        -0.0425
     40 CBN        18.1520   53.8840   51.2480 C.3       1 ZGA        -0.0052
     41 CBO        15.9870   53.0860   52.4710 C.3       1 ZGA        -0.0414
     42 CBP        16.4360   63.5300   48.9930 C.3       1 ZGA         0.0087
     43 CBQ        16.9840   60.2980   53.9980 C.3       1 ZGA         0.1414
     44 CBR        15.2770   63.6870   49.9720 C.3       1 ZGA         0.1268
     45 CBS        18.7750   61.2570   56.0790 C.3       1 ZGA         0.1499
     46 CBT        18.2400   59.4210   53.9980 C.3       1 ZGA         0.1526
     47 CBU        19.9270   60.8260   55.1660 C.3       1 ZGA         0.1847
     48 CBV        17.5330   61.7240   54.0580 C.3       1 ZGA         0.2032
     49 CBW        19.4030   60.3960   53.7940 C.3       1 ZGA         0.1864
     50 H1         16.0673   65.2001   53.0058 H         1 ZGA         0.0076
     51 H2         15.3465   65.9549   51.4347 H         1 ZGA         0.0076
     52 H3         13.8166   51.1788   54.4416 H         1 ZGA         0.0230
     53 H4         13.4132   52.6626   53.5131 H         1 ZGA         0.0230
     54 H5         14.5788   52.7459   54.8774 H         1 ZGA         0.0230
     55 H6         11.1434   65.6847   49.9706 H         1 ZGA         0.0483
     56 H7         12.0547   65.8275   48.4293 H         1 ZGA         0.0483
     57 H8         12.5142   66.8382   49.8414 H         1 ZGA         0.0483
     58 H9         20.1100   54.3009   50.4403 H         1 ZGA         0.0263
     59 H10        19.4290   52.7083   49.9647 H         1 ZGA         0.0263
     60 H11        20.0627   52.9538   51.6275 H         1 ZGA         0.0263
     61 H12        14.0890   54.0704   52.1539 H         1 ZGA         0.0232
     62 H13        14.7377   53.2178   50.7121 H         1 ZGA         0.0232
     63 H14        15.4597   54.7778   51.2334 H         1 ZGA         0.0232
     64 H15        18.0667   64.6251   48.0896 H         1 ZGA         0.0237
     65 H16        17.6763   65.1207   49.7715 H         1 ZGA         0.0237
     66 H17        16.5996   65.6080   48.4187 H         1 ZGA         0.0237
     67 H18        16.6650   60.1981   55.9278 H         1 ZGA         0.2101
     68 H19        20.2368   62.6326   54.4677 H         1 ZGA         0.2091
     69 H20        17.7996   56.5001   51.2012 H         1 ZGA         0.0484
     70 H21        18.7737   54.5135   53.3314 H         1 ZGA         0.0857
     71 H22        19.2816   61.1396   44.0365 H         1 ZGA         0.0559
     72 H23        18.4144   63.4578   43.8190 H         1 ZGA         0.0599
     73 H24        18.4804   59.6987   45.8797 H         1 ZGA         0.0599
     74 H25        16.8623   64.3546   45.5227 H         1 ZGA         0.0557
     75 H26        16.9450   60.5996   47.6101 H         1 ZGA         0.0557
     76 H27        14.9692   51.2068   52.2727 H         1 ZGA         0.0265
     77 H28        16.1347   51.2901   53.6370 H         1 ZGA         0.0265
     78 H29        15.3970   61.8678   52.0760 H         1 ZGA         0.0462
     79 H30        17.0693   62.1790   51.4988 H         1 ZGA         0.0462
     80 H31        15.7761   62.9470   54.1275 H         1 ZGA         0.0344
     81 H32        17.2489   63.7780   53.5216 H         1 ZGA         0.0344
     82 H33        15.0352   62.3801   47.8531 H         1 ZGA         0.0431
     83 H34        15.3687   64.0211   47.2031 H         1 ZGA         0.0431
     84 H35        17.9010   52.1321   52.4437 H         1 ZGA         0.0301
     85 H36        17.0241   52.1088   50.8761 H         1 ZGA         0.0301
     86 H37        17.6303   54.3824   50.4177 H         1 ZGA         0.0523
     87 H38        16.2523   53.7618   53.2974 H         1 ZGA         0.0300
     88 H39        17.1072   62.7361   49.3526 H         1 ZGA         0.0376
     89 H40        16.3974   60.1417   53.0807 H         1 ZGA         0.0677
     90 H41        14.6721   62.7688   49.9420 H         1 ZGA         0.0853
     91 H42        18.2153   60.3579   56.3763 H         1 ZGA         0.0788
     92 H43        18.3469   58.8867   54.9535 H         1 ZGA         0.0695
@<TRIPOS>BOND
     1   35    1 2  
     2   24    2 1  
     3   33    3 1  
     4   40    4 1  
     5   41    5 1  
     6   42    6 1  
     7   33    7 2  
     8   34    8 2  
     9   36    9 ar 
    10   37   10 ar 
    11   38   11 ar 
    12   36   12 ar 
    13   37   13 ar 
    14   38   14 ar 
    15   43   15 1  
    16   47   16 1  
    17   17   18 2  
    18   34   17 1  
    19   18   40 1  
    20   20   19 ar 
    21   21   19 ar 
    22   22   20 ar 
    23   23   21 ar 
    24   39   22 ar 
    25   39   23 ar 
    26   41   24 1  
    27   26   25 1  
    28   25   35 1  
    29   48   26 1  
    30   27   39 1  
    31   42   27 1  
    32   40   28 1  
    33   28   41 1  
    34   29   33 1  
    35   44   29 1  
    36   30   34 1  
    37   46   30 1  
    38   45   31 1  
    39   31   48 1  
    40   48   32 1  
    41   32   49 1  
    42   35   44 1  
    43   45   36 1  
    44   47   37 1  
    45   49   38 1  
    46   44   42 1  
    47   43   46 1  
    48   48   43 1  
    49   45   47 1  
    50   46   49 1  
    51   47   49 1  
    52    1   50 1  
    53    1   51 1  
    54    2   52 1  
    55    2   53 1  
    56    2   54 1  
    57    3   55 1  
    58    3   56 1  
    59    3   57 1  
    60    4   58 1  
    61    4   59 1  
    62    4   60 1  
    63    5   61 1  
    64    5   62 1  
    65    5   63 1  
    66    6   64 1  
    67    6   65 1  
    68    6   66 1  
    69   15   67 1  
    70   16   68 1  
    71   17   69 1  
    72   18   70 1  
    73   19   71 1  
    74   20   72 1  
    75   21   73 1  
    76   22   74 1  
    77   23   75 1  
    78   24   76 1  
    79   24   77 1  
    80   25   78 1  
    81   25   79 1  
    82   26   80 1  
    83   26   81 1  
    84   27   82 1  
    85   27   83 1  
    86   28   84 1  
    87   28   85 1  
    88   40   86 1  
    89   41   87 1  
    90   42   88 1  
    91   43   89 1  
    92   44   90 1  
    93   45   91 1  
    94   46   92 1  
@<TRIPOS>SUBSTRUCTURE
     1 ZGA         1

