### 
### Created by X-TOOL on Mon Sep 10 21:13:11 2018
### 

@<TRIPOS>MOLECULE
3vje_ligand
   92    94     1     0     0
SMALL
GAST_HUCK


@<TRIPOS>ATOM
      1 CAA        27.5770   -7.8390    8.8300 C.2       1 ZGA        -0.1262
      2 CAB        16.6680  -15.5630   11.0370 C.3       1 ZGA        -0.0650
      3 CAC        29.8080  -10.2480    6.1330 C.3       1 ZGA         0.0374
      4 CAD        15.6450  -12.0390    6.9840 C.3       1 ZGA        -0.0487
      5 CAE        17.1450  -14.8620    8.5410 C.3       1 ZGA        -0.0622
      6 CAF        27.3190  -10.7810   10.7770 C.3       1 ZGA        -0.0557
      7 OAG        27.5750   -9.3910    6.0060 O.2       1 ZGA        -0.3705
      8 OAH        18.4790   -7.9190    8.0930 O.2       1 ZGA        -0.3745
      9 OAI        21.6910   -2.9470   11.0110 O.co2     1 ZGA        -0.5663
     10 OAJ        19.2220   -5.4980   10.3800 O.co2     1 ZGA        -0.5449
     11 OAK        21.7580   -9.1910   12.1950 O.co2     1 ZGA        -0.5450
     12 OAL        23.7760   -3.6080   10.8370 O.co2     1 ZGA        -0.5663
     13 OAM        19.6550   -5.3670   12.5230 O.co2     1 ZGA        -0.5449
     14 OAN        19.7190   -8.4430   11.9140 O.co2     1 ZGA        -0.5450
     15 OAO        21.9070   -6.5970    7.2000 O.3       1 ZGA        -0.3835
     16 OAP        22.1130   -5.8900   12.3430 O.3       1 ZGA        -0.3788
     17 CAQ        18.1600  -10.1700    8.7260 C.2       1 ZGA         0.0095
     18 CAR        16.9540  -10.2800    8.1680 C.2       1 ZGA        -0.0550
     19 CAS        25.1300  -15.6750   11.5770 C.ar      1 ZGA        -0.0687
     20 CAT        26.5090  -15.5000   11.4570 C.ar      1 ZGA        -0.0686
     21 CAU        24.2690  -14.8340   10.8740 C.ar      1 ZGA        -0.0686
     22 CAV        27.0160  -14.4990   10.6320 C.ar      1 ZGA        -0.0603
     23 CAW        24.7800  -13.8350   10.0360 C.ar      1 ZGA        -0.0603
     24 CAX        15.8810  -14.3260   10.6670 C.3       1 ZGA        -0.0531
     25 CAY        25.2950   -8.3780    9.5010 C.3       1 ZGA        -0.0103
     26 CAZ        24.4780   -7.5980    8.5030 C.3       1 ZGA         0.0160
     27 CBA        26.7360  -12.5750    9.0230 C.3       1 ZGA        -0.0117
     28 CBB        16.8250  -12.5110    9.2310 C.3       1 ZGA        -0.0343
     29 OBC        28.1290  -10.4330    7.9900 O.3       1 ZGA        -0.2572
     30 OBD        20.3340   -8.9490    9.0490 O.3       1 ZGA        -0.2747
     31 OBE        23.2750   -5.7020    9.4710 O.3       1 ZGA        -0.3261
     32 OBF        22.8620   -7.7210   10.4030 O.3       1 ZGA        -0.3301
     33 CBG        28.4370   -9.9690    6.6510 C.2       1 ZGA         0.2333
     34 CBH        18.9580   -8.9410    8.5710 C.2       1 ZGA         0.2336
     35 CBI        26.6140   -8.7610    8.8630 C.2       1 ZGA        -0.0398
     36 CBJ        22.5500   -3.7900   10.6690 C.2       1 ZGA         0.0659
     37 CBK        20.0080   -5.5910   11.3460 C.2       1 ZGA         0.0828
     38 CBL        20.9380   -8.4360   11.6380 C.2       1 ZGA         0.0820
     39 CBM        26.1580  -13.6520    9.9290 C.ar      1 ZGA        -0.0425
     40 CBN        16.0860  -11.5090    8.3470 C.3       1 ZGA        -0.0052
     41 CBO        16.1990  -13.8970    9.2400 C.3       1 ZGA        -0.0414
     42 CBP        26.5110  -11.1460    9.5250 C.3       1 ZGA         0.0087
     43 CBQ        22.0640   -7.5270    8.2750 C.3       1 ZGA         0.1414
     44 CBR        26.7840  -10.1740    8.3770 C.3       1 ZGA         0.1268
     45 CBS        22.1130   -5.0910   10.0540 C.3       1 ZGA         0.1499
     46 CBT        20.8840   -7.6450    9.2240 C.3       1 ZGA         0.1526
     47 CBU        21.4340   -6.0070   11.0890 C.3       1 ZGA         0.1847
     48 CBV        23.2090   -7.0990    9.1760 C.3       1 ZGA         0.2032
     49 CBW        21.4820   -7.4640   10.6210 C.3       1 ZGA         0.1864
     50 H1         27.3813   -6.8337    9.2002 H         1 ZGA         0.0076
     51 H2         28.5591   -8.0914    8.4329 H         1 ZGA         0.0076
     52 H3         16.4254  -15.8569   12.0689 H         1 ZGA         0.0230
     53 H4         17.7443  -15.3495   10.9600 H         1 ZGA         0.0230
     54 H5         16.4067  -16.3825   10.3514 H         1 ZGA         0.0230
     55 H6         29.9042   -9.8444    5.1143 H         1 ZGA         0.0483
     56 H7         29.9790  -11.3345    6.1146 H         1 ZGA         0.0483
     57 H8         30.5517   -9.7708    6.7881 H         1 ZGA         0.0483
     58 H9         15.1257  -11.2422    6.4313 H         1 ZGA         0.0263
     59 H10        14.9641  -12.8913    7.1248 H         1 ZGA         0.0263
     60 H11        16.5276  -12.3650    6.4142 H         1 ZGA         0.0263
     61 H12        16.7051  -15.8702    8.5396 H         1 ZGA         0.0232
     62 H13        18.1073  -14.8825    9.0735 H         1 ZGA         0.0232
     63 H14        17.3065  -14.5310    7.5045 H         1 ZGA         0.0232
     64 H15        27.0971  -11.5003   11.5791 H         1 ZGA         0.0237
     65 H16        27.0460   -9.7679   11.1072 H         1 ZGA         0.0237
     66 H17        28.3932  -10.8132   10.5425 H         1 ZGA         0.0237
     67 H18        21.7619   -5.7274    7.5537 H         1 ZGA         0.2101
     68 H19        21.6989   -6.4598   12.9804 H         1 ZGA         0.2091
     69 H20        18.5611  -11.0007    9.3048 H         1 ZGA         0.0484
     70 H21        16.5793   -9.4567    7.5616 H         1 ZGA         0.0857
     71 H22        24.7316  -16.4584   12.2116 H         1 ZGA         0.0559
     72 H23        27.1864  -16.1437   12.0064 H         1 ZGA         0.0599
     73 H24        23.1966  -14.9540   10.9766 H         1 ZGA         0.0599
     74 H25        28.0887  -14.3764   10.5349 H         1 ZGA         0.0557
     75 H26        24.1040  -13.2039    9.4705 H         1 ZGA         0.0557
     76 H27        16.1434  -13.5104   11.3569 H         1 ZGA         0.0265
     77 H28        14.8058  -14.5435   10.7483 H         1 ZGA         0.0265
     78 H29        24.7494   -9.2868    9.7950 H         1 ZGA         0.0462
     79 H30        25.4813   -7.7583   10.3905 H         1 ZGA         0.0462
     80 H31        24.2138   -8.2479    7.6558 H         1 ZGA         0.0344
     81 H32        25.0628   -6.7404    8.1389 H         1 ZGA         0.0344
     82 H33        26.2683  -12.6702    8.0320 H         1 ZGA         0.0431
     83 H34        27.8195  -12.7431    8.9348 H         1 ZGA         0.0431
     84 H35        16.8314  -12.1263   10.2615 H         1 ZGA         0.0301
     85 H36        17.8589  -12.5994    8.8662 H         1 ZGA         0.0301
     86 H37        15.1743  -11.2114    8.8858 H         1 ZGA         0.0523
     87 H38        15.2557  -13.8643    8.6751 H         1 ZGA         0.0300
     88 H39        25.4486  -11.0579    9.7963 H         1 ZGA         0.0376
     89 H40        22.2732   -8.5144    7.8378 H         1 ZGA         0.0677
     90 H41        26.0994  -10.3589    7.5361 H         1 ZGA         0.0853
     91 H42        21.3848   -4.8815    9.2566 H         1 ZGA         0.0788
     92 H43        20.1214   -6.8780    9.0236 H         1 ZGA         0.0695
@<TRIPOS>BOND
     1   35    1 2  
     2   24    2 1  
     3   33    3 1  
     4   40    4 1  
     5   41    5 1  
     6   42    6 1  
     7   33    7 2  
     8   34    8 2  
     9   36    9 ar 
    10   37   10 ar 
    11   38   11 ar 
    12   36   12 ar 
    13   37   13 ar 
    14   38   14 ar 
    15   43   15 1  
    16   47   16 1  
    17   17   18 2  
    18   34   17 1  
    19   18   40 1  
    20   20   19 ar 
    21   21   19 ar 
    22   22   20 ar 
    23   23   21 ar 
    24   39   22 ar 
    25   39   23 ar 
    26   41   24 1  
    27   26   25 1  
    28   25   35 1  
    29   48   26 1  
    30   27   39 1  
    31   42   27 1  
    32   40   28 1  
    33   28   41 1  
    34   29   33 1  
    35   44   29 1  
    36   30   34 1  
    37   46   30 1  
    38   45   31 1  
    39   31   48 1  
    40   48   32 1  
    41   32   49 1  
    42   35   44 1  
    43   45   36 1  
    44   47   37 1  
    45   49   38 1  
    46   44   42 1  
    47   43   46 1  
    48   48   43 1  
    49   45   47 1  
    50   46   49 1  
    51   47   49 1  
    52    1   50 1  
    53    1   51 1  
    54    2   52 1  
    55    2   53 1  
    56    2   54 1  
    57    3   55 1  
    58    3   56 1  
    59    3   57 1  
    60    4   58 1  
    61    4   59 1  
    62    4   60 1  
    63    5   61 1  
    64    5   62 1  
    65    5   63 1  
    66    6   64 1  
    67    6   65 1  
    68    6   66 1  
    69   15   67 1  
    70   16   68 1  
    71   17   69 1  
    72   18   70 1  
    73   19   71 1  
    74   20   72 1  
    75   21   73 1  
    76   22   74 1  
    77   23   75 1  
    78   24   76 1  
    79   24   77 1  
    80   25   78 1  
    81   25   79 1  
    82   26   80 1  
    83   26   81 1  
    84   27   82 1  
    85   27   83 1  
    86   28   84 1  
    87   28   85 1  
    88   40   86 1  
    89   41   87 1  
    90   42   88 1  
    91   43   89 1  
    92   44   90 1  
    93   45   91 1  
    94   46   92 1  
@<TRIPOS>SUBSTRUCTURE
     1 ZGA         1

