### 
### Created by X-TOOL on Mon Sep 10 21:13:11 2018
### 

@<TRIPOS>MOLECULE
3vjk_ligand
   62    66     1     0     0
SMALL
GAST_HUCK


@<TRIPOS>ATOM
      1 C1         47.4140   63.4950   34.8590 C.2       1 M51        -0.0308
      2 C2         46.1380   63.7000   34.2900 C.2       1 M51        -0.0164
      3 N3         46.1830   64.4610   33.1790 N.2       1 M51        -0.2399
      4 N4         47.5520   64.7540   33.0230 N.pl3     1 M51        -0.1549
      5 C5         48.2860   64.2030   34.0170 C.2       1 M51         0.1688
      6 C6         47.8890   65.5280   31.9840 C.ar      1 M51         0.1053
      7 C7         48.8040   66.5880   32.0340 C.ar      1 M51        -0.0280
      8 C8         49.0980   67.3800   30.9250 C.ar      1 M51        -0.0671
      9 C9         48.4430   67.1560   29.7190 C.ar      1 M51        -0.0698
     10 C10        47.5030   66.1340   29.6340 C.ar      1 M51        -0.0671
     11 C11        47.2430   65.3510   30.7540 C.ar      1 M51        -0.0280
     12 C12        44.9470   63.0710   34.9650 C.3       1 M51        -0.0327
     13 N13        49.6700   64.2700   34.2150 N.pl3     1 M51        -0.2701
     14 C14        50.5650   63.9250   33.0970 C.3       1 M51         0.0717
     15 C15        51.8790   64.6990   33.2740 C.3       1 M51        -0.0106
     16 N16        52.4160   64.4870   34.6320 N.4       1 M51         0.2442
     17 C17        51.5260   64.8350   35.7530 C.3       1 M51        -0.0106
     18 C18        50.2000   64.0680   35.5820 C.3       1 M51         0.0717
     19 C19        53.7330   65.1320   34.7730 C.3       1 M51         0.0276
     20 C20        54.6760   64.8000   33.6180 C.3       1 M51         0.0128
     21 N21        55.9850   64.9930   34.2190 N.4       1 M51         0.2502
     22 C22        55.9440   65.1260   35.6740 C.3       1 M51         0.0725
     23 C23        54.5320   64.6540   35.9950 C.3       1 M51         0.0558
     24 C24        57.0390   64.3510   36.3760 C.2       1 M51         0.2279
     25 N25        57.5390   64.8160   37.5160 N.am      1 M51        -0.2580
     26 C26        57.0340   66.0430   38.1590 C.3       1 M51         0.0440
     27 C27        57.8110   66.3710   39.4410 C.3       1 M51         0.0160
     28 S28        58.6030   64.8690   39.8520 S.3       1 M51        -0.1344
     29 C29        58.6270   64.1530   38.2310 C.3       1 M51         0.0798
     30 O30        57.4740   63.3280   35.8710 O.2       1 M51        -0.3906
     31 H1         47.6646   62.9188   35.7485 H         1 M51         0.0152
     32 H2         49.3032   66.8007   32.9724 H         1 M51         0.0575
     33 H3         49.8365   68.1697   31.0028 H         1 M51         0.0597
     34 H4         48.6626   67.7714   28.8540 H         1 M51         0.0549
     35 H5         46.9781   65.9495   28.7037 H         1 M51         0.0597
     36 H6         46.5026   64.5637   30.6705 H         1 M51         0.0575
     37 H7         44.0338   63.3214   34.4053 H         1 M51         0.0376
     38 H8         44.8636   63.4537   35.9929 H         1 M51         0.0376
     39 H9         45.0740   61.9786   34.9896 H         1 M51         0.0376
     40 H10        50.0939   64.2054   32.1434 H         1 M51         0.0574
     41 H11        50.7668   62.8437   33.1023 H         1 M51         0.0574
     42 H12        51.6922   65.7721   33.1206 H         1 M51         0.0835
     43 H13        52.6119   64.3449   32.5341 H         1 M51         0.0835
     44 H14        52.5711   63.4941   34.7104 H         1 M51         0.2040
     45 H15        51.3313   65.9176   35.7498 H         1 M51         0.0835
     46 H16        51.9991   64.5503   36.7044 H         1 M51         0.0835
     47 H17        50.3758   62.9952   35.7495 H         1 M51         0.0574
     48 H18        49.4680   64.4385   36.3148 H         1 M51         0.0574
     49 H19        53.5730   66.2187   34.8318 H         1 M51         0.0908
     50 H20        54.5228   65.4836   32.7700 H         1 M51         0.0871
     51 H21        54.5421   63.7616   33.2808 H         1 M51         0.0871
     52 H22        56.3930   65.8302   33.8334 H         1 M51         0.2037
     53 H23        56.5627   64.2002   33.9872 H         1 M51         0.2037
     54 H24        56.0540   66.1833   35.9569 H         1 M51         0.1101
     55 H25        54.4919   63.5590   36.0922 H         1 M51         0.0403
     56 H26        54.1588   65.1182   36.9198 H         1 M51         0.0403
     57 H27        55.9725   65.9027   38.4112 H         1 M51         0.0531
     58 H28        57.1359   66.8824   37.4555 H         1 M51         0.0531
     59 H29        57.1269   66.6844   40.2433 H         1 M51         0.0397
     60 H30        58.5498   67.1651   39.2580 H         1 M51         0.0397
     61 H31        59.5904   64.3457   37.7362 H         1 M51         0.0638
     62 H32        58.4522   63.0683   38.2836 H         1 M51         0.0638
@<TRIPOS>BOND
     1    1    2 1  
     2    1    5 2  
     3    2    3 2  
     4    2   12 1  
     5    3    4 1  
     6    4    5 1  
     7    4    6 1  
     8    5   13 1  
     9    6    7 ar 
    10    6   11 ar 
    11    7    8 ar 
    12    8    9 ar 
    13    9   10 ar 
    14   10   11 ar 
    15   13   14 1  
    16   13   18 1  
    17   14   15 1  
    18   15   16 1  
    19   16   17 1  
    20   16   19 1  
    21   17   18 1  
    22   19   20 1  
    23   19   23 1  
    24   20   21 1  
    25   21   22 1  
    26   22   23 1  
    27   22   24 1  
    28   24   25 am 
    29   24   30 2  
    30   25   26 1  
    31   25   29 1  
    32   26   27 1  
    33   27   28 1  
    34   28   29 1  
    35    1   31 1  
    36    7   32 1  
    37    8   33 1  
    38    9   34 1  
    39   10   35 1  
    40   11   36 1  
    41   12   37 1  
    42   12   38 1  
    43   12   39 1  
    44   14   40 1  
    45   14   41 1  
    46   15   42 1  
    47   15   43 1  
    48   16   44 1  
    49   17   45 1  
    50   17   46 1  
    51   18   47 1  
    52   18   48 1  
    53   19   49 1  
    54   20   50 1  
    55   20   51 1  
    56   21   52 1  
    57   21   53 1  
    58   22   54 1  
    59   23   55 1  
    60   23   56 1  
    61   26   57 1  
    62   26   58 1  
    63   27   59 1  
    64   27   60 1  
    65   29   61 1  
    66   29   62 1  
@<TRIPOS>SUBSTRUCTURE
     1 M51         1

