### 
### Created by X-TOOL on Mon Sep 10 21:13:09 2018
### 

@<TRIPOS>MOLECULE
3vjl_ligand
   63    67     1     0     0
SMALL
GAST_HUCK


@<TRIPOS>ATOM
      1 C1         48.1160   62.4730   34.7320 C.2       1 W94         0.1088
      2 C2         48.2800   61.1910   35.2670 C.2       1 W94        -0.0257
      3 C3         46.9900   60.6670   35.2180 C.2       1 W94         0.1050
      4 N4         46.0430   61.4730   34.7230 N.2       1 W94        -0.1481
      5 N5         46.8100   62.5920   34.4190 N.pl3     1 W94        -0.1235
      6 C6         46.1870   63.6490   33.9070 C.ar      1 W94         0.1294
      7 C7         44.9720   64.0700   34.4750 C.ar      1 W94        -0.0196
      8 C8         44.2490   65.1660   34.0060 C.ar      1 W94        -0.0625
      9 C9         44.7460   65.8740   32.9180 C.ar      1 W94        -0.0657
     10 C10        45.9500   65.4790   32.3290 C.ar      1 W94        -0.0625
     11 C11        46.6530   64.3790   32.8130 C.ar      1 W94        -0.0196
     12 C12        46.6050   59.2910   35.6730 C.3       1 W94         0.3805
     13 F13        45.3750   59.3620   36.1890 F         1 W94        -0.2209
     14 F14        47.4760   58.8570   36.5820 F         1 W94        -0.2209
     15 F15        46.6050   58.4970   34.6050 F         1 W94        -0.2209
     16 C16        49.3330   63.3470   34.6410 C.3       1 W94         0.0374
     17 C17        50.2120   63.1730   35.8770 C.3       1 W94         0.0044
     18 C18        51.4290   64.1020   35.8460 C.3       1 W94        -0.0290
     19 N19        52.1600   63.8600   34.6010 N.4       1 W94         0.2417
     20 C20        51.4010   64.0330   33.3440 C.3       1 W94        -0.0290
     21 C21        50.1760   63.1060   33.3840 C.3       1 W94         0.0044
     22 C22        53.4300   64.6120   34.6170 C.3       1 W94         0.0274
     23 C23        54.3410   64.2110   35.7880 C.3       1 W94         0.0558
     24 C24        55.7290   64.6790   35.3460 C.3       1 W94         0.0725
     25 N25        55.6550   64.5940   33.8980 N.4       1 W94         0.2502
     26 C26        54.3160   64.3130   33.4090 C.3       1 W94         0.0128
     27 C27        56.8600   63.8620   35.9380 C.2       1 W94         0.2279
     28 N28        57.4120   64.2940   37.0690 N.am      1 W94        -0.2580
     29 C29        56.9320   65.5080   37.7270 C.3       1 W94         0.0440
     30 C30        57.5080   65.6500   39.1110 C.3       1 W94         0.0160
     31 S31        58.5700   64.2740   39.4110 S.3       1 W94        -0.1344
     32 C32        58.5180   63.5970   37.7430 C.3       1 W94         0.0798
     33 O33        57.2630   62.8570   35.3700 O.2       1 W94        -0.3906
     34 H1         49.1911   60.7190   35.6318 H         1 W94         0.0340
     35 H2         44.5779   63.5154   35.3189 H         1 W94         0.0613
     36 H3         43.3192   65.4597   34.4797 H         1 W94         0.0608
     37 H4         44.2028   66.7275   32.5287 H         1 W94         0.0582
     38 H5         46.3413   66.0357   31.4852 H         1 W94         0.0608
     39 H6         47.5785   64.0846   32.3315 H         1 W94         0.0613
     40 H7         48.9847   64.3900   34.6114 H         1 W94         0.0517
     41 H8         50.5610   62.1308   35.9217 H         1 W94         0.0345
     42 H9         49.6150   63.3985   36.7729 H         1 W94         0.0345
     43 H10        52.0803   63.8907   36.7069 H         1 W94         0.0816
     44 H11        51.0979   65.1503   35.8852 H         1 W94         0.0816
     45 H12        52.4102   62.8838   34.6202 H         1 W94         0.2038
     46 H13        52.0378   63.7699   32.4865 H         1 W94         0.0816
     47 H14        51.0724   65.0785   33.2496 H         1 W94         0.0816
     48 H15        49.5556   63.2944   32.4954 H         1 W94         0.0345
     49 H16        50.5180   62.0606   33.3775 H         1 W94         0.0345
     50 H17        53.1950   65.6856   34.6631 H         1 W94         0.0908
     51 H18        54.3251   63.1220   35.9420 H         1 W94         0.0403
     52 H19        54.0335   64.7170   36.7151 H         1 W94         0.0403
     53 H20        55.8802   65.7257   35.6486 H         1 W94         0.1101
     54 H21        56.2701   63.8579   33.5884 H         1 W94         0.2037
     55 H22        55.9601   65.4726   33.5094 H         1 W94         0.2037
     56 H23        54.0608   64.9666   32.5619 H         1 W94         0.0871
     57 H24        54.2215   63.2610   33.1019 H         1 W94         0.0871
     58 H25        55.8352   65.4658   37.7990 H         1 W94         0.0531
     59 H26        57.2268   66.3808   37.1259 H         1 W94         0.0531
     60 H27        56.6958   65.6619   39.8528 H         1 W94         0.0397
     61 H28        58.0823   66.5855   39.1810 H         1 W94         0.0397
     62 H29        59.4673   63.7879   37.2211 H         1 W94         0.0638
     63 H30        58.3278   62.5140   37.7737 H         1 W94         0.0638
@<TRIPOS>BOND
     1    1    2 2  
     2    1    5 1  
     3    1   16 1  
     4    2    3 1  
     5    3    4 2  
     6    3   12 1  
     7    4    5 1  
     8    5    6 1  
     9    6    7 ar 
    10    6   11 ar 
    11    7    8 ar 
    12    8    9 ar 
    13    9   10 ar 
    14   10   11 ar 
    15   12   13 1  
    16   12   14 1  
    17   12   15 1  
    18   16   17 1  
    19   16   21 1  
    20   17   18 1  
    21   18   19 1  
    22   19   20 1  
    23   19   22 1  
    24   20   21 1  
    25   22   23 1  
    26   22   26 1  
    27   23   24 1  
    28   24   25 1  
    29   24   27 1  
    30   25   26 1  
    31   27   28 am 
    32   27   33 2  
    33   28   29 1  
    34   28   32 1  
    35   29   30 1  
    36   30   31 1  
    37   31   32 1  
    38    2   34 1  
    39    7   35 1  
    40    8   36 1  
    41    9   37 1  
    42   10   38 1  
    43   11   39 1  
    44   16   40 1  
    45   17   41 1  
    46   17   42 1  
    47   18   43 1  
    48   18   44 1  
    49   19   45 1  
    50   20   46 1  
    51   20   47 1  
    52   21   48 1  
    53   21   49 1  
    54   22   50 1  
    55   23   51 1  
    56   23   52 1  
    57   24   53 1  
    58   25   54 1  
    59   25   55 1  
    60   26   56 1  
    61   26   57 1  
    62   29   58 1  
    63   29   59 1  
    64   30   60 1  
    65   30   61 1  
    66   32   62 1  
    67   32   63 1  
@<TRIPOS>SUBSTRUCTURE
     1 W94         1

