### 
### Created by X-TOOL on Mon Sep 10 21:13:09 2018
### 

@<TRIPOS>MOLECULE
3vjm_ligand
   60    64     1     0     0
SMALL
GAST_HUCK


@<TRIPOS>ATOM
      1 C1         48.1550   63.4190   34.3670 C.ar      1 W61         0.0878
      2 C2         47.6300   62.4290   35.2160 C.ar      1 W61         0.0010
      3 C3         46.2870   62.0360   35.1020 C.ar      1 W61         0.1016
      4 N4         45.4900   62.5800   34.1590 N.ar      1 W61        -0.2765
      5 C5         45.9480   63.5210   33.3160 C.ar      1 W61         0.0671
      6 C6         47.2810   63.9660   33.3990 C.ar      1 W61         0.0495
      7 C7         47.6970   64.9530   32.5090 C.ar      1 W61        -0.0352
      8 C8         46.8150   65.4780   31.5690 C.ar      1 W61        -0.0488
      9 C9         45.4940   65.0320   31.5000 C.ar      1 W61        -0.0485
     10 C10        45.0620   64.0450   32.3800 C.ar      1 W61        -0.0297
     11 C11        45.6270   60.9790   35.9450 C.3       1 W61         0.3928
     12 N20        49.5550   63.7470   34.4180 N.pl3     1 W61        -0.2832
     13 C21        50.2410   63.5100   35.6970 C.3       1 W61         0.0720
     14 C22        51.5480   64.2990   35.7340 C.3       1 W61        -0.0102
     15 N23        52.3370   63.9850   34.5500 N.4       1 W61         0.2443
     16 C24        51.6530   64.2030   33.2660 C.3       1 W61        -0.0102
     17 C26        53.5990   64.7750   34.5970 C.3       1 W61         0.0276
     18 C27        54.4960   64.4920   33.3810 C.3       1 W61         0.0128
     19 N28        55.8560   64.6600   33.8750 N.4       1 W61         0.2502
     20 C29        55.9120   64.7510   35.3300 C.3       1 W61         0.0725
     21 C30        54.4970   64.3910   35.7830 C.3       1 W61         0.0558
     22 C32        50.3380   63.4170   33.2310 C.3       1 W61         0.0720
     23 C33        56.9850   63.8790   35.9550 C.2       1 W61         0.2279
     24 N46        57.5020   64.2960   37.1190 N.am      1 W61        -0.2580
     25 C47        58.5790   63.6160   37.8510 C.3       1 W61         0.0798
     26 S48        58.5120   64.3150   39.4790 S.3       1 W61        -0.1344
     27 C49        57.7370   65.8090   39.0770 C.3       1 W61         0.0160
     28 C50        56.9930   65.5100   37.7710 C.3       1 W61         0.0440
     29 F52        45.3120   59.9950   35.1300 F         1 W61        -0.2123
     30 F53        46.3840   60.4940   36.9110 F         1 W61        -0.2123
     31 F54        44.5030   61.4660   36.4310 F         1 W61        -0.2123
     32 O57        57.3640   62.8680   35.3650 O.2       1 W61        -0.3906
     33 H1         48.2655   61.9666   35.9626 H         1 W61         0.0667
     34 H2         48.7177   65.3159   32.5487 H         1 W61         0.0683
     35 H3         47.1582   66.2429   30.8818 H         1 W61         0.0695
     36 H4         44.8121   65.4503   30.7685 H         1 W61         0.0676
     37 H5         44.0401   63.6859   32.3367 H         1 W61         0.0695
     38 H6         50.4587   62.4369   35.8018 H         1 W61         0.0579
     39 H7         49.5939   63.8355   36.5248 H         1 W61         0.0579
     40 H8         52.1156   64.0266   36.6360 H         1 W61         0.0835
     41 H9         51.3260   65.3762   35.7518 H         1 W61         0.0835
     42 H10        52.5730   63.0061   34.5970 H         1 W61         0.2040
     43 H11        52.3021   63.8632   32.4455 H         1 W61         0.0835
     44 H12        51.4395   65.2752   33.1447 H         1 W61         0.0835
     45 H13        53.3412   65.8433   34.6445 H         1 W61         0.0908
     46 H14        54.2871   65.2060   32.5708 H         1 W61         0.0871
     47 H15        54.3406   63.4664   33.0151 H         1 W61         0.0871
     48 H16        56.2408   65.5051   33.4828 H         1 W61         0.2037
     49 H17        56.4079   63.8703   33.5786 H         1 W61         0.2037
     50 H18        56.1284   65.7907   35.6167 H         1 W61         0.1101
     51 H19        54.4198   63.3145   35.9956 H         1 W61         0.0403
     52 H20        54.2198   64.9629   36.6808 H         1 W61         0.0403
     53 H21        49.7708   63.6874   32.3282 H         1 W61         0.0579
     54 H22        50.5534   62.3384   33.2194 H         1 W61         0.0579
     55 H23        59.5541   63.8138   37.3820 H         1 W61         0.0638
     56 H24        58.4020   62.5309   37.8854 H         1 W61         0.0638
     57 H25        58.4804   66.6060   38.9283 H         1 W61         0.0397
     58 H26        57.0325   66.1075   39.8672 H         1 W61         0.0397
     59 H27        55.9244   65.3735   37.9932 H         1 W61         0.0531
     60 H28        57.1193   66.3616   37.0863 H         1 W61         0.0531
@<TRIPOS>BOND
     1    1    2 ar 
     2    1    6 ar 
     3    1   12 1  
     4    2    3 ar 
     5    3    4 ar 
     6    3   11 1  
     7    4    5 ar 
     8    5    6 ar 
     9    5   10 ar 
    10    6    7 ar 
    11    7    8 ar 
    12    8    9 ar 
    13    9   10 ar 
    14   11   29 1  
    15   11   30 1  
    16   11   31 1  
    17   12   13 1  
    18   12   22 1  
    19   13   14 1  
    20   14   15 1  
    21   15   16 1  
    22   15   17 1  
    23   16   22 1  
    24   17   18 1  
    25   17   21 1  
    26   18   19 1  
    27   19   20 1  
    28   20   21 1  
    29   20   23 1  
    30   23   24 am 
    31   23   32 2  
    32   24   25 1  
    33   24   28 1  
    34   25   26 1  
    35   26   27 1  
    36   27   28 1  
    37    2   33 1  
    38    7   34 1  
    39    8   35 1  
    40    9   36 1  
    41   10   37 1  
    42   13   38 1  
    43   13   39 1  
    44   14   40 1  
    45   14   41 1  
    46   15   42 1  
    47   16   43 1  
    48   16   44 1  
    49   17   45 1  
    50   18   46 1  
    51   18   47 1  
    52   19   48 1  
    53   19   49 1  
    54   20   50 1  
    55   21   51 1  
    56   21   52 1  
    57   22   53 1  
    58   22   54 1  
    59   25   55 1  
    60   25   56 1  
    61   27   57 1  
    62   27   58 1  
    63   28   59 1  
    64   28   60 1  
@<TRIPOS>SUBSTRUCTURE
     1 W61         1

