### 
### Created by X-TOOL on Mon Sep 10 21:13:08 2018
### 

@<TRIPOS>MOLECULE
3vnt_ligand
   57    62     1     0     0
SMALL
GAST_HUCK


@<TRIPOS>ATOM
      1 F1         31.0880  -30.6230  -12.4610 F         1 0JA        -0.2020
      2 C2         29.7600  -30.3580  -12.4370 C.ar      1 0JA         0.1405
      3 C3         29.1420  -30.0000  -11.2610 C.ar      1 0JA        -0.0486
      4 C4         27.7880  -29.7370  -11.2490 C.ar      1 0JA        -0.0449
      5 C5         27.0730  -29.8370  -12.4220 C.ar      1 0JA         0.1011
      6 O6         25.6930  -29.6300  -12.4240 O.3       1 0JA        -0.2517
      7 C7         25.1260  -28.3910  -12.2010 C.ar      1 0JA         0.1739
      8 C8         25.8380  -27.2260  -12.3550 C.ar      1 0JA        -0.0134
      9 C9         25.2100  -26.0180  -12.1210 C.ar      1 0JA        -0.0513
     10 C10        23.8780  -26.0640  -11.7530 C.ar      1 0JA         0.0237
     11 N11        23.0500  -25.0050  -11.4760 N.2       1 0JA        -0.3086
     12 C12        21.8430  -25.4370  -11.1710 C.2       1 0JA         0.2125
     13 N13        20.8000  -24.5850  -10.8450 N.am      1 0JA        -0.1895
     14 C14        19.5900  -25.0440  -10.3930 C.2       1 0JA         0.2207
     15 O15        19.2530  -26.2090  -10.2410 O.2       1 0JA        -0.3784
     16 C16        18.6640  -23.9440  -10.0780 C.3       1 0JA         0.0575
     17 C17        17.1860  -24.1460  -10.2660 C.3       1 0JA        -0.0301
     18 C18        17.7490  -24.0250   -8.8860 C.3       1 0JA        -0.0301
     19 S19        21.6080  -27.1490  -11.1940 S.3       1 0JA         0.0448
     20 C20        23.2640  -27.2950  -11.6430 C.ar      1 0JA         0.1069
     21 N21        23.8380  -28.4750  -11.8590 N.ar      1 0JA        -0.2660
     22 C22        27.6930  -30.2040  -13.6030 C.ar      1 0JA        -0.0098
     23 C23        29.0510  -30.4510  -13.6060 C.ar      1 0JA         0.0922
     24 N24        29.7810  -30.8370  -14.7430 N.am      1 0JA        -0.2341
     25 C25        29.4170  -30.4630  -16.0070 C.2       1 0JA         0.2386
     26 O26        28.4320  -29.7900  -16.2820 O.2       1 0JA        -0.3728
     27 C27        30.1950  -31.0370  -17.1270 C.ar      1 0JA         0.0988
     28 C28        30.5090  -32.3740  -17.0630 C.ar      1 0JA        -0.0140
     29 C29        31.2010  -32.9490  -18.1070 C.ar      1 0JA        -0.0276
     30 C30        31.5450  -32.1990  -19.2080 C.ar      1 0JA        -0.0337
     31 C31        31.2310  -30.8580  -19.2950 C.ar      1 0JA        -0.0027
     32 C32        30.5510  -30.2850  -18.2330 C.ar      1 0JA         0.0891
     33 CL3        30.1650  -28.6030  -18.3180 Cl        1 0JA        -0.0354
     34 C34        31.6170  -30.0800  -20.4950 C.3       1 0JA         0.0849
     35 C35        31.5710  -30.7850  -21.8250 C.3       1 0JA        -0.0529
     36 C36        30.4960  -29.8070  -21.4710 C.3       1 0JA        -0.0529
     37 C37        32.5800  -29.0410  -20.4090 C.1       1 0JA         0.0563
     38 N38        33.3740  -28.2030  -20.3270 N.1       1 0JA        -0.3141
     39 H1         29.7180  -29.9248  -10.3458 H         1 0JA         0.0539
     40 H2         27.2924  -29.4549  -10.3271 H         1 0JA         0.0420
     41 H3         26.8789  -27.2544  -12.6562 H         1 0JA         0.0579
     42 H4         25.7377  -25.0765  -12.2214 H         1 0JA         0.0630
     43 H5         20.9349  -23.5990  -10.9431 H         1 0JA         0.2444
     44 H6         19.1308  -22.9845  -10.3452 H         1 0JA         0.0546
     45 H7         16.8047  -25.1149  -10.6207 H         1 0JA         0.0294
     46 H8         16.5691  -23.3351  -10.6806 H         1 0JA         0.0294
     47 H9         17.5462  -23.1252   -8.2867 H         1 0JA         0.0294
     48 H10        17.7818  -24.9050   -8.2268 H         1 0JA         0.0294
     49 H11        27.1179  -30.2967  -14.5172 H         1 0JA         0.0422
     50 H12        30.5952  -31.4051  -14.6236 H         1 0JA         0.2241
     51 H13        30.2166  -32.9671  -16.2041 H         1 0JA         0.0901
     52 H14        31.4754  -33.9967  -18.0605 H         1 0JA         0.0708
     53 H15        32.0751  -32.6726  -20.0264 H         1 0JA         0.0878
     54 H16        31.3421  -31.8600  -21.8686 H         1 0JA         0.0186
     55 H17        32.3056  -30.5346  -22.6045 H         1 0JA         0.0186
     56 H18        30.4420  -28.8382  -21.9891 H         1 0JA         0.0186
     57 H19        29.4785  -30.1636  -21.2532 H         1 0JA         0.0186
@<TRIPOS>BOND
     1    1    2 1  
     2    2    3 ar 
     3    2   23 ar 
     4    3    4 ar 
     5    4    5 ar 
     6    5    6 1  
     7    5   22 ar 
     8    6    7 1  
     9    7    8 ar 
    10    7   21 ar 
    11    8    9 ar 
    12    9   10 ar 
    13   10   11 1  
    14   10   20 ar 
    15   11   12 2  
    16   12   13 1  
    17   12   19 1  
    18   13   14 am 
    19   14   15 2  
    20   14   16 1  
    21   16   17 1  
    22   16   18 1  
    23   17   18 1  
    24   19   20 1  
    25   20   21 ar 
    26   22   23 ar 
    27   23   24 1  
    28   24   25 am 
    29   25   26 2  
    30   25   27 1  
    31   27   28 ar 
    32   27   32 ar 
    33   28   29 ar 
    34   29   30 ar 
    35   30   31 ar 
    36   31   32 ar 
    37   31   34 1  
    38   32   33 1  
    39   34   35 1  
    40   34   36 1  
    41   34   37 1  
    42   35   36 1  
    43   37   38 3  
    44    3   39 1  
    45    4   40 1  
    46    8   41 1  
    47    9   42 1  
    48   13   43 1  
    49   16   44 1  
    50   17   45 1  
    51   17   46 1  
    52   18   47 1  
    53   18   48 1  
    54   22   49 1  
    55   24   50 1  
    56   28   51 1  
    57   29   52 1  
    58   30   53 1  
    59   35   54 1  
    60   35   55 1  
    61   36   56 1  
    62   36   57 1  
@<TRIPOS>SUBSTRUCTURE
     1 0JA         1

