### 
### Created by X-TOOL on Mon Sep 10 21:13:12 2018
### 

@<TRIPOS>MOLECULE
3vo3_ligand
   53    57     1     0     0
SMALL
GAST_HUCK


@<TRIPOS>ATOM
      1 C3         28.7020  -29.2840  -11.4360 C.ar      1 0KF        -0.0826
      2 C4         29.3740  -29.6490  -12.5760 C.ar      1 0KF        -0.0514
      3 C2         27.3510  -29.0230  -11.4500 C.ar      1 0KF        -0.0433
      4 C6         27.3310  -29.4750  -13.8110 C.ar      1 0KF        -0.0090
      5 C11        30.6960  -31.3200  -17.2220 C.2       1 0KF        -0.0228
      6 C23        21.7480  -26.2180  -11.3970 C.2       1 0KF         0.0818
      7 C5         28.6850  -29.7320  -13.7650 C.ar      1 0KF         0.0580
      8 C1         26.6800  -29.1200  -12.6480 C.ar      1 0KF         0.1060
      9 C10        30.0310  -30.1130  -17.1560 C.2       1 0KF         0.1604
     10 C12        31.3820  -31.2990  -18.4600 C.2       1 0KF         0.0144
     11 C24        21.6840  -24.8830  -11.2920 C.2       1 0KF         0.1014
     12 C21        23.6410  -25.2910  -11.8950 C.2       1 0KF         0.1480
     13 C20        24.9260  -25.2090  -12.2860 C.2       1 0KF        -0.0030
     14 C19        25.4950  -26.4950  -12.5680 C.2       1 0KF         0.0068
     15 C18        24.8010  -27.6490  -12.4320 C.2       1 0KF         0.2161
     16 C8         29.1730  -29.5730  -16.1460 C.2       1 0KF         0.2588
     17 C27        19.3520  -24.6680  -10.5510 C.2       1 0KF         0.2024
     18 C30        17.4360  -23.7910   -9.0540 C.3       1 0KF        -0.0305
     19 C31        16.8980  -23.9030  -10.4470 C.3       1 0KF        -0.0305
     20 C29        18.3590  -23.6310  -10.2280 C.3       1 0KF         0.0539
     21 C16        32.2450  -32.3450  -19.0370 C.3       1 0KF        -0.0264
     22 C15        29.9180  -28.1600  -18.7540 C.3       1 0KF         0.0583
     23 N13        31.1690  -30.1660  -19.1310 N.2       1 0KF        -0.2178
     24 N25        22.8860  -24.2780  -11.6060 N.2       1 0KF        -0.3145
     25 N32        23.6020  -27.6910  -12.0400 N.2       1 0KF        -0.1342
     26 N22        23.0300  -26.4900  -11.7770 N.pl3     1 0KF        -0.1629
     27 N14        30.3600  -29.4710  -18.3210 N.pl3     1 0KF        -0.2015
     28 N7         29.3950  -30.1050  -14.9080 N.am      1 0KF        -0.2335
     29 N26        20.5640  -24.1420  -10.9430 N.am      1 0KF        -0.2399
     30 O9         28.3080  -28.7490  -16.3920 O.2       1 0KF        -0.3708
     31 O28        19.0770  -25.8560  -10.4480 O.2       1 0KF        -0.3868
     32 O17        25.3200  -28.8930  -12.7130 O.3       1 0KF        -0.2403
     33 H1         29.2481  -29.1994  -10.5034 H         1 0KF         0.0553
     34 H2         30.4348  -29.8693  -12.5404 H         1 0KF         0.0420
     35 H3         26.8285  -28.7480  -10.5409 H         1 0KF         0.0429
     36 H4         26.7872  -29.5507  -14.7457 H         1 0KF         0.0431
     37 H5         30.6936  -32.1177  -16.4807 H         1 0KF         0.0406
     38 H6         20.9469  -26.9334  -11.2172 H         1 0KF         0.0647
     39 H7         25.4725  -24.2715  -12.3780 H         1 0KF         0.0710
     40 H8         26.5291  -26.5450  -12.9058 H         1 0KF         0.0664
     41 H9         17.5056  -24.6858   -8.4180 H         1 0KF         0.0294
     42 H10        17.1792  -22.9195   -8.4340 H         1 0KF         0.0294
     43 H11        16.2462  -23.1137  -10.8497 H         1 0KF         0.0294
     44 H12        16.5727  -24.8800  -10.8338 H         1 0KF         0.0294
     45 H13        18.7766  -22.6410  -10.4634 H         1 0KF         0.0542
     46 H14        32.6230  -32.0105  -20.0144 H         1 0KF         0.0377
     47 H15        31.6639  -33.2701  -19.1657 H         1 0KF         0.0377
     48 H16        33.0923  -32.5351  -18.3617 H         1 0KF         0.0377
     49 H17        30.3587  -27.9301  -19.7353 H         1 0KF         0.0598
     50 H18        30.2390  -27.4045  -18.0218 H         1 0KF         0.0598
     51 H19        28.8209  -28.1507  -18.8335 H         1 0KF         0.0598
     52 H20        30.1066  -30.8014  -14.8147 H         1 0KF         0.2250
     53 H21        20.6426  -23.1457  -10.9788 H         1 0KF         0.2202
@<TRIPOS>BOND
     1    1    2 ar 
     2    3    1 ar 
     3    7    2 ar 
     4    8    3 ar 
     5    4    7 ar 
     6    8    4 ar 
     7    9    5 2  
     8    5   10 1  
     9   11    6 2  
    10    6   26 1  
    11    7   28 1  
    12   32    8 1  
    13   16    9 1  
    14    9   27 1  
    15   10   21 1  
    16   10   23 2  
    17   11   24 1  
    18   29   11 1  
    19   12   13 1  
    20   24   12 2  
    21   12   26 1  
    22   13   14 2  
    23   14   15 1  
    24   15   25 2  
    25   15   32 1  
    26   28   16 am 
    27   16   30 2  
    28   20   17 1  
    29   17   29 am 
    30   17   31 2  
    31   18   19 1  
    32   18   20 1  
    33   19   20 1  
    34   27   22 1  
    35   23   27 1  
    36   25   26 1  
    37    1   33 1  
    38    2   34 1  
    39    3   35 1  
    40    4   36 1  
    41    5   37 1  
    42    6   38 1  
    43   13   39 1  
    44   14   40 1  
    45   18   41 1  
    46   18   42 1  
    47   19   43 1  
    48   19   44 1  
    49   20   45 1  
    50   21   46 1  
    51   21   47 1  
    52   21   48 1  
    53   22   49 1  
    54   22   50 1  
    55   22   51 1  
    56   28   52 1  
    57   29   53 1  
@<TRIPOS>SUBSTRUCTURE
     1 0KF         1

