### 
### Created by X-TOOL on Mon Sep 10 21:13:11 2018
### 

@<TRIPOS>MOLECULE
3voz_ligand
   29    30     1     0     0
SMALL
GAST_HUCK


@<TRIPOS>ATOM
      1 OAB         1.5630  -10.0220   -0.4510 O.2       1 04A        -0.3777
      2 CAD        -2.9230   -7.2310   -0.5400 C.ar      1 04A        -0.0684
      3 CAG        -2.8340   -8.6300   -0.1950 C.ar      1 04A        -0.0681
      4 CAH        -1.9750   -6.6350   -1.4720 C.ar      1 04A        -0.0681
      5 CAK        -1.8170   -9.4630   -0.7570 C.ar      1 04A        -0.0579
      6 CAL        -0.9070   -7.5160   -2.0620 C.ar      1 04A        -0.0579
      7 CAN         7.6520   -8.9740    0.5870 C.2       1 04A        -0.0104
      8 CAP         7.3990  -10.4570    0.2070 C.3       1 04A         0.0627
      9 CAR         0.2190   -9.8940   -2.2540 C.3       1 04A         0.0781
     10 NAT         5.1090  -10.3020    0.5010 N.2       1 04A        -0.2840
     11 NAV         3.9260  -10.2050    0.0090 N.2       1 04A        -0.2743
     12 NAX         2.8150  -10.0730   -2.3510 N.am      1 04A        -0.1937
     13 SAY         7.8500   -7.8500    0.0000 S.2       1 04A        -0.1960
     14 SBA         5.4590  -10.2710   -1.9700 S.3       1 04A         0.0650
     15 CBC         1.6020  -10.0010   -1.6710 C.2       1 04A         0.2253
     16 CBE        -0.8330   -8.9020   -1.7090 C.ar      1 04A        -0.0236
     17 CBG         6.0760  -10.3500   -0.4670 C.2       1 04A         0.1154
     18 CBI         3.8450  -10.1680   -1.3920 C.2       1 04A         0.2176
     19 H1         -3.7024   -6.6183   -0.1015 H         1 04A         0.0561
     20 H2         -3.5487   -9.0551    0.5003 H         1 04A         0.0600
     21 H3         -2.0373   -5.5849   -1.7335 H         1 04A         0.0600
     22 H4         -1.7665  -10.5109   -0.4843 H         1 04A         0.0561
     23 H5         -0.1890   -7.0988   -2.7588 H         1 04A         0.0561
     24 H6          7.6655   -8.8508    1.6689 H         1 04A         0.1075
     25 H7          7.3487  -11.1003    1.0978 H         1 04A         0.0737
     26 H8          8.1721  -10.8373   -0.4768 H         1 04A         0.0737
     27 H9         -0.2290  -10.8947   -2.1656 H         1 04A         0.0666
     28 H10         0.3531   -9.6449   -3.3170 H         1 04A         0.0666
     29 H11         2.9347  -10.0597   -3.3437 H         1 04A         0.2396
@<TRIPOS>BOND
     1   15    1 2  
     2    3    2 ar 
     3    4    2 ar 
     4    5    3 ar 
     5    6    4 ar 
     6   16    5 ar 
     7   16    6 ar 
     8    8    7 1  
     9    7   13 2  
    10   17    8 1  
    11   15    9 1  
    12    9   16 1  
    13   11   10 1  
    14   10   17 2  
    15   18   11 2  
    16   12   15 am 
    17   12   18 1  
    18   17   14 1  
    19   14   18 1  
    20    2   19 1  
    21    3   20 1  
    22    4   21 1  
    23    5   22 1  
    24    6   23 1  
    25    7   24 1  
    26    8   25 1  
    27    8   26 1  
    28    9   27 1  
    29    9   28 1  
    30   12   29 1  
@<TRIPOS>SUBSTRUCTURE
     1 04A         1

