### 
### Created by X-TOOL on Mon Sep 10 21:13:10 2018
### 

@<TRIPOS>MOLECULE
3vp2_ligand
   14    14     1     0     0
SMALL
GAST_HUCK


@<TRIPOS>ATOM
      1 S18         7.8500   -7.8500    0.0000 S.2       1 BP0        -0.1958
      2 N26         4.4170   -9.9210    0.5100 N.2       1 BP0        -0.2805
      3 N27         2.2780  -10.1450   -2.3510 N.pl3     1 BP0        -0.2994
      4 N28         3.2510   -9.9970   -0.1400 N.2       1 BP0        -0.2723
      5 C30         6.8220   -9.8370    0.3300 C.3       1 BP0         0.0635
      6 C31         3.4230  -10.0650   -1.5340 C.2       1 BP0         0.1887
      7 C32         7.1740   -8.7380    0.4610 C.2       1 BP0        -0.0101
      8 C33         5.5100   -9.9290   -0.3830 C.2       1 BP0         0.1175
      9 S35         5.0700  -10.0330   -1.9540 S.3       1 BP0         0.0633
     10 H           1.3496  -10.1526   -1.9286 H         1 BP0         0.1849
     11 H           2.3774  -10.1953   -3.3649 H         1 BP0         0.1849
     12 H           6.7009  -10.2747    1.3209 H         1 BP0         0.0740
     13 H           7.5686  -10.3637   -0.2643 H         1 BP0         0.0740
     14 H           6.7043   -8.3522    1.3658 H         1 BP0         0.1075
@<TRIPOS>BOND
     1    7    1 2  
     2    2    4 1  
     3    8    2 2  
     4    6    3 1  
     5    4    6 2  
     6    5    7 1  
     7    5    8 1  
     8    6    9 1  
     9    8    9 1  
    10    3   10 1  
    11    3   11 1  
    12    5   12 1  
    13    5   13 1  
    14    7   14 1  
@<TRIPOS>SUBSTRUCTURE
     1 BP0         1

