### 
### Created by X-TOOL on Mon Sep 10 21:13:10 2018
### 

@<TRIPOS>MOLECULE
3vp3_ligand
   18    18     1     0     0
SMALL
GAST_HUCK


@<TRIPOS>ATOM
      1 C1          7.5220   -7.5220    0.0000 C.3       1 BP8        -0.0628
      2 C32         6.7470   -8.4990    0.8920 C.3       1 BP8        -0.0403
      3 C30         7.0360   -9.4950   -0.2300 C.3       1 BP8         0.0150
      4 C33         5.5940   -9.9510   -0.3860 C.2       1 BP8         0.0998
      5 S35         4.7990  -10.1750   -1.8910 S.3       1 BP8         0.0603
      6 N26         4.7040   -9.7850    0.6580 N.2       1 BP8        -0.2847
      7 N28         3.5530   -9.8350    0.1730 N.2       1 BP8        -0.2739
      8 C31         3.2700  -10.0230   -1.1360 C.2       1 BP8         0.1879
      9 N27         2.0750  -10.0150   -1.7210 N.pl3     1 BP8        -0.2996
     10 H           8.5334   -7.8976   -0.1550 H         1 BP8         0.0232
     11 H           7.0160   -7.4299   -0.9610 H         1 BP8         0.0232
     12 H           7.5656   -6.5464    0.4841 H         1 BP8         0.0232
     13 H           5.7480   -8.2997    1.2797 H         1 BP8         0.0292
     14 H           6.9889   -8.6823    1.9389 H         1 BP8         0.0292
     15 H           7.7800  -10.2657   -0.0285 H         1 BP8         0.0504
     16 H           7.5320   -9.1079   -1.1201 H         1 BP8         0.0504
     17 H           1.2358   -9.8524   -1.1645 H         1 BP8         0.1847
     18 H           1.9981  -10.1714   -2.7260 H         1 BP8         0.1847
@<TRIPOS>BOND
     1    1    2 1  
     2    2    3 1  
     3    3    4 1  
     4    4    5 1  
     5    4    6 2  
     6    5    8 1  
     7    6    7 1  
     8    7    8 2  
     9    8    9 1  
    10    1   10 1  
    11    1   11 1  
    12    1   12 1  
    13    2   13 1  
    14    2   14 1  
    15    3   15 1  
    16    3   16 1  
    17    9   17 1  
    18    9   18 1  
@<TRIPOS>SUBSTRUCTURE
     1 BP8         1

