### 
### Created by X-TOOL on Mon Sep 10 21:13:10 2018
### 

@<TRIPOS>MOLECULE
3vp4_ligand
   15    15     1     0     0
SMALL
GAST_HUCK


@<TRIPOS>ATOM
      1 N26         4.3050   -9.9910    0.5300 N.2       1 BP9        -0.2847
      2 N27         2.3240  -10.0450   -2.6500 N.pl3     1 BP9        -0.2996
      3 N28         3.1280  -10.0250   -0.1270 N.2       1 BP9        -0.2739
      4 C30         6.6810   -9.9200    0.4440 C.3       1 BP9         0.0125
      5 C31         3.2120  -10.0210   -1.5620 C.2       1 BP9         0.1879
      6 C32         7.1040   -8.4550    0.5190 C.3       1 BP9        -0.0495
      7 C33         5.4020   -9.9580   -0.3380 C.2       1 BP9         0.0995
      8 S35         4.8870   -9.9730   -1.8660 S.3       1 BP9         0.0603
      9 H           1.3176  -10.0738   -2.4864 H         1 BP9         0.1847
     10 H           2.6855  -10.0337   -3.6037 H         1 BP9         0.1847
     11 H           6.5394  -10.3356    1.4417 H         1 BP9         0.0502
     12 H           7.4502  -10.5228   -0.0388 H         1 BP9         0.0502
     13 H           7.2531   -8.0691   -0.4894 H         1 BP9         0.0259
     14 H           6.3254   -7.8785    1.0186 H         1 BP9         0.0259
     15 H           8.0344   -8.3751    1.0812 H         1 BP9         0.0259
@<TRIPOS>BOND
     1    1    3 1  
     2    7    1 2  
     3    5    2 1  
     4    3    5 2  
     5    4    6 1  
     6    4    7 1  
     7    5    8 1  
     8    7    8 1  
     9    2    9 1  
    10    2   10 1  
    11    4   11 1  
    12    4   12 1  
    13    6   13 1  
    14    6   14 1  
    15    6   15 1  
@<TRIPOS>SUBSTRUCTURE
     1 BP9         1

