### 
### Created by X-TOOL on Mon Sep 10 21:13:10 2018
### 

@<TRIPOS>MOLECULE
3vqh_ligand
   48    50     1     0     0
SMALL
GAST_HUCK


@<TRIPOS>ATOM
      1 C1         -7.0620    9.9490   -3.0380 C.ar      1 IQB         0.1234
      2 C2         -7.2650   10.0170   -1.6590 C.ar      1 IQB        -0.0287
      3 C3         -6.1870    9.9860   -0.7770 C.ar      1 IQB        -0.0534
      4 C4         -4.8830    9.8960   -1.2680 C.ar      1 IQB        -0.0451
      5 C5         -4.6660    9.8390   -2.6520 C.ar      1 IQB         0.0110
      6 C6         -3.3680    9.7470   -3.1630 C.ar      1 IQB         0.0199
      7 N7         -3.1480    9.6910   -4.4750 N.ar      1 IQB        -0.2974
      8 C8         -4.1530    9.7200   -5.3400 C.ar      1 IQB         0.0077
      9 C9         -5.4780    9.8060   -4.9020 C.ar      1 IQB        -0.0294
     10 C10        -5.7500    9.8660   -3.5310 C.ar      1 IQB         0.0243
     11 S          -8.4890    9.9930   -4.1080 S.o2      1 IQB         0.0706
     12 O1         -8.2180   10.8510   -5.2860 O.2       1 IQB        -0.1500
     13 O2         -9.6110   10.6030   -3.3390 O.2       1 IQB        -0.1500
     14 N1'        -8.9110    8.4930   -4.6080 N.am      1 IQB        -0.2421
     15 C2'        -9.1830    7.5200   -3.5110 C.3       1 IQB         0.0665
     16 C3'       -10.6680    7.5000   -3.0950 C.3       1 IQB        -0.0146
     17 N4'       -11.5640    7.6010   -4.2570 N.4       1 IQB         0.2435
     18 C5'       -11.9320    9.0140   -4.4740 C.3       1 IQB        -0.0007
     19 C6'       -12.6050    9.5440   -3.3690 C.2       1 IQB        -0.0278
     20 C7'       -12.3610   10.8670   -2.9990 C.2       1 IQB        -0.0597
     21 C1'       -12.9890   11.4870   -1.9120 C.ar      1 IQB        -0.0385
     22 C2B       -13.9060   10.7960   -1.1260 C.ar      1 IQB        -0.0596
     23 C3B       -14.5130   11.4300   -0.0450 C.ar      1 IQB        -0.0574
     24 C4'       -14.2100   12.7570    0.2590 C.ar      1 IQB         0.0076
     25 BR4'      -15.0760   13.6160    1.7250 Br        1 IQB        -0.0541
     26 C5B       -13.2910   13.4490   -0.5310 C.ar      1 IQB        -0.0574
     27 C6B       -12.6930   12.8100   -1.6130 C.ar      1 IQB        -0.0596
     28 H1         -8.2736   10.0949   -1.2694 H         1 IQB         0.0675
     29 H2         -6.3608   10.0318    0.2920 H         1 IQB         0.0645
     30 H3         -4.0432    9.8703   -0.5831 H         1 IQB         0.0659
     31 H4         -2.5268    9.7208   -2.4798 H         1 IQB         0.0870
     32 H5         -3.9439    9.6764   -6.4028 H         1 IQB         0.0775
     33 H6         -6.2896    9.8261   -5.6203 H         1 IQB         0.0716
     34 H7         -8.9811    8.2477   -5.5749 H         1 IQB         0.1675
     35 H8         -8.5753    7.7952   -2.6364 H         1 IQB         0.0528
     36 H9         -8.8988    6.5139   -3.8531 H         1 IQB         0.0528
     37 H10       -10.8605    8.3490   -2.4226 H         1 IQB         0.0830
     38 H11       -10.8765    6.5585   -2.5659 H         1 IQB         0.0830
     39 H12       -12.3969    7.0593   -4.0870 H         1 IQB         0.2033
     40 H13       -11.0940    7.2469   -5.0754 H         1 IQB         0.2033
     41 H14       -12.5852    9.0817   -5.3565 H         1 IQB         0.1025
     42 H15       -11.0170    9.5988   -4.6493 H         1 IQB         0.1025
     43 H16       -13.3090    8.9334   -2.8056 H         1 IQB         0.0803
     44 H17       -11.6475   11.4454   -3.5840 H         1 IQB         0.0436
     45 H18       -14.1478    9.7644   -1.3551 H         1 IQB         0.0584
     46 H19       -15.2266   10.8880    0.5650 H         1 IQB         0.0629
     47 H20       -13.0441   14.4796   -0.3029 H         1 IQB         0.0629
     48 H21       -11.9865   13.3526   -2.2307 H         1 IQB         0.0584
@<TRIPOS>BOND
     1    1    2 ar 
     2    1   10 ar 
     3    1   11 1  
     4    2    3 ar 
     5    3    4 ar 
     6    4    5 ar 
     7    5    6 ar 
     8    5   10 ar 
     9    6    7 ar 
    10    7    8 ar 
    11    8    9 ar 
    12    9   10 ar 
    13   11   12 2  
    14   11   13 2  
    15   11   14 am 
    16   14   15 1  
    17   15   16 1  
    18   16   17 1  
    19   17   18 1  
    20   18   19 1  
    21   19   20 2  
    22   20   21 1  
    23   21   22 ar 
    24   21   27 ar 
    25   22   23 ar 
    26   23   24 ar 
    27   24   25 1  
    28   24   26 ar 
    29   26   27 ar 
    30    2   28 1  
    31    3   29 1  
    32    4   30 1  
    33    6   31 1  
    34    8   32 1  
    35    9   33 1  
    36   14   34 1  
    37   15   35 1  
    38   15   36 1  
    39   16   37 1  
    40   16   38 1  
    41   17   39 1  
    42   17   40 1  
    43   18   41 1  
    44   18   42 1  
    45   19   43 1  
    46   20   44 1  
    47   22   45 1  
    48   23   46 1  
    49   26   47 1  
    50   27   48 1  
@<TRIPOS>SUBSTRUCTURE
     1 IQB         1

