### 
### Created by X-TOOL on Mon Sep 10 21:13:09 2018
### 

@<TRIPOS>MOLECULE
3vqs_ligand
   70    75     1     0     0
SMALL
GAST_HUCK


@<TRIPOS>ATOM
      1 N1         50.1140   33.1550   47.6920 N.pl3     1 JT1        -0.2552
      2 N2         48.9010   33.7970   45.2790 N.am      1 JT1        -0.2052
      3 S3         47.6100   34.3230   44.4820 S.o2      1 JT1         0.0853
      4 C4         46.3200   34.4030   45.5890 C.ar      1 JT1         0.1365
      5 O5         47.2850   33.3730   43.4900 O.2       1 JT1        -0.1464
      6 O6         47.8290   35.7480   44.0780 O.2       1 JT1        -0.1464
      7 C7         46.1700   35.5600   46.3970 C.ar      1 JT1        -0.0053
      8 C8         45.0210   35.6420   47.2540 C.ar      1 JT1        -0.0296
      9 C9         44.0990   34.5890   47.2040 C.ar      1 JT1         0.0483
     10 C10        44.2040   33.4670   46.3670 C.ar      1 JT1        -0.0296
     11 C11        45.3190   33.4170   45.5370 C.ar      1 JT1        -0.0053
     12 C12        48.9280   32.3510   45.5680 C.3       1 JT1         0.1512
     13 C13        49.1700   32.2380   47.1130 C.3       1 JT1         0.0768
     14 C14        50.0460   34.5890   47.2850 C.3       1 JT1         0.0573
     15 C15        49.9270   34.7070   45.7580 C.3       1 JT1         0.0546
     16 C16        50.0860   31.6240   44.8390 C.2       1 JT1         0.2018
     17 O17        50.5080   30.4720   45.2220 O.2       1 JT1        -0.3948
     18 N18        50.7020   32.3070   43.8020 N.am      1 JT1        -0.2757
     19 C19        51.6350   31.5290   42.9850 C.3       1 JT1         0.0588
     20 C20        51.0580   30.6640   41.8820 C.ar      1 JT1        -0.0336
     21 C21        51.1630   29.2630   42.0110 C.ar      1 JT1        -0.0709
     22 C22        50.5900   28.4290   41.0370 C.ar      1 JT1        -0.0407
     23 C23        50.0400   29.0300   39.9000 C.ar      1 JT1         0.1267
     24 C24        49.9180   30.4340   39.7930 C.ar      1 JT1         0.1537
     25 C25        50.4130   31.2430   40.7810 C.ar      1 JT1        -0.0332
     26 C26        51.2920   32.6870   48.2700 C.2       1 JT1         0.1993
     27 S27        51.5330   30.9430   48.5830 S.3       1 JT1         0.0437
     28 N28        52.2270   33.5210   48.6760 N.2       1 JT1        -0.2800
     29 C29        53.2450   32.7630   49.2690 C.ar      1 JT1         0.0872
     30 C30        53.0140   31.3560   49.2590 C.ar      1 JT1         0.0928
     31 C31        54.0430   30.5940   49.8120 C.ar      1 JT1         0.0273
     32 N32        55.1360   31.1820   50.3350 N.ar      1 JT1        -0.2826
     33 C33        55.3010   32.5150   50.2620 C.ar      1 JT1         0.0864
     34 N34        54.3990   33.3790   49.7470 N.ar      1 JT1        -0.2768
     35 O35        49.5410   28.3230   38.8630 O.3       1 JT1        -0.2304
     36 C36        48.2320   27.8390   38.9190 C.3       1 JT1         0.5444
     37 C40        42.8280   34.6650   48.0320 C.3       1 JT1         0.3771
     38 C44        56.5480   33.1860   50.7840 C.3       1 JT1         0.0224
     39 C45        57.1480   32.7440   52.1230 C.3       1 JT1        -0.0334
     40 C46        57.8560   32.4670   50.8150 C.3       1 JT1        -0.0334
     41 F37        47.9620   27.2670   37.7530 F         1 JT1        -0.1403
     42 F38        47.3950   28.8290   39.1160 F         1 JT1        -0.1403
     43 F39        48.0280   26.9650   39.8900 F         1 JT1        -0.1403
     44 F41        42.4240   33.5180   48.6110 F         1 JT1        -0.2199
     45 F42        41.7450   35.0640   47.2610 F         1 JT1        -0.2199
     46 F43        42.7310   35.5370   49.0310 F         1 JT1        -0.2199
     47 F47        49.3790   30.8980   38.6750 F         1 JT1        -0.1918
     48 H1         46.9020   36.3590   46.3680 H         1 JT1         0.0718
     49 H2         44.8726   36.4879   47.9155 H         1 JT1         0.0853
     50 H3         43.4565   32.6819   46.3675 H         1 JT1         0.0853
     51 H4         45.4186   32.5984   44.8334 H         1 JT1         0.0718
     52 H5         47.9695   31.8912   45.2856 H         1 JT1         0.0778
     53 H6         48.2032   32.3962   47.6133 H         1 JT1         0.0584
     54 H7         49.5274   31.2184   47.3197 H         1 JT1         0.0584
     55 H8         50.9590   35.1041   47.6183 H         1 JT1         0.0556
     56 H9         49.1685   35.0578   47.7542 H         1 JT1         0.0556
     57 H10        49.6556   35.7388   45.4904 H         1 JT1         0.0501
     58 H11        50.8907   34.4494   45.2945 H         1 JT1         0.0501
     59 H12        50.5199   33.2738   43.6226 H         1 JT1         0.1875
     60 H13        52.1917   30.8664   43.6640 H         1 JT1         0.0661
     61 H14        52.3303   32.2398   42.5145 H         1 JT1         0.0661
     62 H15        51.6838   28.8320   42.8584 H         1 JT1         0.0497
     63 H16        50.5745   27.3524   41.1626 H         1 JT1         0.0514
     64 H17        50.3070   32.3196   40.7120 H         1 JT1         0.0516
     65 H18        53.9619   29.5131   49.8210 H         1 JT1         0.0855
     66 H19        56.5218   34.2534   50.5193 H         1 JT1         0.0521
     67 H20        56.6899   31.9200   52.6898 H         1 JT1         0.0297
     68 H21        57.5504   33.4912   52.8228 H         1 JT1         0.0297
     69 H22        58.7824   33.0072   50.5701 H         1 JT1         0.0297
     70 H23        57.9219   31.4361   50.4371 H         1 JT1         0.0297
@<TRIPOS>BOND
     1   13    1 1  
     2    1   14 1  
     3    1   26 1  
     4    2    3 am 
     5   12    2 1  
     6    2   15 1  
     7    3    4 1  
     8    3    5 2  
     9    3    6 2  
    10    4    7 ar 
    11    4   11 ar 
    12    7    8 ar 
    13    8    9 ar 
    14   10    9 ar 
    15    9   37 1  
    16   11   10 ar 
    17   12   13 1  
    18   12   16 1  
    19   14   15 1  
    20   16   17 2  
    21   16   18 am 
    22   18   19 1  
    23   19   20 1  
    24   20   21 ar 
    25   20   25 ar 
    26   21   22 ar 
    27   22   23 ar 
    28   23   24 ar 
    29   23   35 1  
    30   24   25 ar 
    31   24   47 1  
    32   26   27 1  
    33   26   28 2  
    34   27   30 1  
    35   28   29 1  
    36   29   30 ar 
    37   29   34 ar 
    38   30   31 ar 
    39   31   32 ar 
    40   32   33 ar 
    41   33   34 ar 
    42   33   38 1  
    43   35   36 1  
    44   36   41 1  
    45   36   42 1  
    46   36   43 1  
    47   37   44 1  
    48   37   45 1  
    49   37   46 1  
    50   38   39 1  
    51   38   40 1  
    52   39   40 1  
    53    7   48 1  
    54    8   49 1  
    55   10   50 1  
    56   11   51 1  
    57   12   52 1  
    58   13   53 1  
    59   13   54 1  
    60   14   55 1  
    61   14   56 1  
    62   15   57 1  
    63   15   58 1  
    64   18   59 1  
    65   19   60 1  
    66   19   61 1  
    67   21   62 1  
    68   22   63 1  
    69   25   64 1  
    70   31   65 1  
    71   38   66 1  
    72   39   67 1  
    73   39   68 1  
    74   40   69 1  
    75   40   70 1  
@<TRIPOS>SUBSTRUCTURE
     1 JT1         1

