### 
### Created by X-TOOL on Mon Sep 10 21:13:11 2018
### 

@<TRIPOS>MOLECULE
3vqu_ligand
   37    38     1     0     0
SMALL
GAST_HUCK


@<TRIPOS>ATOM
      1 O2         -1.2880  -38.1520   -5.7270 O.2       1 O22        -0.3904
      2 C15        -1.6740  -38.0710   -6.8550 C.2       1 O22         0.1937
      3 N4         -2.3640  -39.0410   -7.3740 N.am      1 O22        -0.3018
      4 C12        -1.3440  -36.8670   -7.6530 C.ar      1 O22         0.0375
      5 C11        -0.7560  -36.9960   -8.8760 C.ar      1 O22        -0.0515
      6 C10        -0.4460  -35.8810   -9.6070 C.ar      1 O22        -0.0323
      7 C13        -1.6000  -35.6260   -7.1510 C.ar      1 O22        -0.0515
      8 C14        -1.2870  -34.5200   -7.8830 C.ar      1 O22        -0.0323
      9 C9         -0.7020  -34.6440   -9.1050 C.ar      1 O22         0.0681
     10 N3         -0.4130  -33.5410   -9.7850 N.pl3     1 O22        -0.2586
     11 C8          0.4390  -33.4370  -10.8000 C.ar      1 O22         0.1152
     12 C7          0.6960  -32.1820  -11.2600 C.ar      1 O22         0.0027
     13 C6          1.5480  -31.9500  -12.2880 C.ar      1 O22         0.0723
     14 N2          1.7640  -30.7120  -12.7040 N.pl3     1 O22        -0.3261
     15 C4          2.2040  -33.0810  -12.9090 C.ar      1 O22         0.1539
     16 C5          3.0150  -32.9010  -13.8840 C.1       1 O22         0.0766
     17 N1          3.7450  -32.7320  -14.7500 N.1       1 O22        -0.3553
     18 N5          0.9960  -34.5000  -11.3400 N.ar      1 O22        -0.2596
     19 C3          1.8470  -34.3950  -12.3460 C.ar      1 O22         0.1773
     20 O1          2.3540  -35.5430  -12.7960 O.3       1 O22        -0.2957
     21 C2          1.8120  -36.6820  -12.2150 C.3       1 O22         0.0738
     22 C1          2.5950  -37.8280  -12.7560 C.3       1 O22        -0.0361
     23 H          -2.5756  -39.8702   -6.8190 H         1 O22         0.1805
     24 H          -2.6944  -38.9737   -8.3367 H         1 O22         0.1805
     25 H          -0.5327  -37.9868   -9.2718 H         1 O22         0.0640
     26 H           0.0068  -35.9852  -10.5930 H         1 O22         0.0550
     27 H          -2.0542  -35.5184   -6.1660 H         1 O22         0.0640
     28 H          -1.5069  -33.5288   -7.4865 H         1 O22         0.0550
     29 H          -0.8931  -32.6874   -9.4999 H         1 O22         0.2164
     30 H           0.1999  -31.3352  -10.7856 H         1 O22         0.0441
     31 H           2.4048  -30.5387  -13.4785 H         1 O22         0.1797
     32 H           1.2897  -29.9314  -12.2501 H         1 O22         0.1797
     33 H           0.7523  -36.7804  -12.4506 H         1 O22         0.0623
     34 H           1.8734  -36.6390  -11.1276 H         1 O22         0.0623
     35 H           2.4971  -37.8531  -13.8413 H         1 O22         0.0256
     36 H           3.6445  -37.7084  -12.4872 H         1 O22         0.0256
     37 H           2.2142  -38.7580  -12.3339 H         1 O22         0.0256
@<TRIPOS>BOND
     1    1    2 2  
     2    2    3 am 
     3    2    4 1  
     4    4    5 ar 
     5    4    7 ar 
     6    5    6 ar 
     7    6    9 ar 
     8    7    8 ar 
     9    8    9 ar 
    10    9   10 1  
    11   10   11 1  
    12   11   12 ar 
    13   11   18 ar 
    14   12   13 ar 
    15   13   14 1  
    16   13   15 ar 
    17   15   16 1  
    18   15   19 ar 
    19   16   17 3  
    20   18   19 ar 
    21   19   20 1  
    22   20   21 1  
    23   21   22 1  
    24    3   23 1  
    25    3   24 1  
    26    5   25 1  
    27    6   26 1  
    28    7   27 1  
    29    8   28 1  
    30   10   29 1  
    31   12   30 1  
    32   14   31 1  
    33   14   32 1  
    34   21   33 1  
    35   21   34 1  
    36   22   35 1  
    37   22   36 1  
    38   22   37 1  
@<TRIPOS>SUBSTRUCTURE
     1 O22         1

