### 
### Created by X-TOOL on Mon Sep 10 21:13:11 2018
### 

@<TRIPOS>MOLECULE
3vrt_ligand
   65    67     1     0     0
SMALL
GAST_HUCK


@<TRIPOS>ATOM
      1 O3         10.5150   -5.7840   27.3870 O.3       1 YS2        -0.3950
      2 C24        11.3990   -4.7380   26.9680 C.3       1 YS2         0.0442
      3 C23        12.6790   -4.7920   27.7930 C.3       1 YS2        -0.0295
      4 C22        13.0560   -3.4090   28.3090 C.3       1 YS2        -0.0481
      5 C20        12.9010   -2.3580   27.2160 C.3       1 YS2        -0.0403
      6 C21        11.6970   -1.4630   27.4860 C.3       1 YS2        -0.0621
      7 C17        14.1710   -1.5330   27.0690 C.3       1 YS2        -0.0306
      8 C13        13.8780   -0.1120   26.6220 C.3       1 YS2        -0.0161
      9 C18        12.7160   -0.1280   25.6400 C.3       1 YS2        -0.0570
     10 C12        13.6220    0.9070   27.7130 C.3       1 YS2        -0.0431
     11 C11        13.2640    2.2420   27.0510 C.3       1 YS2        -0.0423
     12 C9         14.1790    2.6790   25.8960 C.3       1 YS2        -0.0234
     13 C16        15.1040   -2.1020   26.0000 C.3       1 YS2        -0.0470
     14 C15        15.5780   -0.9280   25.1400 C.3       1 YS2        -0.0393
     15 C14        15.1460    0.3000   25.9240 C.3       1 YS2        -0.0062
     16 C8         14.7900    1.5170   25.1390 C.2       1 YS2        -0.0718
     17 C7         15.0020    1.5810   23.8180 C.2       1 YS2        -0.1089
     18 C6         14.6430    2.7870   23.0780 C.2       1 YS2        -0.1086
     19 C5         14.2220    2.6940   21.8090 C.2       1 YS2        -0.0657
     20 C4         13.8500    3.9410   21.0430 C.3       1 YS2         0.0150
     21 C10        14.1190    1.3420   21.1450 C.3       1 YS2         0.0150
     22 C1         14.8550    1.3740   19.8100 C.3       1 YS2         0.1023
     23 O1         14.5020    0.2180   19.0430 O.3       1 YS2        -0.3742
     24 C2         14.4680    2.6120   19.0560 C.2       1 YS2        -0.0127
     25 C28        14.0220    2.5180   17.8180 C.2       1 YS2        -0.1238
     26 C3         14.5880    3.9570   19.7100 C.3       1 YS2         0.1023
     27 O2         15.9700    4.2580   19.9330 O.3       1 YS2        -0.3742
     28 H1         10.9385   -6.6249   27.2600 H         1 YS2         0.2094
     29 H2         10.9095   -3.7639   27.1145 H         1 YS2         0.0557
     30 H3         11.6434   -4.8692   25.9036 H         1 YS2         0.0557
     31 H4         13.4959   -5.1762   27.1645 H         1 YS2         0.0287
     32 H5         12.5269   -5.4659   28.6490 H         1 YS2         0.0287
     33 H6         14.1024   -3.4242   28.6477 H         1 YS2         0.0269
     34 H7         12.4009   -3.1491   29.1536 H         1 YS2         0.0269
     35 H8         12.7263   -2.8823   26.2649 H         1 YS2         0.0301
     36 H9         11.6087   -0.7154   26.6839 H         1 YS2         0.0233
     37 H10        11.8292   -0.9516   28.4509 H         1 YS2         0.0233
     38 H11        10.7842   -2.0760   27.5179 H         1 YS2         0.0233
     39 H12        14.6871   -1.5168   28.0403 H         1 YS2         0.0311
     40 H13        12.4988    0.8993   25.3123 H         1 YS2         0.0237
     41 H14        11.8273   -0.5520   26.1303 H         1 YS2         0.0237
     42 H15        12.9818   -0.7427   24.7674 H         1 YS2         0.0237
     43 H16        14.5256    1.0277   28.3285 H         1 YS2         0.0274
     44 H17        12.7884    0.5712   28.3473 H         1 YS2         0.0274
     45 H18        13.2995    3.0232   27.8245 H         1 YS2         0.0290
     46 H19        12.2396    2.1608   26.6586 H         1 YS2         0.0290
     47 H20        14.9932    3.2925   26.3092 H         1 YS2         0.0437
     48 H21        13.5872    3.2815   25.1912 H         1 YS2         0.0437
     49 H22        14.5639   -2.8307   25.3778 H         1 YS2         0.0270
     50 H23        15.9661   -2.5931   26.4751 H         1 YS2         0.0270
     51 H24        15.0977   -0.9491   24.1506 H         1 YS2         0.0293
     52 H25        16.6710   -0.9492   25.0176 H         1 YS2         0.0293
     53 H26        15.9349    0.5598   26.6452 H         1 YS2         0.0478
     54 H27        15.4424    0.7329   23.2958 H         1 YS2         0.0219
     55 H28        14.7173    3.7622   23.5570 H         1 YS2         0.0219
     56 H29        14.1313    4.8287   21.6285 H         1 YS2         0.0490
     57 H30        12.7651    3.9500   20.8616 H         1 YS2         0.0490
     58 H31        13.0603    1.0971   20.9742 H         1 YS2         0.0490
     59 H32        14.5717    0.5788   21.7950 H         1 YS2         0.0490
     60 H33        15.9403    1.3779   19.9893 H         1 YS2         0.0819
     61 H34        13.5646    0.2159   18.8886 H         1 YS2         0.2139
     62 H35        13.7411    3.4166   17.2707 H         1 YS2         0.0077
     63 H36        13.9347    1.5418   17.3433 H         1 YS2         0.0077
     64 H37        14.1469    4.7234   19.0558 H         1 YS2         0.0819
     65 H38        16.0446    5.1097   20.3471 H         1 YS2         0.2139
@<TRIPOS>BOND
     1    1    2 1  
     2    2    3 1  
     3    3    4 1  
     4    4    5 1  
     5    5    6 1  
     6    5    7 1  
     7    7    8 1  
     8    7   13 1  
     9    8    9 1  
    10    8   10 1  
    11    8   15 1  
    12   10   11 1  
    13   11   12 1  
    14   12   16 1  
    15   13   14 1  
    16   14   15 1  
    17   15   16 1  
    18   16   17 2  
    19   17   18 1  
    20   18   19 2  
    21   19   20 1  
    22   19   21 1  
    23   20   26 1  
    24   21   22 1  
    25   22   23 1  
    26   22   24 1  
    27   24   25 2  
    28   24   26 1  
    29   26   27 1  
    30    1   28 1  
    31    2   29 1  
    32    2   30 1  
    33    3   31 1  
    34    3   32 1  
    35    4   33 1  
    36    4   34 1  
    37    5   35 1  
    38    6   36 1  
    39    6   37 1  
    40    6   38 1  
    41    7   39 1  
    42    9   40 1  
    43    9   41 1  
    44    9   42 1  
    45   10   43 1  
    46   10   44 1  
    47   11   45 1  
    48   11   46 1  
    49   12   47 1  
    50   12   48 1  
    51   13   49 1  
    52   13   50 1  
    53   14   51 1  
    54   14   52 1  
    55   15   53 1  
    56   17   54 1  
    57   18   55 1  
    58   20   56 1  
    59   20   57 1  
    60   21   58 1  
    61   21   59 1  
    62   22   60 1  
    63   23   61 1  
    64   25   62 1  
    65   25   63 1  
    66   26   64 1  
    67   27   65 1  
@<TRIPOS>SUBSTRUCTURE
     1 YS2         1

