### 
### Created by X-TOOL on Mon Sep 10 21:13:11 2018
### 

@<TRIPOS>MOLECULE
3vru_ligand
   73    75     1     0     0
SMALL
GAST_HUCK


@<TRIPOS>ATOM
      1 OAH       -11.9620   19.4710   -7.4140 O.3       1 YS3        -0.3891
      2 CBA       -11.4210   20.5210   -6.6390 C.3       1 YS3         0.0605
      3 CAC       -10.0270   20.8420   -7.1020 C.3       1 YS3        -0.0363
      4 CAD       -11.3550   20.0000   -5.1770 C.3       1 YS3        -0.0363
      5 CAP       -12.3050   21.7910   -6.8870 C.3       1 YS3        -0.0243
      6 CAM       -13.5710   21.9660   -6.0600 C.3       1 YS3        -0.0476
      7 CAW       -14.5560   22.8230   -6.8340 C.3       1 YS3        -0.0403
      8 CAB       -15.2130   22.0500   -7.9950 C.3       1 YS3        -0.0621
      9 CAZ       -15.6920   23.4790   -6.0040 C.3       1 YS3        -0.0309
     10 CAN       -16.2600   22.6260   -4.8310 C.3       1 YS3        -0.0473
     11 CAQ       -17.0250   23.6570   -3.9660 C.3       1 YS3        -0.0410
     12 CBB       -16.7790   24.9840   -4.6930 C.3       1 YS3        -0.0108
     13 CBC       -15.3950   24.8520   -5.3460 C.3       1 YS3        -0.0178
     14 CAE       -14.1950   24.8090   -4.3840 C.3       1 YS3        -0.0573
     15 CAO       -15.2570   26.0270   -6.3760 C.3       1 YS3        -0.0437
     16 CAK       -15.5410   27.4340   -5.7610 C.3       1 YS3        -0.0440
     17 CAL       -16.8420   27.4790   -4.8990 C.3       1 YS3        -0.0280
     18 CAV       -16.8910   26.2970   -3.9120 C.2       1 YS3        -0.0774
     19 CAJ       -16.9600   26.4270   -2.5000 C.2       1 YS3        -0.1082
     20 CAI       -16.5560   27.6190   -1.8820 C.3       1 YS3        -0.0438
     21 CAU       -16.5950   27.8120   -0.5050 C.3       1 YS3        -0.0288
     22 CAS       -16.3630   29.2230    0.0510 C.3       1 YS3        -0.0104
     23 CAR       -16.1530   26.6870    0.4400 C.3       1 YS3        -0.0104
     24 CAX       -16.9160   26.7950    1.7760 C.3       1 YS3         0.0928
     25 OAF       -16.5560   25.7980    2.6850 O.3       1 YS3        -0.3765
     26 CAT       -16.5550   28.1410    2.3550 C.2       1 YS3        -0.0171
     27 CAA       -16.0200   28.2940    3.6070 C.2       1 YS3        -0.1241
     28 CAY       -16.9460   29.3370    1.5010 C.3       1 YS3         0.0928
     29 OAG       -18.3770   29.2630    1.4850 O.3       1 YS3        -0.3765
     30 H1        -11.9894   19.7340   -8.3265 H         1 YS3         0.2101
     31 H2         -9.6172   21.6601   -6.4915 H         1 YS3         0.0257
     32 H3        -10.0530   21.1499   -8.1577 H         1 YS3         0.0257
     33 H4         -9.3909   19.9509   -6.9955 H         1 YS3         0.0257
     34 H5        -10.9383   20.7835   -4.5270 H         1 YS3         0.0257
     35 H6        -10.7126   19.1081   -5.1342 H         1 YS3         0.0257
     36 H7        -12.3673   19.7395   -4.8345 H         1 YS3         0.0257
     37 H8        -12.6073   21.7751   -7.9445 H         1 YS3         0.0293
     38 H9        -11.6707   22.6700   -6.7001 H         1 YS3         0.0293
     39 H10       -13.3238   22.4581   -5.1078 H         1 YS3         0.0269
     40 H11       -14.0184   20.9815   -5.8587 H         1 YS3         0.0269
     41 H12       -13.9663   23.6426   -7.2705 H         1 YS3         0.0301
     42 H13       -15.9159   22.7105   -8.5239 H         1 YS3         0.0233
     43 H14       -15.7563   21.1808   -7.5958 H         1 YS3         0.0233
     44 H15       -14.4356   21.7073   -8.6937 H         1 YS3         0.0233
     45 H16       -16.5097   23.6352   -6.7230 H         1 YS3         0.0310
     46 H17       -15.4470   22.1580   -4.2565 H         1 YS3         0.0270
     47 H18       -16.9399   21.8467   -5.2058 H         1 YS3         0.0270
     48 H19       -16.6222   23.6883   -2.9429 H         1 YS3         0.0289
     49 H20       -18.0988   23.4211   -3.9303 H         1 YS3         0.0289
     50 H21       -17.5328   25.0490   -5.4915 H         1 YS3         0.0451
     51 H22       -13.2644   24.7137   -4.9627 H         1 YS3         0.0237
     52 H23       -14.2969   23.9465   -3.7090 H         1 YS3         0.0237
     53 H24       -14.1657   25.7360   -3.7926 H         1 YS3         0.0237
     54 H25       -15.9695   25.8558   -7.1964 H         1 YS3         0.0274
     55 H26       -14.2315   26.0220   -6.7739 H         1 YS3         0.0274
     56 H27       -15.6402   28.1602   -6.5812 H         1 YS3         0.0287
     57 H28       -14.6897   27.7149   -5.1235 H         1 YS3         0.0287
     58 H29       -17.7164   27.4285   -5.5644 H         1 YS3         0.0411
     59 H30       -16.8660   28.4217   -4.3327 H         1 YS3         0.0411
     60 H31       -17.3275   25.5991   -1.8955 H         1 YS3         0.0242
     61 H32       -17.1820   28.4123   -2.3165 H         1 YS3         0.0342
     62 H33       -15.5085   27.7742   -2.1796 H         1 YS3         0.0342
     63 H34       -17.6838   27.7405   -0.3658 H         1 YS3         0.0320
     64 H35       -16.8619   29.9563   -0.5996 H         1 YS3         0.0321
     65 H36       -15.2830   29.4303    0.0765 H         1 YS3         0.0321
     66 H37       -15.0727   26.7724    0.6288 H         1 YS3         0.0321
     67 H38       -16.3681   25.7138   -0.0254 H         1 YS3         0.0321
     68 H39       -17.9984   26.7363    1.5889 H         1 YS3         0.0793
     69 H40       -15.6273   25.8635    2.8738 H         1 YS3         0.2136
     70 H41       -15.7771   29.2888    3.9775 H         1 YS3         0.0077
     71 H42       -15.8377   27.4208    4.2316 H         1 YS3         0.0077
     72 H43       -16.6035   30.2765    1.9592 H         1 YS3         0.0793
     73 H44       -18.7061   29.3241    2.3741 H         1 YS3         0.2136
@<TRIPOS>BOND
     1    1    2 1  
     2    2    3 1  
     3    2    4 1  
     4    2    5 1  
     5    5    6 1  
     6    6    7 1  
     7    7    8 1  
     8    7    9 1  
     9    9   10 1  
    10    9   13 1  
    11   10   11 1  
    12   11   12 1  
    13   12   13 1  
    14   12   18 1  
    15   13   14 1  
    16   13   15 1  
    17   15   16 1  
    18   16   17 1  
    19   17   18 1  
    20   18   19 2  
    21   19   20 1  
    22   20   21 1  
    23   21   22 1  
    24   21   23 1  
    25   22   28 1  
    26   23   24 1  
    27   24   25 1  
    28   24   26 1  
    29   26   27 2  
    30   26   28 1  
    31   28   29 1  
    32    1   30 1  
    33    3   31 1  
    34    3   32 1  
    35    3   33 1  
    36    4   34 1  
    37    4   35 1  
    38    4   36 1  
    39    5   37 1  
    40    5   38 1  
    41    6   39 1  
    42    6   40 1  
    43    7   41 1  
    44    8   42 1  
    45    8   43 1  
    46    8   44 1  
    47    9   45 1  
    48   10   46 1  
    49   10   47 1  
    50   11   48 1  
    51   11   49 1  
    52   12   50 1  
    53   14   51 1  
    54   14   52 1  
    55   14   53 1  
    56   15   54 1  
    57   15   55 1  
    58   16   56 1  
    59   16   57 1  
    60   17   58 1  
    61   17   59 1  
    62   19   60 1  
    63   20   61 1  
    64   20   62 1  
    65   21   63 1  
    66   22   64 1  
    67   22   65 1  
    68   23   66 1  
    69   23   67 1  
    70   24   68 1  
    71   25   69 1  
    72   27   70 1  
    73   27   71 1  
    74   28   72 1  
    75   29   73 1  
@<TRIPOS>SUBSTRUCTURE
     1 YS3         1

