### 
### Created by X-TOOL on Mon Sep 10 21:13:11 2018
### 

@<TRIPOS>MOLECULE
3vrv_ligand
   79    81     1     0     0
SMALL
GAST_HUCK


@<TRIPOS>ATOM
      1 CAB        -9.6420   22.5300   -6.9780 C.3       1 YSD        -0.0627
      2 CAK       -10.1650   21.1290   -7.5020 C.3       1 YSD        -0.0269
      3 CBD       -11.5060   20.8100   -6.8370 C.3       1 YSD         0.0656
      4 CAL       -11.3490   20.5300   -5.3350 C.3       1 YSD        -0.0269
      5 CAC       -10.2790   19.4850   -5.0740 C.3       1 YSD        -0.0627
      6 OAH       -12.0880   19.6180   -7.4050 O.3       1 YSD        -0.3886
      7 CAS       -12.3910   22.0500   -7.0570 C.3       1 YSD        -0.0238
      8 CAP       -13.6460   22.0690   -6.1880 C.3       1 YSD        -0.0476
      9 CAY       -14.7290   22.8540   -6.9630 C.3       1 YSD        -0.0405
     10 CAD       -15.4410   21.9700   -7.9930 C.3       1 YSD        -0.0621
     11 CBC       -15.7930   23.6150   -6.1420 C.3       1 YSD        -0.0328
     12 CAQ       -16.3420   22.8420   -4.9190 C.3       1 YSD        -0.0492
     13 CAO       -16.9510   23.9150   -4.0030 C.3       1 YSD        -0.0491
     14 CBB       -16.7910   25.2040   -4.7700 C.3       1 YSD        -0.0314
     15 CBE       -15.4590   25.0220   -5.5280 C.3       1 YSD        -0.0258
     16 CAE       -14.2360   25.0060   -4.5880 C.3       1 YSD        -0.0590
     17 CAR       -15.3540   26.1890   -6.5660 C.3       1 YSD        -0.0471
     18 CAM       -15.5280   27.5990   -5.9110 C.3       1 YSD        -0.0522
     19 CAN       -16.7200   27.7260   -4.9170 C.3       1 YSD        -0.0488
     20 CAX       -16.7520   26.4860   -3.9780 C.3       1 YSD        -0.0345
     21 CAJ       -16.8710   26.6120   -2.5580 C.3       1 YSD        -0.0441
     22 CAI       -16.7380   27.9140   -1.9530 C.2       1 YSD        -0.1079
     23 CAW       -16.5510   28.0340   -0.5500 C.2       1 YSD        -0.0713
     24 CAU       -16.3210   26.7800    0.3200 C.3       1 YSD         0.0103
     25 CAT       -16.4270   29.4320    0.0440 C.3       1 YSD         0.0103
     26 CAZ       -17.0520   29.5850    1.4200 C.3       1 YSD         0.1006
     27 OAF       -18.4780   29.5400    1.3270 O.3       1 YSD        -0.3745
     28 CAV       -16.5940   28.4090    2.2870 C.2       1 YSD        -0.0134
     29 CAA       -15.8950   28.6150    3.4610 C.2       1 YSD        -0.1238
     30 CBA       -16.9600   27.0200    1.7350 C.3       1 YSD         0.1006
     31 OAG       -16.5060   26.1090    2.6320 O.3       1 YSD        -0.3745
     32 H1         -8.6780   22.7628   -7.4539 H         1 YSD         0.0231
     33 H2         -9.5114   22.4878   -5.8866 H         1 YSD         0.0231
     34 H3        -10.3735   23.3120   -7.2298 H         1 YSD         0.0231
     35 H4         -9.4344   20.3462   -7.2501 H         1 YSD         0.0290
     36 H5        -10.2965   21.1704   -8.5933 H         1 YSD         0.0290
     37 H6        -12.3080   20.1672   -4.9366 H         1 YSD         0.0290
     38 H7        -11.0694   21.4634   -4.8245 H         1 YSD         0.0290
     39 H8        -10.1938   19.3099   -3.9914 H         1 YSD         0.0231
     40 H9         -9.3147   19.8421   -5.4646 H         1 YSD         0.0231
     41 H10       -10.5532   18.5459   -5.5768 H         1 YSD         0.0231
     42 H11       -12.2069   19.7394   -8.3396 H         1 YSD         0.2102
     43 H12       -12.6990   22.0742   -8.1127 H         1 YSD         0.0293
     44 H13       -11.7962   22.9465   -6.8279 H         1 YSD         0.0293
     45 H14       -13.4334   22.5665   -5.2302 H         1 YSD         0.0269
     46 H15       -13.9889   21.0410   -5.9991 H         1 YSD         0.0269
     47 H16       -14.1799   23.6234   -7.5255 H         1 YSD         0.0301
     48 H17       -16.2017   22.5631   -8.5218 H         1 YSD         0.0233
     49 H18       -15.9255   21.1263   -7.4797 H         1 YSD         0.0233
     50 H19       -14.7069   21.5862   -8.7167 H         1 YSD         0.0233
     51 H20       -16.6246   23.7667   -6.8458 H         1 YSD         0.0309
     52 H21       -15.5294   22.3102   -4.4025 H         1 YSD         0.0268
     53 H22       -17.1112   22.1208   -5.2323 H         1 YSD         0.0268
     54 H23       -16.4096   23.9623   -3.0466 H         1 YSD         0.0268
     55 H24       -18.0140   23.7056   -3.8127 H         1 YSD         0.0268
     56 H25       -17.6226   25.2871   -5.4852 H         1 YSD         0.0310
     57 H26       -13.3192   24.8741   -5.1814 H         1 YSD         0.0235
     58 H27       -14.3332   24.1750   -3.8739 H         1 YSD         0.0235
     59 H28       -14.1834   25.9575   -4.0385 H         1 YSD         0.0235
     60 H29       -16.1379   26.0552   -7.3260 H         1 YSD         0.0271
     61 H30       -14.3656   26.1442   -7.0467 H         1 YSD         0.0271
     62 H31       -15.6775   28.3325   -6.7170 H         1 YSD         0.0266
     63 H32       -14.6031   27.8372   -5.3653 H         1 YSD         0.0266
     64 H33       -17.6626   27.7821   -5.4812 H         1 YSD         0.0269
     65 H34       -16.5984   28.6382   -4.3144 H         1 YSD         0.0269
     66 H35       -15.6564   26.4487   -3.8870 H         1 YSD         0.0318
     67 H36       -16.0966   25.9702   -2.1125 H         1 YSD         0.0342
     68 H37       -17.8657   26.2306   -2.2839 H         1 YSD         0.0342
     69 H38       -16.7810   28.8079   -2.5734 H         1 YSD         0.0242
     70 H39       -15.2415   26.5982    0.4281 H         1 YSD         0.0463
     71 H40       -16.7939   25.9083   -0.1559 H         1 YSD         0.0463
     72 H41       -16.9188   30.1409   -0.6383 H         1 YSD         0.0463
     73 H42       -15.3581   29.6795    0.1219 H         1 YSD         0.0463
     74 H43       -16.7362   30.5376    1.8704 H         1 YSD         0.0815
     75 H44       -18.7803   30.2468    0.7688 H         1 YSD         0.2139
     76 H45       -15.5786   27.7643    4.0628 H         1 YSD         0.0077
     77 H46       -15.6605   29.6281    3.7845 H         1 YSD         0.0077
     78 H47       -18.0533   26.9368    1.6465 H         1 YSD         0.0815
     79 H48       -15.5647   26.1985    2.7237 H         1 YSD         0.2139
@<TRIPOS>BOND
     1    1    2 1  
     2    2    3 1  
     3    3    4 1  
     4    3    6 1  
     5    3    7 1  
     6    4    5 1  
     7    7    8 1  
     8    8    9 1  
     9    9   10 1  
    10    9   11 1  
    11   11   12 1  
    12   11   15 1  
    13   12   13 1  
    14   13   14 1  
    15   14   15 1  
    16   14   20 1  
    17   15   16 1  
    18   15   17 1  
    19   17   18 1  
    20   18   19 1  
    21   19   20 1  
    22   20   21 1  
    23   21   22 1  
    24   22   23 2  
    25   23   24 1  
    26   23   25 1  
    27   24   30 1  
    28   25   26 1  
    29   26   27 1  
    30   26   28 1  
    31   28   29 2  
    32   28   30 1  
    33   30   31 1  
    34    1   32 1  
    35    1   33 1  
    36    1   34 1  
    37    2   35 1  
    38    2   36 1  
    39    4   37 1  
    40    4   38 1  
    41    5   39 1  
    42    5   40 1  
    43    5   41 1  
    44    6   42 1  
    45    7   43 1  
    46    7   44 1  
    47    8   45 1  
    48    8   46 1  
    49    9   47 1  
    50   10   48 1  
    51   10   49 1  
    52   10   50 1  
    53   11   51 1  
    54   12   52 1  
    55   12   53 1  
    56   13   54 1  
    57   13   55 1  
    58   14   56 1  
    59   16   57 1  
    60   16   58 1  
    61   16   59 1  
    62   17   60 1  
    63   17   61 1  
    64   18   62 1  
    65   18   63 1  
    66   19   64 1  
    67   19   65 1  
    68   20   66 1  
    69   21   67 1  
    70   21   68 1  
    71   22   69 1  
    72   24   70 1  
    73   24   71 1  
    74   25   72 1  
    75   25   73 1  
    76   26   74 1  
    77   27   75 1  
    78   29   76 1  
    79   29   77 1  
    80   30   78 1  
    81   31   79 1  
@<TRIPOS>SUBSTRUCTURE
     1 YSD         1

