### 
### Created by X-TOOL on Mon Sep 10 21:13:11 2018
### 

@<TRIPOS>MOLECULE
3vrw_ligand
   91    93     1     0     0
SMALL
GAST_HUCK


@<TRIPOS>ATOM
      1 CAV       -16.5250   29.6780    0.2300 C.3       1 YS5         0.0103
      2 CBB       -17.0580   29.7140    1.6800 C.3       1 YS5         0.1006
      3 OAG       -18.4610   29.8360    1.6620 O.3       1 YS5        -0.3745
      4 CAY       -16.6680   28.5780    2.3940 C.2       1 YS5        -0.0134
      5 CAA       -16.0210   28.7190    3.6310 C.2       1 YS5        -0.1238
      6 CBC       -16.8740   27.3260    1.8350 C.3       1 YS5         0.1006
      7 OAH       -16.3680   26.3250    2.7020 O.3       1 YS5        -0.3745
      8 CAW       -16.1550   27.2480    0.4500 C.3       1 YS5         0.0103
      9 CAZ       -16.4620   28.3970   -0.3480 C.2       1 YS5        -0.0713
     10 CAJ       -16.8280   28.2850   -1.6890 C.2       1 YS5        -0.1079
     11 CAK       -16.2930   27.0360   -2.4250 C.3       1 YS5        -0.0441
     12 CBA       -16.6050   26.8300   -3.7790 C.3       1 YS5        -0.0345
     13 CAQ       -16.7910   27.9200   -4.6130 C.3       1 YS5        -0.0488
     14 CAP       -15.6380   28.0100   -5.6040 C.3       1 YS5        -0.0522
     15 CAT       -15.2180   26.6400   -6.2040 C.3       1 YS5        -0.0471
     16 CBI       -15.1000   25.5780   -5.1480 C.3       1 YS5        -0.0258
     17 CAF       -13.8870   25.8920   -4.1980 C.3       1 YS5        -0.0590
     18 CBG       -16.4550   25.5880   -4.4750 C.3       1 YS5        -0.0314
     19 CAU       -16.5070   24.2850   -3.6850 C.3       1 YS5        -0.0491
     20 CAS       -15.5660   23.3010   -4.4870 C.3       1 YS5        -0.0492
     21 CBF       -15.0380   24.1140   -5.6900 C.3       1 YS5        -0.0325
     22 CBD       -13.6200   23.6140   -6.1570 C.3       1 YS5        -0.0376
     23 CAE       -13.1000   24.4760   -7.3190 C.3       1 YS5        -0.0619
     24 CBE       -13.5890   22.1300   -6.6340 C.3       1 YS5        -0.0356
     25 CAX       -12.1300   21.6790   -6.9640 C.3       1 YS5        -0.0209
     26 CBH       -11.7340   20.2500   -6.5280 C.3       1 YS5         0.0659
     27 CAN       -10.2080   20.1110   -6.5340 C.3       1 YS5        -0.0268
     28 CAD        -9.5530   21.4420   -6.1500 C.3       1 YS5        -0.0627
     29 OAI       -12.1730   19.2780   -7.4570 O.3       1 YS5        -0.3886
     30 CAM       -12.3200   19.9320   -5.1360 C.3       1 YS5        -0.0268
     31 CAC       -11.7910   18.5850   -4.6030 C.3       1 YS5        -0.0627
     32 CAR       -14.4220   21.9400   -7.8930 C.3       1 YS5        -0.0499
     33 CAO       -15.8900   22.0360   -7.5260 C.3       1 YS5        -0.0530
     34 CAL       -16.7760   21.3960   -8.6000 C.3       1 YS5        -0.0559
     35 CAB       -17.8020   20.5860   -7.8100 C.3       1 YS5        -0.0653
     36 H         -15.5048   30.0605    0.2599 H         1 YS5         0.0463
     37 H         -17.2181   30.2627   -0.3749 H         1 YS5         0.0463
     38 H         -16.6291   30.5781    2.1873 H         1 YS5         0.0815
     39 H         -18.7907   29.8582    2.5633 H         1 YS5         0.2139
     40 H         -15.6720   27.8365    4.1672 H         1 YS5         0.0077
     41 H         -15.8674   29.7110    4.0558 H         1 YS5         0.0077
     42 H         -17.9424   27.1634    1.6930 H         1 YS5         0.0815
     43 H         -15.4273   26.4636    2.8345 H         1 YS5         0.2139
     44 H         -16.4967   26.3551   -0.0735 H         1 YS5         0.0463
     45 H         -15.0781   27.2120    0.6146 H         1 YS5         0.0463
     46 H         -17.4505   29.0295   -2.1853 H         1 YS5         0.0242
     47 H         -16.7569   26.1960   -1.9080 H         1 YS5         0.0342
     48 H         -15.2096   27.1549   -2.4105 H         1 YS5         0.0342
     49 H         -17.4848   26.5281   -3.2107 H         1 YS5         0.0318
     50 H         -16.8259   28.8308   -4.0152 H         1 YS5         0.0269
     51 H         -17.7277   27.8026   -5.1579 H         1 YS5         0.0269
     52 H         -14.7771   28.4066   -5.0657 H         1 YS5         0.0266
     53 H         -15.9684   28.6391   -6.4305 H         1 YS5         0.0266
     54 H         -14.2442   26.7592   -6.6790 H         1 YS5         0.0271
     55 H         -15.9827   26.3301   -6.9162 H         1 YS5         0.0271
     56 H         -12.9672   25.9197   -4.7823 H         1 YS5         0.0235
     57 H         -14.0435   26.8582   -3.7183 H         1 YS5         0.0235
     58 H         -13.8124   25.1150   -3.4372 H         1 YS5         0.0235
     59 H         -17.3314   25.5807   -5.1230 H         1 YS5         0.0310
     60 H         -17.5228   23.8996   -3.5975 H         1 YS5         0.0268
     61 H         -16.1774   24.4176   -2.6545 H         1 YS5         0.0268
     62 H         -16.1065   22.4128   -4.8142 H         1 YS5         0.0268
     63 H         -14.7489   22.9368   -3.8642 H         1 YS5         0.0268
     64 H         -15.6140   24.0105   -6.6096 H         1 YS5         0.0309
     65 H         -12.9915   23.6993   -5.2706 H         1 YS5         0.0304
     66 H         -13.7931   24.4095   -8.1576 H         1 YS5         0.0233
     67 H         -13.0205   25.5131   -6.9931 H         1 YS5         0.0233
     68 H         -12.1190   24.1144   -7.6272 H         1 YS5         0.0233
     69 H         -13.9965   21.5315   -5.8193 H         1 YS5         0.0304
     70 H         -11.4740   22.3545   -6.4150 H         1 YS5         0.0296
     71 H         -12.0474   21.6966   -8.0507 H         1 YS5         0.0296
     72 H          -9.8798   19.8276   -7.5340 H         1 YS5         0.0290
     73 H          -9.9166   19.3487   -5.8114 H         1 YS5         0.0290
     74 H          -9.8445   22.2092   -6.8673 H         1 YS5         0.0231
     75 H          -9.8812   21.7324   -5.1520 H         1 YS5         0.0231
     76 H          -8.4690   21.3279   -6.1585 H         1 YS5         0.0231
     77 H         -11.7964   19.4681   -8.3193 H         1 YS5         0.2102
     78 H         -13.4050   19.8708   -5.2208 H         1 YS5         0.0290
     79 H         -12.0228   20.7207   -4.4448 H         1 YS5         0.0290
     80 H         -12.0734   17.7876   -5.2904 H         1 YS5         0.0231
     81 H         -10.7049   18.6290   -4.5221 H         1 YS5         0.0231
     82 H         -12.2222   18.3897   -3.6211 H         1 YS5         0.0231
     83 H         -14.2135   20.9636   -8.3303 H         1 YS5         0.0268
     84 H         -14.1720   22.7113   -8.6215 H         1 YS5         0.0268
     85 H         -16.1574   23.0891   -7.4382 H         1 YS5         0.0265
     86 H         -16.0477   21.5072   -6.5860 H         1 YS5         0.0265
     87 H         -16.2029   20.7734   -9.2870 H         1 YS5         0.0263
     88 H         -17.2472   22.1414   -9.2407 H         1 YS5         0.0263
     89 H         -17.2865   19.8385   -7.2070 H         1 YS5         0.0230
     90 H         -18.3667   21.2534   -7.1590 H         1 YS5         0.0230
     91 H         -18.4824   20.0900   -8.5022 H         1 YS5         0.0230
@<TRIPOS>BOND
     1    1    2 1  
     2    1    9 1  
     3    2    3 1  
     4    2    4 1  
     5    4    5 2  
     6    4    6 1  
     7    6    7 1  
     8    6    8 1  
     9    8    9 1  
    10    9   10 2  
    11   10   11 1  
    12   11   12 1  
    13   12   13 1  
    14   12   18 1  
    15   13   14 1  
    16   14   15 1  
    17   15   16 1  
    18   16   17 1  
    19   16   18 1  
    20   16   21 1  
    21   18   19 1  
    22   19   20 1  
    23   20   21 1  
    24   21   22 1  
    25   22   23 1  
    26   22   24 1  
    27   24   25 1  
    28   24   32 1  
    29   25   26 1  
    30   26   27 1  
    31   26   29 1  
    32   26   30 1  
    33   27   28 1  
    34   30   31 1  
    35   32   33 1  
    36   33   34 1  
    37   34   35 1  
    38    1   36 1  
    39    1   37 1  
    40    2   38 1  
    41    3   39 1  
    42    5   40 1  
    43    5   41 1  
    44    6   42 1  
    45    7   43 1  
    46    8   44 1  
    47    8   45 1  
    48   10   46 1  
    49   11   47 1  
    50   11   48 1  
    51   12   49 1  
    52   13   50 1  
    53   13   51 1  
    54   14   52 1  
    55   14   53 1  
    56   15   54 1  
    57   15   55 1  
    58   17   56 1  
    59   17   57 1  
    60   17   58 1  
    61   18   59 1  
    62   19   60 1  
    63   19   61 1  
    64   20   62 1  
    65   20   63 1  
    66   21   64 1  
    67   22   65 1  
    68   23   66 1  
    69   23   67 1  
    70   23   68 1  
    71   24   69 1  
    72   25   70 1  
    73   25   71 1  
    74   27   72 1  
    75   27   73 1  
    76   28   74 1  
    77   28   75 1  
    78   28   76 1  
    79   29   77 1  
    80   30   78 1  
    81   30   79 1  
    82   31   80 1  
    83   31   81 1  
    84   31   82 1  
    85   32   83 1  
    86   32   84 1  
    87   33   85 1  
    88   33   86 1  
    89   34   87 1  
    90   34   88 1  
    91   35   89 1  
    92   35   90 1  
    93   35   91 1  
@<TRIPOS>SUBSTRUCTURE
     1 YS5         1

