### 
### Created by X-TOOL on Mon Sep 10 21:13:15 2018
### 

@<TRIPOS>MOLECULE
3vry_ligand
   50    54     1     0     0
SMALL
GAST_HUCK


@<TRIPOS>ATOM
      1 N1          3.6810   -7.4130   12.3810 N.pl3     1 B43        -0.3157
      2 C1          4.4150   -8.4770   11.9780 C.ar      1 B43         0.1172
      3 N4          5.5920   -8.2980   11.3290 N.ar      1 B43        -0.2727
      4 C23         6.3330   -9.3380   10.9240 C.ar      1 B43         0.0507
      5 N3          5.9230  -10.5960   11.1660 N.ar      1 B43        -0.2757
      6 C22         4.7490  -10.8450   11.8180 C.ar      1 B43         0.1411
      7 C2          3.9680   -9.7610   12.2430 C.ar      1 B43         0.0535
      8 N2          4.1200  -11.9810   12.2030 N.pl3     1 B43        -0.2456
      9 C17         4.4160  -13.4330   12.0600 C.3       1 B43         0.0668
     10 C21         4.6650  -13.9460   10.6600 C.3       1 B43        -0.0227
     11 C20         5.1480  -15.3670   10.9410 C.3       1 B43        -0.0502
     12 C19         5.8400  -15.3390   12.3100 C.3       1 B43        -0.0502
     13 C18         5.6010  -13.9490   12.8850 C.3       1 B43        -0.0227
     14 C16         2.9950  -11.6650   12.8200 C.2       1 B43         0.0405
     15 C3          2.8560  -10.3030   12.9010 C.2       1 B43        -0.0100
     16 C4          1.6070   -9.7830   13.5170 C.ar      1 B43        -0.0471
     17 C15         1.1270  -10.3220   14.7160 C.ar      1 B43        -0.0693
     18 C14        -0.1050   -9.8910   15.2340 C.ar      1 B43        -0.0325
     19 C7         -0.8630   -8.9490   14.5390 C.ar      1 B43         0.1123
     20 C6         -0.3890   -8.4640   13.3200 C.ar      1 B43        -0.0325
     21 C5          0.8310   -8.8790   12.7960 C.ar      1 B43        -0.0693
     22 O          -2.0790   -8.4950   15.0140 O.3       1 B43        -0.2602
     23 C8         -2.2930   -8.1540   16.3270 C.ar      1 B43         0.1153
     24 C13        -3.4400   -8.5870   17.0050 C.ar      1 B43        -0.0286
     25 C12        -3.6570   -8.2160   18.3380 C.ar      1 B43        -0.0697
     26 C11        -2.7250   -7.3950   18.9880 C.ar      1 B43        -0.0723
     27 C10        -1.5860   -6.9530   18.3080 C.ar      1 B43        -0.0697
     28 C9         -1.3780   -7.3300   16.9820 C.ar      1 B43        -0.0286
     29 H1          2.7883   -7.5600   12.8733 H         1 B43         0.1824
     30 H2          4.0154   -6.4566   12.1953 H         1 B43         0.1824
     31 H3          7.2659   -9.1652   10.3997 H         1 B43         0.0981
     32 H4          3.5149  -13.9428   12.4316 H         1 B43         0.0648
     33 H5          5.4359  -13.3535   10.1456 H         1 B43         0.0295
     34 H6          3.7422  -13.9458   10.0614 H         1 B43         0.0295
     35 H7          5.8587  -15.6857   10.1643 H         1 B43         0.0266
     36 H8          4.2938  -16.0597   10.9629 H         1 B43         0.0266
     37 H9          6.9184  -15.5226   12.1949 H         1 B43         0.0266
     38 H10         5.4063  -16.1037   12.9711 H         1 B43         0.0266
     39 H11         5.3455  -14.0019   13.9536 H         1 B43         0.0295
     40 H12         6.4850  -13.3083   12.7506 H         1 B43         0.0295
     41 H13         2.2779  -12.3859   13.2100 H         1 B43         0.0962
     42 H14         1.7055  -11.0713   15.2442 H         1 B43         0.0550
     43 H15        -0.4670  -10.2906   16.1744 H         1 B43         0.0544
     44 H16        -0.9855   -7.7467   12.7679 H         1 B43         0.0544
     45 H17         1.1733   -8.5034   11.8385 H         1 B43         0.0550
     46 H18        -4.1636   -9.2127   16.4950 H         1 B43         0.0552
     47 H19        -4.5399   -8.5615   18.8636 H         1 B43         0.0590
     48 H20        -2.8875   -7.1025   20.0191 H         1 B43         0.0527
     49 H21        -0.8657   -6.3181   18.8111 H         1 B43         0.0590
     50 H22        -0.4975   -6.9797   16.4555 H         1 B43         0.0552
@<TRIPOS>BOND
     1    1    2 1  
     2    2    3 ar 
     3    2    7 ar 
     4    3    4 ar 
     5    4    5 ar 
     6    5    6 ar 
     7    6    7 ar 
     8    6    8 1  
     9    7   15 1  
    10    8    9 1  
    11    8   14 1  
    12    9   10 1  
    13    9   13 1  
    14   10   11 1  
    15   11   12 1  
    16   12   13 1  
    17   14   15 2  
    18   15   16 1  
    19   16   17 ar 
    20   16   21 ar 
    21   17   18 ar 
    22   18   19 ar 
    23   19   20 ar 
    24   19   22 1  
    25   20   21 ar 
    26   22   23 1  
    27   23   24 ar 
    28   23   28 ar 
    29   24   25 ar 
    30   25   26 ar 
    31   26   27 ar 
    32   27   28 ar 
    33    1   29 1  
    34    1   30 1  
    35    4   31 1  
    36    9   32 1  
    37   10   33 1  
    38   10   34 1  
    39   11   35 1  
    40   11   36 1  
    41   12   37 1  
    42   12   38 1  
    43   13   39 1  
    44   13   40 1  
    45   14   41 1  
    46   17   42 1  
    47   18   43 1  
    48   20   44 1  
    49   21   45 1  
    50   24   46 1  
    51   25   47 1  
    52   26   48 1  
    53   27   49 1  
    54   28   50 1  
@<TRIPOS>SUBSTRUCTURE
     1 B43         1

