### 
### Created by X-TOOL on Mon Sep 10 21:13:15 2018
### 

@<TRIPOS>MOLECULE
3vs3_ligand
   72    77     1     0     0
SMALL
GAST_HUCK


@<TRIPOS>ATOM
      1 NAK         0.7620    2.2500   13.0380 N.pl3     1 VSE        -0.3157
      2 C6         -0.0460    3.3260   12.9360 C.ar      1 VSE         0.1172
      3 C5          0.4600    4.6200   13.0450 C.ar      1 VSE         0.0535
      4 CAI         1.7170    5.1730   13.2820 C.2       1 VSE        -0.0100
      5 CAJ         3.0740    4.5740   13.4400 C.ar      1 VSE        -0.0471
      6 CAL         3.9480    5.0830   14.3990 C.ar      1 VSE        -0.0693
      7 CAM         5.2330    4.5610   14.5230 C.ar      1 VSE        -0.0325
      8 CAN         5.6460    3.5430   13.6720 C.ar      1 VSE         0.1123
      9 OBD         6.9060    3.0120   13.7580 O.3       1 VSE        -0.2602
     10 CBE         7.4570    2.6040   14.9420 C.ar      1 VSE         0.1153
     11 CBF         8.7190    3.0670   15.2960 C.ar      1 VSE        -0.0286
     12 CBG         9.3030    2.6540   16.4860 C.ar      1 VSE        -0.0697
     13 CBH         8.6320    1.7690   17.3230 C.ar      1 VSE        -0.0723
     14 CBI         7.3740    1.2990   16.9630 C.ar      1 VSE        -0.0697
     15 CBJ         6.7860    1.7110   15.7690 C.ar      1 VSE        -0.0286
     16 CAO         4.7840    3.0640   12.6930 C.ar      1 VSE        -0.0325
     17 CAP         3.5010    3.5860   12.5690 C.ar      1 VSE        -0.0693
     18 CAH         1.5460    6.5380   13.2800 C.2       1 VSE         0.0405
     19 NAG         0.2630    6.8350   13.0800 N.pl3     1 VSE        -0.2456
     20 C4         -0.4290    5.6920   12.9480 C.ar      1 VSE         0.1411
     21 N3         -1.7440    5.4400   12.7320 N.ar      1 VSE        -0.2757
     22 C2         -2.1970    4.1830   12.6220 C.ar      1 VSE         0.0507
     23 N1         -1.3690    3.1350   12.7240 N.ar      1 VSE        -0.2727
     24 CAQ        -0.2030    8.2500   13.0670 C.3       1 VSE         0.0672
     25 CAV        -1.3920    8.5180   13.9860 C.3       1 VSE        -0.0176
     26 CAU        -1.5980   10.0280   14.0670 C.3       1 VSE        -0.0069
     27 CAT        -1.8750   10.5860   12.6710 C.3       1 VSE        -0.0203
     28 CAS        -0.7150   10.2600   11.7330 C.3       1 VSE        -0.0069
     29 CAR        -0.4890    8.7560   11.6600 C.3       1 VSE        -0.0176
     30 NAW        -1.8870   12.0430   12.7400 N.4       1 VSE         0.2448
     31 CAX        -2.8870   12.7020   11.9150 C.3       1 VSE         0.0097
     32 CAY        -2.5270   14.1790   11.9520 C.3       1 VSE         0.0092
     33 NAZ        -2.5090   14.5130   13.3640 N.4       1 VSE         0.2405
     34 CBC        -3.4560   15.5050   13.8500 C.3       1 VSE        -0.0427
     35 CBA        -1.5530   13.8990   14.2810 C.3       1 VSE         0.0092
     36 CBB        -0.9040   12.6940   13.5990 C.3       1 VSE         0.0097
     37 H1          0.3694    1.3014   12.9547 H         1 VSE         0.1824
     38 H2          1.7713    2.3773   13.1992 H         1 VSE         0.1824
     39 H3          3.6265    5.8877   15.0503 H         1 VSE         0.0550
     40 H4          5.9073    4.9466   15.2791 H         1 VSE         0.0544
     41 H5          9.2477    3.7512   14.6423 H         1 VSE         0.0552
     42 H6         10.2841    3.0222   16.7633 H         1 VSE         0.0590
     43 H7          9.0879    1.4469   18.2522 H         1 VSE         0.0527
     44 H8          6.8487    0.6094   17.6138 H         1 VSE         0.0590
     45 H9          5.8089    1.3365   15.4861 H         1 VSE         0.0552
     46 H10         5.1135    2.2789   12.0221 H         1 VSE         0.0544
     47 H11         2.8377    3.2207   11.7933 H         1 VSE         0.0550
     48 H12         2.3419    7.2678   13.4211 H         1 VSE         0.0962
     49 H13        -3.2530    4.0115   12.4473 H         1 VSE         0.0981
     50 H14         0.6330    8.8500   13.4557 H         1 VSE         0.0648
     51 H15        -1.1863    8.1155   14.9888 H         1 VSE         0.0297
     52 H16        -2.2944    8.0401   13.5771 H         1 VSE         0.0297
     53 H17        -0.6921   10.4992   14.4759 H         1 VSE         0.0321
     54 H18        -2.4530   10.2457   14.7240 H         1 VSE         0.0321
     55 H19        -2.8256   10.1919   12.2823 H         1 VSE         0.0851
     56 H20         0.1989   10.7448   12.1067 H         1 VSE         0.0321
     57 H21        -0.9464   10.6397   10.7269 H         1 VSE         0.0321
     58 H22        -1.3884    8.2631   11.2625 H         1 VSE         0.0297
     59 H23         0.3677    8.5394   11.0049 H         1 VSE         0.0297
     60 H24        -2.5359   12.0299   13.5112 H         1 VSE         0.2040
     61 H25        -3.8940   12.5404   12.3271 H         1 VSE         0.0868
     62 H26        -2.8474   12.3215   10.8837 H         1 VSE         0.0868
     63 H27        -3.2822   14.7768   11.4207 H         1 VSE         0.0868
     64 H28        -1.5391   14.3499   11.4994 H         1 VSE         0.0868
     65 H29        -3.1672   13.7738   13.5547 H         1 VSE         0.2035
     66 H30        -3.3168   15.6455   14.9321 H         1 VSE         0.0778
     67 H31        -4.4818   15.1595   13.6542 H         1 VSE         0.0778
     68 H32        -3.2853   16.4599   13.3313 H         1 VSE         0.0778
     69 H33        -2.0758   13.5692   15.1909 H         1 VSE         0.0868
     70 H34        -0.7776   14.6317   14.5489 H         1 VSE         0.0868
     71 H35        -0.0503   13.0302   12.9923 H         1 VSE         0.0868
     72 H36        -0.5542   11.9834   14.3623 H         1 VSE         0.0868
@<TRIPOS>BOND
     1    1    2 1  
     2    2    3 ar 
     3    2   23 ar 
     4    3    4 1  
     5    3   20 ar 
     6    4    5 1  
     7    4   18 2  
     8    5    6 ar 
     9    5   17 ar 
    10    6    7 ar 
    11    7    8 ar 
    12    8    9 1  
    13    8   16 ar 
    14    9   10 1  
    15   10   11 ar 
    16   10   15 ar 
    17   11   12 ar 
    18   12   13 ar 
    19   13   14 ar 
    20   14   15 ar 
    21   16   17 ar 
    22   18   19 1  
    23   19   20 1  
    24   19   24 1  
    25   20   21 ar 
    26   21   22 ar 
    27   22   23 ar 
    28   24   25 1  
    29   24   29 1  
    30   25   26 1  
    31   26   27 1  
    32   27   28 1  
    33   27   30 1  
    34   28   29 1  
    35   30   31 1  
    36   30   36 1  
    37   31   32 1  
    38   32   33 1  
    39   33   34 1  
    40   33   35 1  
    41   35   36 1  
    42    1   37 1  
    43    1   38 1  
    44    6   39 1  
    45    7   40 1  
    46   11   41 1  
    47   12   42 1  
    48   13   43 1  
    49   14   44 1  
    50   15   45 1  
    51   16   46 1  
    52   17   47 1  
    53   18   48 1  
    54   22   49 1  
    55   24   50 1  
    56   25   51 1  
    57   25   52 1  
    58   26   53 1  
    59   26   54 1  
    60   27   55 1  
    61   28   56 1  
    62   28   57 1  
    63   29   58 1  
    64   29   59 1  
    65   30   60 1  
    66   31   61 1  
    67   31   62 1  
    68   32   63 1  
    69   32   64 1  
    70   33   65 1  
    71   34   66 1  
    72   34   67 1  
    73   34   68 1  
    74   35   69 1  
    75   35   70 1  
    76   36   71 1  
    77   36   72 1  
@<TRIPOS>SUBSTRUCTURE
     1 VSE         1

