### 
### Created by X-TOOL on Mon Sep 10 21:13:16 2018
### 

@<TRIPOS>MOLECULE
3vtb_ligand
   88    93     1     0     0
SMALL
GAST_HUCK


@<TRIPOS>ATOM
      1 C29         9.7720   -1.0620   27.8090 C.3       1 TKA         0.0087
      2 C30         8.7920   -2.2970   27.5990 C.3       1 TKA        -0.0412
      3 C31         7.3010   -1.7880   27.3790 C.3       1 TKA        -0.0399
      4 C32         6.8400   -1.0030   28.6700 C.3       1 TKA        -0.0473
      5 C33         7.7880    0.2660   28.9130 C.3       1 TKA        -0.0399
      6 C34         9.2760   -0.2350   29.1370 C.3       1 TKA        -0.0412
      7 C37         9.6700   -0.1050   26.5280 C.3       1 TKA        -0.0412
      8 C36         7.2270   -0.8330   26.1030 C.3       1 TKA        -0.0473
      9 C38         7.7290    1.2260   27.6380 C.3       1 TKA        -0.0473
     10 C35         8.1900    0.4200   26.3300 C.3       1 TKA        -0.0399
     11 C25        11.1890   -1.6950   27.9480 C.3       1 TKA         0.1211
     12 C24        12.1830   -0.6620   28.1470 C.1       1 TKA        -0.0704
     13 O03        11.2480   -2.5810   29.0770 O.3       1 TKA        -0.3787
     14 C23        12.9310    0.2400   28.2900 C.1       1 TKA        -0.0994
     15 C22        13.7610    1.4000   28.4430 C.3       1 TKA         0.0121
     16 C20        13.0410    2.5410   27.6800 C.3       1 TKA        -0.0295
     17 C21        11.9080    3.0980   28.6240 C.3       1 TKA        -0.0613
     18 C17        14.1310    3.6060   27.2420 C.3       1 TKA        -0.0298
     19 C13        13.6650    4.8330   26.3980 C.3       1 TKA        -0.0161
     20 C14        15.1090    5.3820   26.0480 C.3       1 TKA        -0.0062
     21 C15        15.8420    4.1320   25.4820 C.3       1 TKA        -0.0393
     22 C16        15.3090    3.0080   26.3610 C.3       1 TKA        -0.0470
     23 C12        12.9040    5.9720   27.2120 C.3       1 TKA        -0.0431
     24 C11        12.7860    7.2870   26.3450 C.3       1 TKA        -0.0423
     25 C09        14.2000    7.7590   25.9040 C.3       1 TKA        -0.0234
     26 C08        14.8790    6.6100   25.0950 C.2       1 TKA        -0.0718
     27 C18        12.7460    4.3610   25.1450 C.3       1 TKA        -0.0570
     28 C07        15.2000    6.6250   23.7930 C.2       1 TKA        -0.1089
     29 C06        14.9960    7.7190   22.8590 C.2       1 TKA        -0.1086
     30 C05        14.6800    7.6570   21.5770 C.2       1 TKA        -0.0657
     31 C04        14.5420    8.9940   20.8170 C.3       1 TKA         0.0150
     32 C03        15.1680    8.9610   19.3860 C.3       1 TKA         0.1023
     33 C02        14.6770    7.7290   18.5700 C.2       1 TKA        -0.0127
     34 C01        15.0440    6.4000   19.2520 C.3       1 TKA         0.1023
     35 C10        14.4380    6.3890   20.7030 C.3       1 TKA         0.0150
     36 C28        13.9550    7.7990   17.4120 C.2       1 TKA        -0.1238
     37 O01        14.4820    5.3100   18.4630 O.3       1 TKA        -0.3742
     38 O02        16.6110    8.8940   19.4860 O.3       1 TKA        -0.3742
     39 H           8.8271   -2.9434   28.4883 H         1 TKA         0.0274
     40 H           9.1138   -2.8696   26.7166 H         1 TKA         0.0274
     41 H           6.6395   -2.6525   27.2207 H         1 TKA         0.0301
     42 H           6.8970   -1.6715   29.5417 H         1 TKA         0.0271
     43 H           5.8028   -0.6617   28.5369 H         1 TKA         0.0271
     44 H           7.4471    0.8164   29.8023 H         1 TKA         0.0301
     45 H           9.9352    0.6305   29.2990 H         1 TKA         0.0274
     46 H           9.3137   -0.8944   30.0166 H         1 TKA         0.0274
     47 H           9.9750   -0.6675   25.6333 H         1 TKA         0.0274
     48 H          10.3414    0.7552   26.6669 H         1 TKA         0.0274
     49 H           6.1935   -0.4826   25.9648 H         1 TKA         0.0271
     50 H           7.5488   -1.3874   25.2091 H         1 TKA         0.0271
     51 H           8.4006    2.0830   27.7946 H         1 TKA         0.0271
     52 H           6.6993    1.5875   27.5002 H         1 TKA         0.0271
     53 H           8.1459    1.0843   25.4543 H         1 TKA         0.0301
     54 H          11.4200   -2.2562   27.0306 H         1 TKA         0.0737
     55 H          12.1159   -2.9633   29.1331 H         1 TKA         0.2111
     56 H          14.7558    1.2185   28.0101 H         1 TKA         0.0400
     57 H          13.8657    1.6580   29.5072 H         1 TKA         0.0400
     58 H          12.5683    2.1396   26.7715 H         1 TKA         0.0310
     59 H          11.3733    3.9127   28.1138 H         1 TKA         0.0233
     60 H          12.3587    3.4799   29.5519 H         1 TKA         0.0233
     61 H          11.2014    2.2902   28.8649 H         1 TKA         0.0233
     62 H          14.5584    3.9900   28.1800 H         1 TKA         0.0311
     63 H          15.6389    5.7311   26.9465 H         1 TKA         0.0478
     64 H          16.9328    4.2317   25.5829 H         1 TKA         0.0293
     65 H          15.5852    3.9656   24.4254 H         1 TKA         0.0293
     66 H          14.9292    2.1886   25.7330 H         1 TKA         0.0270
     67 H          16.1101    2.6294   27.0128 H         1 TKA         0.0270
     68 H          13.4636    6.1944   28.1325 H         1 TKA         0.0274
     69 H          11.8954    5.6185   27.4724 H         1 TKA         0.0274
     70 H          12.3081    8.0767   26.9434 H         1 TKA         0.0290
     71 H          12.1753    7.0823   25.4533 H         1 TKA         0.0290
     72 H          14.8054    7.9950   26.7916 H         1 TKA         0.0437
     73 H          14.1112    8.6548   25.2719 H         1 TKA         0.0437
     74 H          13.2699    3.5746   24.5818 H         1 TKA         0.0237
     75 H          12.5566    5.2203   24.4850 H         1 TKA         0.0237
     76 H          11.7892    3.9683   25.5194 H         1 TKA         0.0237
     77 H          15.6618    5.7230   23.3942 H         1 TKA         0.0219
     78 H          15.1195    8.7205   23.2684 H         1 TKA         0.0219
     79 H          15.0449    9.7799   21.3996 H         1 TKA         0.0490
     80 H          13.4725    9.2338   20.7243 H         1 TKA         0.0490
     81 H          14.8810    9.8800   18.8540 H         1 TKA         0.0819
     82 H          16.1375    6.2939   19.3070 H         1 TKA         0.0819
     83 H          13.3506    6.2531   20.6081 H         1 TKA         0.0490
     84 H          14.8697    5.5297   21.2371 H         1 TKA         0.0490
     85 H          13.7235    8.7681   16.9724 H         1 TKA         0.0077
     86 H          13.6111    6.8857   16.9287 H         1 TKA         0.0077
     87 H          13.5393    5.4140   18.4076 H         1 TKA         0.2139
     88 H          16.9887    8.9082   18.6144 H         1 TKA         0.2139
@<TRIPOS>BOND
     1    1    2 1  
     2    1    6 1  
     3    1    7 1  
     4    1   11 1  
     5    2    3 1  
     6    3    4 1  
     7    3    8 1  
     8    4    5 1  
     9    5    6 1  
    10    5    9 1  
    11    7   10 1  
    12    8   10 1  
    13    9   10 1  
    14   11   12 1  
    15   11   13 1  
    16   12   14 3  
    17   14   15 1  
    18   15   16 1  
    19   16   17 1  
    20   16   18 1  
    21   18   19 1  
    22   18   22 1  
    23   19   20 1  
    24   19   23 1  
    25   19   27 1  
    26   20   21 1  
    27   20   26 1  
    28   21   22 1  
    29   23   24 1  
    30   24   25 1  
    31   25   26 1  
    32   26   28 2  
    33   28   29 1  
    34   29   30 2  
    35   30   31 1  
    36   30   35 1  
    37   31   32 1  
    38   32   33 1  
    39   32   38 1  
    40   33   34 1  
    41   33   36 2  
    42   34   35 1  
    43   34   37 1  
    44    2   39 1  
    45    2   40 1  
    46    3   41 1  
    47    4   42 1  
    48    4   43 1  
    49    5   44 1  
    50    6   45 1  
    51    6   46 1  
    52    7   47 1  
    53    7   48 1  
    54    8   49 1  
    55    8   50 1  
    56    9   51 1  
    57    9   52 1  
    58   10   53 1  
    59   11   54 1  
    60   13   55 1  
    61   15   56 1  
    62   15   57 1  
    63   16   58 1  
    64   17   59 1  
    65   17   60 1  
    66   17   61 1  
    67   18   62 1  
    68   20   63 1  
    69   21   64 1  
    70   21   65 1  
    71   22   66 1  
    72   22   67 1  
    73   23   68 1  
    74   23   69 1  
    75   24   70 1  
    76   24   71 1  
    77   25   72 1  
    78   25   73 1  
    79   27   74 1  
    80   27   75 1  
    81   27   76 1  
    82   28   77 1  
    83   29   78 1  
    84   31   79 1  
    85   31   80 1  
    86   32   81 1  
    87   34   82 1  
    88   35   83 1  
    89   35   84 1  
    90   36   85 1  
    91   36   86 1  
    92   37   87 1  
    93   38   88 1  
@<TRIPOS>SUBSTRUCTURE
     1 TKA         1

