### 
### Created by X-TOOL on Mon Sep 10 21:13:13 2018
### 

@<TRIPOS>MOLECULE
3vtc_ligand
   91    96     1     0     0
SMALL
GAST_HUCK


@<TRIPOS>ATOM
      1 C29         3.6850   -1.1560   35.4470 C.3       1 TK3        -0.0252
      2 C30         2.3590   -1.2190   36.3030 C.3       1 TK3        -0.0444
      3 C31         1.3130   -0.1880   35.7470 C.3       1 TK3        -0.0400
      4 C32         1.9060    1.2640   35.8390 C.3       1 TK3        -0.0473
      5 C33         3.2190    1.3490   34.9820 C.3       1 TK3        -0.0400
      6 C34         4.2600    0.3180   35.5220 C.3       1 TK3        -0.0444
      7 C37         3.3320   -1.4720   33.9440 C.3       1 TK3        -0.0444
      8 C36         0.9880   -0.5250   34.2490 C.3       1 TK3        -0.0473
      9 C38         2.9010    1.0130   33.4880 C.3       1 TK3        -0.0473
     10 C35         2.2950   -0.4330   33.3930 C.3       1 TK3        -0.0400
     11 C26         4.7440   -2.2220   35.8850 C.3       1 TK3        -0.0099
     12 C25         4.9830   -2.5210   37.4010 C.3       1 TK3         0.1160
     13 C24         5.7300   -1.4160   38.0030 C.1       1 TK3        -0.0709
     14 C23         6.3040   -0.4770   38.4430 C.1       1 TK3        -0.0994
     15 C22         6.9730    0.7240   38.9330 C.3       1 TK3         0.0121
     16 C20         6.6740    1.9820   38.0580 C.3       1 TK3        -0.0295
     17 C17         7.7620    3.1100   38.2120 C.3       1 TK3        -0.0298
     18 C21         5.2410    2.4310   38.4530 C.3       1 TK3        -0.0613
     19 O03         5.7390   -3.7020   37.5440 O.3       1 TK3        -0.3793
     20 C13         7.6670    4.3940   37.3160 C.3       1 TK3        -0.0161
     21 C14         9.0900    4.9770   37.5900 C.3       1 TK3        -0.0062
     22 C15        10.0280    3.7810   37.3850 C.3       1 TK3        -0.0393
     23 C16         9.2270    2.6060   37.9710 C.3       1 TK3        -0.0470
     24 C12         6.6460    5.4800   37.8090 C.3       1 TK3        -0.0431
     25 C11         6.8420    6.8630   37.1270 C.3       1 TK3        -0.0423
     26 C09         8.3110    7.3430   37.2020 C.3       1 TK3        -0.0234
     27 C08         9.3070    6.2640   36.7570 C.2       1 TK3        -0.0718
     28 C18         7.4120    4.0160   35.7990 C.3       1 TK3        -0.0570
     29 C07        10.2500    6.3790   35.8060 C.2       1 TK3        -0.1089
     30 C06        10.5440    7.5570   34.9810 C.2       1 TK3        -0.1086
     31 C05        11.0880    7.5770   33.7590 C.2       1 TK3        -0.0657
     32 C04        11.3430    8.9040   33.0670 C.3       1 TK3         0.0150
     33 C03        12.6990    9.0090   32.3130 C.3       1 TK3         0.1023
     34 C02        12.9050    7.8050   31.3970 C.2       1 TK3        -0.0127
     35 C01        12.8240    6.4760   32.1620 C.3       1 TK3         0.1023
     36 C10        11.5010    6.3390   32.9500 C.3       1 TK3         0.0150
     37 C28        13.0770    7.9050   30.0630 C.2       1 TK3        -0.1238
     38 O01        12.9350    5.3950   31.2500 O.3       1 TK3        -0.3742
     39 O02        13.7840    9.0650   33.2490 O.3       1 TK3        -0.3742
     40 H           2.5895   -0.9754   37.3506 H         1 TK3         0.0273
     41 H           1.9366   -2.2331   36.2467 H         1 TK3         0.0273
     42 H           0.3906   -0.2453   36.3435 H         1 TK3         0.0301
     43 H           2.1373    1.4997   36.8882 H         1 TK3         0.0271
     44 H           1.1701    1.9856   35.4546 H         1 TK3         0.0271
     45 H           3.6355    2.3648   35.0501 H         1 TK3         0.0301
     46 H           5.1756    0.3790   34.9154 H         1 TK3         0.0273
     47 H           4.4968    0.5596   36.5687 H         1 TK3         0.0273
     48 H           2.9020   -2.4823   33.8779 H         1 TK3         0.0273
     49 H           4.2493   -1.4235   33.3389 H         1 TK3         0.0273
     50 H           0.2480    0.1925   33.8649 H         1 TK3         0.0271
     51 H           0.5790   -1.5440   34.1837 H         1 TK3         0.0271
     52 H           3.8270    1.0619   32.8962 H         1 TK3         0.0271
     53 H           2.1758    1.7408   33.0950 H         1 TK3         0.0271
     54 H           2.0634   -0.6632   32.3426 H         1 TK3         0.0301
     55 H           5.7098   -1.8965   35.4711 H         1 TK3         0.0305
     56 H           4.4468   -3.1728   35.4185 H         1 TK3         0.0305
     57 H           4.0146   -2.6369   37.9097 H         1 TK3         0.0731
     58 H           8.0585    0.5463   38.9338 H         1 TK3         0.0400
     59 H           6.6330    0.9215   39.9603 H         1 TK3         0.0400
     60 H           6.6669    1.6824   36.9996 H         1 TK3         0.0310
     61 H           7.6824    3.4423   39.2576 H         1 TK3         0.0311
     62 H           4.5434    1.5912   38.3182 H         1 TK3         0.0233
     63 H           4.9309    3.2713   37.8144 H         1 TK3         0.0233
     64 H           5.2334    2.7485   39.5061 H         1 TK3         0.0233
     65 H           5.8850   -3.8734   38.4669 H         1 TK3         0.2111
     66 H           9.1641    5.2766   38.6458 H         1 TK3         0.0478
     67 H          10.9742    3.9235   37.9275 H         1 TK3         0.0293
     68 H          10.2380    3.6222   36.3170 H         1 TK3         0.0293
     69 H           9.2231    1.7638   37.2634 H         1 TK3         0.0270
     70 H           9.6748    2.2834   38.9225 H         1 TK3         0.0270
     71 H           6.7675    5.6060   38.8950 H         1 TK3         0.0274
     72 H           5.6275    5.1254   37.5927 H         1 TK3         0.0274
     73 H           6.2009    7.6015   37.6307 H         1 TK3         0.0290
     74 H           6.5482    6.7826   36.0700 H         1 TK3         0.0290
     75 H           8.5372    7.6244   38.2410 H         1 TK3         0.0437
     76 H           8.4285    8.2213   36.5503 H         1 TK3         0.0437
     77 H           8.1409    3.2551   35.4833 H         1 TK3         0.0237
     78 H           7.5249    4.9137   35.1734 H         1 TK3         0.0237
     79 H           6.3932    3.6167   35.6869 H         1 TK3         0.0237
     80 H          10.8655    5.4986   35.6274 H         1 TK3         0.0219
     81 H          10.2906    8.5242   35.4126 H         1 TK3         0.0219
     82 H          11.3158    9.6961   33.8298 H         1 TK3         0.0490
     83 H          10.5353    9.0685   32.3386 H         1 TK3         0.0490
     84 H          12.6968    9.9265   31.7063 H         1 TK3         0.0819
     85 H          13.6614    6.4324   32.8739 H         1 TK3         0.0819
     86 H          10.6982    6.1197   32.2307 H         1 TK3         0.0490
     87 H          11.6075    5.4963   33.6489 H         1 TK3         0.0490
     88 H          13.1246    8.8858   29.5921 H         1 TK3         0.0077
     89 H          13.1683    7.0050   29.4568 H         1 TK3         0.0077
     90 H          12.2004    5.4134   30.6479 H         1 TK3         0.2139
     91 H          14.6036    9.1543   32.7770 H         1 TK3         0.2139
@<TRIPOS>BOND
     1    1    2 1  
     2    1    6 1  
     3    1    7 1  
     4    1   11 1  
     5    2    3 1  
     6    3    4 1  
     7    3    8 1  
     8    4    5 1  
     9    5    6 1  
    10    5    9 1  
    11    7   10 1  
    12    8   10 1  
    13    9   10 1  
    14   11   12 1  
    15   12   13 1  
    16   12   19 1  
    17   13   14 3  
    18   14   15 1  
    19   15   16 1  
    20   16   17 1  
    21   16   18 1  
    22   17   20 1  
    23   17   23 1  
    24   20   21 1  
    25   20   24 1  
    26   20   28 1  
    27   21   22 1  
    28   21   27 1  
    29   22   23 1  
    30   24   25 1  
    31   25   26 1  
    32   26   27 1  
    33   27   29 2  
    34   29   30 1  
    35   30   31 2  
    36   31   32 1  
    37   31   36 1  
    38   32   33 1  
    39   33   34 1  
    40   33   39 1  
    41   34   35 1  
    42   34   37 2  
    43   35   36 1  
    44   35   38 1  
    45    2   40 1  
    46    2   41 1  
    47    3   42 1  
    48    4   43 1  
    49    4   44 1  
    50    5   45 1  
    51    6   46 1  
    52    6   47 1  
    53    7   48 1  
    54    7   49 1  
    55    8   50 1  
    56    8   51 1  
    57    9   52 1  
    58    9   53 1  
    59   10   54 1  
    60   11   55 1  
    61   11   56 1  
    62   12   57 1  
    63   15   58 1  
    64   15   59 1  
    65   16   60 1  
    66   17   61 1  
    67   18   62 1  
    68   18   63 1  
    69   18   64 1  
    70   19   65 1  
    71   21   66 1  
    72   22   67 1  
    73   22   68 1  
    74   23   69 1  
    75   23   70 1  
    76   24   71 1  
    77   24   72 1  
    78   25   73 1  
    79   25   74 1  
    80   26   75 1  
    81   26   76 1  
    82   28   77 1  
    83   28   78 1  
    84   28   79 1  
    85   29   80 1  
    86   30   81 1  
    87   32   82 1  
    88   32   83 1  
    89   33   84 1  
    90   35   85 1  
    91   36   86 1  
    92   36   87 1  
    93   37   88 1  
    94   37   89 1  
    95   38   90 1  
    96   39   91 1  
@<TRIPOS>SUBSTRUCTURE
     1 TK3         1

