### 
### Created by X-TOOL on Mon Sep 10 21:13:15 2018
### 

@<TRIPOS>MOLECULE
3vtd_ligand
   91    96     1     0     0
SMALL
GAST_HUCK


@<TRIPOS>ATOM
      1 C29         9.3500   -2.8450   27.9920 C.3       1 TKD        -0.0252
      2 C30         8.7310   -2.9410   29.4380 C.3       1 TKD        -0.0444
      3 C31         7.5440   -1.9260   29.5840 C.3       1 TKD        -0.0400
      4 C32         8.0790   -0.4630   29.3640 C.3       1 TKD        -0.0473
      5 C33         8.6910   -0.3380   27.9350 C.3       1 TKD        -0.0400
      6 C34         9.8610   -1.3670   27.7830 C.3       1 TKD        -0.0444
      7 C37         8.2180   -3.1220   26.9260 C.3       1 TKD        -0.0444
      8 C36         6.4380   -2.2590   28.5170 C.3       1 TKD        -0.0473
      9 C38         7.5910   -0.6450   26.8710 C.3       1 TKD        -0.0473
     10 C35         7.0400   -2.1040   27.0820 C.3       1 TKD        -0.0400
     11 C26        10.4790   -3.9100   27.7140 C.3       1 TKD        -0.0099
     12 C25        11.6460   -4.1850   28.7290 C.3       1 TKD         0.1160
     13 C24        12.5780   -3.0860   28.6570 C.1       1 TKD        -0.0709
     14 C23        13.3010   -2.1640   28.5930 C.1       1 TKD        -0.0994
     15 C22        14.1560   -0.9990   28.5130 C.3       1 TKD         0.0121
     16 C20        13.4140    0.3070   28.1280 C.3       1 TKD        -0.0295
     17 C17        14.3720    1.4100   27.5190 C.3       1 TKD        -0.0298
     18 C21        12.7020    0.7540   29.4230 C.3       1 TKD        -0.0613
     19 O03        11.2140   -4.2900   30.0830 O.3       1 TKD        -0.3793
     20 C13        13.7740    2.7060   26.8810 C.3       1 TKD        -0.0161
     21 C14        15.0850    3.2680   26.2180 C.3       1 TKD        -0.0062
     22 C15        15.6710    2.0590   25.4840 C.3       1 TKD        -0.0393
     23 C16        15.3170    0.8800   26.3900 C.3       1 TKD        -0.0470
     24 C12        13.2930    3.7790   27.9140 C.3       1 TKD        -0.0431
     25 C11        13.0590    5.1760   27.2790 C.3       1 TKD        -0.0423
     26 C09        14.2410    5.6420   26.3950 C.3       1 TKD        -0.0234
     27 C08        14.7190    4.5490   25.4310 C.2       1 TKD        -0.0718
     28 C18        12.6240    2.3600   25.8360 C.3       1 TKD        -0.0570
     29 C07        14.8540    4.6400   24.1000 C.2       1 TKD        -0.1089
     30 C06        14.5860    5.7890   23.2470 C.2       1 TKD        -0.1086
     31 C05        14.3650    5.7340   21.9190 C.2       1 TKD        -0.0657
     32 C04        14.1490    7.0310   21.1510 C.3       1 TKD         0.0150
     33 C03        14.7910    7.0360   19.7370 C.3       1 TKD         0.1023
     34 C02        14.3920    5.7890   18.9620 C.2       1 TKD        -0.0127
     35 C01        14.9010    4.5310   19.6310 C.3       1 TKD         0.1023
     36 C10        14.3460    4.4440   21.0710 C.3       1 TKD         0.0150
     37 C28        13.6310    5.7650   17.8470 C.2       1 TKD        -0.1238
     38 O01        14.4950    3.3990   18.8800 O.3       1 TKD        -0.3742
     39 O02        16.2110    7.0350   19.8660 O.3       1 TKD        -0.3742
     40 H           9.5058   -2.7043   30.1820 H         1 TKD         0.0273
     41 H           8.3594   -3.9623   29.6078 H         1 TKD         0.0273
     42 H           7.1133   -2.0086   30.5928 H         1 TKD         0.0301
     43 H           8.8521   -0.2394   30.1139 H         1 TKD         0.0271
     44 H           7.2483    0.2502   29.4699 H         1 TKD         0.0271
     45 H           9.0743    0.6821   27.7854 H         1 TKD         0.0301
     46 H          10.2912   -1.2750   26.7748 H         1 TKD         0.0273
     47 H          10.6341   -1.1449   28.5333 H         1 TKD         0.0273
     48 H           7.8326   -4.1425   27.0674 H         1 TKD         0.0273
     49 H           8.6438   -3.0274   25.9162 H         1 TKD         0.0273
     50 H           5.5916   -1.5668   28.6369 H         1 TKD         0.0271
     51 H           6.0895   -3.2926   28.6594 H         1 TKD         0.0271
     52 H           8.0235   -0.5599   25.8632 H         1 TKD         0.0271
     53 H           6.7671    0.0759   26.9786 H         1 TKD         0.0271
     54 H           6.2631   -2.3140   26.3321 H         1 TKD         0.0301
     55 H          10.9586   -3.6083   26.7711 H         1 TKD         0.0305
     56 H           9.9641   -4.8716   27.5722 H         1 TKD         0.0305
     57 H          12.1478   -5.1211   28.4430 H         1 TKD         0.0731
     58 H          14.9315   -1.1911   27.7569 H         1 TKD         0.0400
     59 H          14.6297   -0.8503   29.4946 H         1 TKD         0.0400
     60 H          12.6552    0.0762   27.3658 H         1 TKD         0.0310
     61 H          14.9979    1.7321   28.3643 H         1 TKD         0.0311
     62 H          12.0568   -0.0595   29.7862 H         1 TKD         0.0233
     63 H          12.0890    1.6436   29.2161 H         1 TKD         0.0233
     64 H          13.4529    0.9963   30.1894 H         1 TKD         0.0233
     65 H          10.7935   -3.4791   30.3438 H         1 TKD         0.2111
     66 H          15.8036    3.5665   26.9954 H         1 TKD         0.0478
     67 H          16.7612    2.1566   25.3750 H         1 TKD         0.0293
     68 H          15.2122    1.9425   24.4911 H         1 TKD         0.0293
     69 H          14.8032    0.1014   25.8070 H         1 TKD         0.0270
     70 H          16.2323    0.4616   26.8341 H         1 TKD         0.0270
     71 H          14.0569    3.8754   28.6996 H         1 TKD         0.0274
     72 H          12.3485    3.4354   28.3611 H         1 TKD         0.0274
     73 H          12.9146    5.9088   28.0865 H         1 TKD         0.0290
     74 H          12.1524    5.1316   26.6577 H         1 TKD         0.0290
     75 H          15.0789    5.9277   27.0479 H         1 TKD         0.0437
     76 H          13.9198    6.5148   25.8076 H         1 TKD         0.0437
     77 H          12.9901    1.6052   25.1245 H         1 TKD         0.0237
     78 H          12.3388    3.2711   25.2896 H         1 TKD         0.0237
     79 H          11.7485    1.9646   26.3718 H         1 TKD         0.0237
     80 H          15.2081    3.7429   23.5942 H         1 TKD         0.0219
     81 H          14.5623    6.7699   23.7194 H         1 TKD         0.0219
     82 H          14.5859    7.8558   21.7332 H         1 TKD         0.0490
     83 H          13.0666    7.1929   21.0410 H         1 TKD         0.0490
     84 H          14.4640    7.9326   19.1901 H         1 TKD         0.0819
     85 H          15.9998    4.5615   19.6708 H         1 TKD         0.0819
     86 H          13.3002    4.1100   21.0018 H         1 TKD         0.0490
     87 H          14.9378    3.6877   21.6075 H         1 TKD         0.0490
     88 H          13.2882    6.6977   17.4016 H         1 TKD         0.0077
     89 H          13.3600    4.8129   17.3931 H         1 TKD         0.0077
     90 H          13.5461    3.3663   18.8465 H         1 TKD         0.2139
     91 H          16.4846    7.8066   20.3480 H         1 TKD         0.2139
@<TRIPOS>BOND
     1    1    2 1  
     2    1    6 1  
     3    1    7 1  
     4    1   11 1  
     5    2    3 1  
     6    3    4 1  
     7    3    8 1  
     8    4    5 1  
     9    5    6 1  
    10    5    9 1  
    11    7   10 1  
    12    8   10 1  
    13    9   10 1  
    14   11   12 1  
    15   12   13 1  
    16   12   19 1  
    17   13   14 3  
    18   14   15 1  
    19   15   16 1  
    20   16   17 1  
    21   16   18 1  
    22   17   20 1  
    23   17   23 1  
    24   20   21 1  
    25   20   24 1  
    26   20   28 1  
    27   21   22 1  
    28   21   27 1  
    29   22   23 1  
    30   24   25 1  
    31   25   26 1  
    32   26   27 1  
    33   27   29 2  
    34   29   30 1  
    35   30   31 2  
    36   31   32 1  
    37   31   36 1  
    38   32   33 1  
    39   33   34 1  
    40   33   39 1  
    41   34   35 1  
    42   34   37 2  
    43   35   36 1  
    44   35   38 1  
    45    2   40 1  
    46    2   41 1  
    47    3   42 1  
    48    4   43 1  
    49    4   44 1  
    50    5   45 1  
    51    6   46 1  
    52    6   47 1  
    53    7   48 1  
    54    7   49 1  
    55    8   50 1  
    56    8   51 1  
    57    9   52 1  
    58    9   53 1  
    59   10   54 1  
    60   11   55 1  
    61   11   56 1  
    62   12   57 1  
    63   15   58 1  
    64   15   59 1  
    65   16   60 1  
    66   17   61 1  
    67   18   62 1  
    68   18   63 1  
    69   18   64 1  
    70   19   65 1  
    71   21   66 1  
    72   22   67 1  
    73   22   68 1  
    74   23   69 1  
    75   23   70 1  
    76   24   71 1  
    77   24   72 1  
    78   25   73 1  
    79   25   74 1  
    80   26   75 1  
    81   26   76 1  
    82   28   77 1  
    83   28   78 1  
    84   28   79 1  
    85   29   80 1  
    86   30   81 1  
    87   32   82 1  
    88   32   83 1  
    89   33   84 1  
    90   35   85 1  
    91   36   86 1  
    92   36   87 1  
    93   37   88 1  
    94   37   89 1  
    95   38   90 1  
    96   39   91 1  
@<TRIPOS>SUBSTRUCTURE
     1 TKD         1

