### 
### Created by X-TOOL on Mon Sep 10 21:13:15 2018
### 

@<TRIPOS>MOLECULE
3vtr_ligand
  116   119     1     0     0
SMALL
GAST_HUCK


@<TRIPOS>ATOM
      1 O73       -30.3440   72.2900   44.8490 O.2       1 TCG        -0.3974
      2 C73       -30.7600   71.3530   44.1840 C.2       1 TCG         0.1733
      3 C83       -29.8150   70.3430   43.5870 C.3       1 TCG         0.0257
      4 N23       -32.0680   71.1890   43.9590 N.am      1 TCG        -0.2766
      5 C23       -33.0250   72.1440   44.5240 C.3       1 TCG         0.1208
      6 C33       -34.1910   71.3550   45.1140 C.3       1 TCG         0.1114
      7 O33       -34.7000   72.0600   46.2520 O.3       1 TCG        -0.3867
      8 C43       -35.3400   71.1410   44.1340 C.3       1 TCG         0.1181
      9 C53       -35.7950   72.4020   43.4290 C.3       1 TCG         0.1133
     10 C63       -37.1850   72.7460   43.9460 C.3       1 TCG         0.0730
     11 O63       -37.6280   74.0180   43.3770 O.3       1 TCG        -0.3924
     12 O53       -34.8680   73.4650   43.6780 O.3       1 TCG        -0.3409
     13 C13       -33.5110   73.0720   43.3990 C.3       1 TCG         0.1823
     14 O13       -32.6730   74.2520   43.3620 O.3       1 TCG        -0.3651
     15 O43       -34.9550   70.2230   43.1290 O.3       1 TCG        -0.3404
     16 C12       -34.5700   68.9950   43.7070 C.3       1 TCG         0.1854
     17 O52       -33.4000   68.6270   42.9790 O.3       1 TCG        -0.3408
     18 C52       -32.9630   67.2780   43.1170 C.3       1 TCG         0.1134
     19 C62       -31.7840   67.0720   42.1690 C.3       1 TCG         0.0730
     20 O62       -32.1120   67.5750   40.8540 O.3       1 TCG        -0.3924
     21 C42       -34.0900   66.2920   42.8170 C.3       1 TCG         0.1181
     22 C32       -35.3560   66.5990   43.5990 C.3       1 TCG         0.1114
     23 O32       -36.4330   65.8160   43.0750 O.3       1 TCG        -0.3867
     24 C22       -35.7540   68.0560   43.4830 C.3       1 TCG         0.1210
     25 N22       -36.6880   68.2790   44.5880 N.am      1 TCG        -0.2766
     26 C72       -37.9130   68.7740   44.3830 C.2       1 TCG         0.1733
     27 C82       -38.7810   68.9510   45.6010 C.3       1 TCG         0.0257
     28 O72       -38.3210   69.0790   43.2660 O.2       1 TCG        -0.3974
     29 O42       -33.6800   65.0300   43.2930 O.3       1 TCG        -0.3404
     30 C11       -33.8590   63.9780   42.3630 C.3       1 TCG         0.1854
     31 O51       -35.2250   63.5530   42.3730 O.3       1 TCG        -0.3408
     32 C51       -35.4860   62.4680   41.4820 C.3       1 TCG         0.1134
     33 C61       -36.9750   62.1710   41.5520 C.3       1 TCG         0.0730
     34 O61       -37.7050   63.2840   41.0080 O.3       1 TCG        -0.3924
     35 C41       -34.6310   61.2560   41.8620 C.3       1 TCG         0.1183
     36 C31       -33.1570   61.6450   41.9720 C.3       1 TCG         0.1114
     37 O31       -32.3760   60.5510   42.4770 O.3       1 TCG        -0.3867
     38 C21       -32.9680   62.8580   42.8740 C.3       1 TCG         0.1210
     39 N21       -31.5950   63.3270   42.6870 N.am      1 TCG        -0.2766
     40 C71       -30.7770   63.7660   43.6600 C.2       1 TCG         0.1733
     41 C81       -31.2800   63.7880   45.0730 C.3       1 TCG         0.0257
     42 O71       -29.6440   64.1390   43.4070 O.2       1 TCG        -0.3974
     43 O41       -34.6750   60.2720   40.8370 O.3       1 TCG        -0.3377
     44 C1        -35.6020   59.1980   41.0070 C.3       1 TCG         0.2060
     45 C2        -35.3440   58.1930   39.8630 C.3       1 TCG         0.0613
     46 N2        -36.6090   57.6110   39.3370 N.4       1 TCG         0.2445
     47 C9        -36.3190   56.6910   38.2190 C.3       1 TCG        -0.0413
     48 C8        -37.4060   56.8850   40.3450 C.3       1 TCG        -0.0413
     49 C7        -37.4560   58.6870   38.7920 C.3       1 TCG        -0.0413
     50 C3        -34.2910   57.1300   40.2160 C.3       1 TCG         0.1306
     51 O3        -33.3220   57.0390   39.1680 O.3       1 TCG        -0.3834
     52 C4        -33.5960   57.4560   41.5270 C.3       1 TCG         0.1147
     53 O4        -32.6750   56.4100   41.8400 O.3       1 TCG        -0.3864
     54 C5        -34.6620   57.5740   42.6090 C.3       1 TCG         0.1132
     55 O5        -35.5740   58.6480   42.3390 O.3       1 TCG        -0.3381
     56 C6        -34.0240   57.8030   43.9690 C.3       1 TCG         0.0730
     57 O6        -35.0580   57.9970   44.9510 O.3       1 TCG        -0.3924
     58 H1        -30.3893   69.5878   43.0304 H         1 TCG         0.0467
     59 H2        -29.2468   69.8524   44.3910 H         1 TCG         0.0467
     60 H3        -29.1189   70.8513   42.9036 H         1 TCG         0.0467
     61 H4        -32.3910   70.4192   43.4085 H         1 TCG         0.1857
     62 H5        -32.5439   72.7406   45.3130 H         1 TCG         0.0633
     63 H6        -33.8166   70.3707   45.4317 H         1 TCG         0.0645
     64 H7        -34.9979   72.9209   45.9825 H         1 TCG         0.2100
     65 H8        -36.1912   70.7292   44.6961 H         1 TCG         0.0650
     66 H9        -35.8448   72.2207   42.3452 H         1 TCG         0.0647
     67 H10       -37.1562   72.8276   45.0426 H         1 TCG         0.0584
     68 H11       -37.8888   71.9520   43.6557 H         1 TCG         0.0584
     69 H12       -37.0212   74.7044   43.6283 H         1 TCG         0.2095
     70 H13       -33.4626   72.5484   42.4328 H         1 TCG         0.0932
     71 H14       -32.9827   74.8378   42.6811 H         1 TCG         0.2126
     72 H15       -34.3486   69.0857   44.7807 H         1 TCG         0.0935
     73 H16       -32.6259   67.1143   44.1512 H         1 TCG         0.0647
     74 H17       -31.5545   65.9984   42.1013 H         1 TCG         0.0584
     75 H18       -30.9068   67.6108   42.5565 H         1 TCG         0.0584
     76 H19       -32.3091   68.5026   40.9111 H         1 TCG         0.2095
     77 H20       -34.2969   66.2721   41.7368 H         1 TCG         0.0650
     78 H21       -35.1924   66.3495   44.6578 H         1 TCG         0.0645
     79 H22       -36.2219   64.8935   43.1578 H         1 TCG         0.2100
     80 H23       -36.2206   68.2555   42.5071 H         1 TCG         0.0633
     81 H24       -36.4025   68.0554   45.5199 H         1 TCG         0.1857
     82 H25       -39.7557   69.3624   45.2999 H         1 TCG         0.0467
     83 H26       -38.2919   69.6429   46.3025 H         1 TCG         0.0467
     84 H27       -38.9295   67.9770   46.0902 H         1 TCG         0.0467
     85 H28       -33.5655   64.2885   41.3494 H         1 TCG         0.0935
     86 H29       -35.2286   62.7673   40.4553 H         1 TCG         0.0647
     87 H30       -37.2701   62.0144   42.6000 H         1 TCG         0.0584
     88 H31       -37.1973   61.2650   40.9691 H         1 TCG         0.0584
     89 H32       -38.6364   63.1015   41.0503 H         1 TCG         0.2095
     90 H33       -34.9915   60.8386   42.8137 H         1 TCG         0.0650
     91 H34       -32.7936   61.8996   40.9655 H         1 TCG         0.0645
     92 H35       -32.4540   59.8094   41.8884 H         1 TCG         0.2100
     93 H36       -33.1808   62.6149   43.9255 H         1 TCG         0.0633
     94 H37       -31.2333   63.3206   41.7547 H         1 TCG         0.1857
     95 H38       -30.4913   64.1715   45.7370 H         1 TCG         0.0467
     96 H39       -31.5543   62.7681   45.3805 H         1 TCG         0.0467
     97 H40       -32.1631   64.4406   45.1377 H         1 TCG         0.0467
     98 H41       -36.6153   59.6014   40.8638 H         1 TCG         0.0970
     99 H42       -34.9128   58.7780   39.0372 H         1 TCG         0.0929
    100 H43       -37.2604   56.2676   37.8390 H         1 TCG         0.0778
    101 H44       -35.6677   55.8781   38.5726 H         1 TCG         0.0778
    102 H45       -35.8129   57.2419   37.4126 H         1 TCG         0.0778
    103 H46       -37.6317   57.5562   41.1868 H         1 TCG         0.0778
    104 H47       -36.8346   56.0188   40.7098 H         1 TCG         0.0778
    105 H48       -38.3457   56.5390   39.8897 H         1 TCG         0.0778
    106 H49       -36.8910   59.2504   38.0348 H         1 TCG         0.0778
    107 H50       -37.7562   59.3646   39.6048 H         1 TCG         0.0778
    108 H51       -38.3529   58.2491   38.3296 H         1 TCG         0.0778
    109 H52       -34.7959   56.1582   40.3191 H         1 TCG         0.0679
    110 H53       -33.7550   56.7955   38.3581 H         1 TCG         0.2102
    111 H54       -33.0525   58.4081   41.4376 H         1 TCG         0.0648
    112 H55       -32.2376   56.6094   42.6595 H         1 TCG         0.2100
    113 H56       -35.2286   56.6316   42.6378 H         1 TCG         0.0647
    114 H57       -33.3829   58.6959   43.9288 H         1 TCG         0.0584
    115 H58       -33.4168   56.9275   44.2425 H         1 TCG         0.0584
    116 H59       -34.6617   58.1404   45.8024 H         1 TCG         0.2095
@<TRIPOS>BOND
     1    1    2 2  
     2    2    3 1  
     3    2    4 am 
     4    4    5 1  
     5    5    6 1  
     6    5   13 1  
     7    6    7 1  
     8    6    8 1  
     9    8    9 1  
    10    8   15 1  
    11    9   10 1  
    12    9   12 1  
    13   10   11 1  
    14   12   13 1  
    15   13   14 1  
    16   15   16 1  
    17   16   17 1  
    18   16   24 1  
    19   17   18 1  
    20   18   19 1  
    21   18   21 1  
    22   19   20 1  
    23   21   22 1  
    24   21   29 1  
    25   22   23 1  
    26   22   24 1  
    27   24   25 1  
    28   25   26 am 
    29   26   27 1  
    30   26   28 2  
    31   29   30 1  
    32   30   31 1  
    33   30   38 1  
    34   31   32 1  
    35   32   33 1  
    36   32   35 1  
    37   33   34 1  
    38   35   36 1  
    39   35   43 1  
    40   36   37 1  
    41   36   38 1  
    42   38   39 1  
    43   39   40 am 
    44   40   41 1  
    45   40   42 2  
    46   43   44 1  
    47   44   45 1  
    48   44   55 1  
    49   45   46 1  
    50   45   50 1  
    51   46   47 1  
    52   46   48 1  
    53   46   49 1  
    54   50   51 1  
    55   50   52 1  
    56   52   53 1  
    57   52   54 1  
    58   54   55 1  
    59   54   56 1  
    60   56   57 1  
    61    3   58 1  
    62    3   59 1  
    63    3   60 1  
    64    4   61 1  
    65    5   62 1  
    66    6   63 1  
    67    7   64 1  
    68    8   65 1  
    69    9   66 1  
    70   10   67 1  
    71   10   68 1  
    72   11   69 1  
    73   13   70 1  
    74   14   71 1  
    75   16   72 1  
    76   18   73 1  
    77   19   74 1  
    78   19   75 1  
    79   20   76 1  
    80   21   77 1  
    81   22   78 1  
    82   23   79 1  
    83   24   80 1  
    84   25   81 1  
    85   27   82 1  
    86   27   83 1  
    87   27   84 1  
    88   30   85 1  
    89   32   86 1  
    90   33   87 1  
    91   33   88 1  
    92   34   89 1  
    93   35   90 1  
    94   36   91 1  
    95   37   92 1  
    96   38   93 1  
    97   39   94 1  
    98   41   95 1  
    99   41   96 1  
   100   41   97 1  
   101   44   98 1  
   102   45   99 1  
   103   47  100 1  
   104   47  101 1  
   105   47  102 1  
   106   48  103 1  
   107   48  104 1  
   108   48  105 1  
   109   49  106 1  
   110   49  107 1  
   111   49  108 1  
   112   50  109 1  
   113   51  110 1  
   114   52  111 1  
   115   53  112 1  
   116   54  113 1  
   117   56  114 1  
   118   56  115 1  
   119   57  116 1  
@<TRIPOS>SUBSTRUCTURE
     1 TCG         1

