### 
### Created by X-TOOL on Mon Sep 10 21:13:14 2018
### 

@<TRIPOS>MOLECULE
3vuc_ligand
   86    90     1     0     0
SMALL
GAST_HUCK


@<TRIPOS>ATOM
      1 C1        181.3610  200.6240  104.6390 C.3       1 HHE         0.0478
      2 C2        182.7800  200.1490  104.3010 C.3       1 HHE        -0.0149
      3 C3        181.3830  201.1180  106.0820 C.3       1 HHE        -0.0149
      4 C4        183.1360  198.9610  105.2020 C.3       1 HHE        -0.0190
      5 C5        181.6980  199.9620  107.0290 C.3       1 HHE        -0.0190
      6 C6        183.0880  199.3960  106.6890 C.3       1 HHE         0.0670
      7 C7        182.4530  202.2570  106.2670 C.3       1 HHE        -0.0451
      8 C8        183.8770  201.7320  106.0050 C.3       1 HHE        -0.0378
      9 C9        183.8690  201.2650  104.5360 C.3       1 HHE        -0.0451
     10 C10       184.1580  200.5000  106.9130 C.3       1 HHE        -0.0211
     11 O11       183.2390  198.2400  107.5260 O.3       1 HHE        -0.3885
     12 N12       181.0440  201.7890  103.8030 N.am      1 HHE        -0.2831
     13 C13       179.4740  202.0200  100.3570 C.3       1 HHE         0.1048
     14 C14       178.6660  201.8430   99.0580 C.3       1 HHE         0.0431
     15 C15       179.1540  200.6930   98.1580 C.3       1 HHE         0.0169
     16 N16       178.7680  203.1200   98.3150 N.4       1 HHE         0.2264
     17 N17       178.1460  200.3700   97.1090 N.4       1 HHE         0.2620
     18 C18       176.9800  199.6990   97.6980 C.3       1 HHE         0.0650
     19 C19       175.9630  199.2990   96.6590 C.2       1 HHE         0.2521
     20 N20       176.2450  199.2080   95.3400 N.am      1 HHE        -0.2089
     21 C21       177.5750  199.5210   94.7950 C.3       1 HHE         0.1009
     22 C22       178.6490  199.5790   95.9080 C.3       1 HHE         0.0122
     23 C23       179.8700  200.2460   95.2570 C.3       1 HHE        -0.0166
     24 C24       179.0290  198.1260   96.2900 C.3       1 HHE        -0.0166
     25 C25       175.2630  198.8500   94.4160 C.ar      1 HHE         0.0836
     26 C26       174.6600  199.8690   93.7030 C.ar      1 HHE        -0.0404
     27 C27       173.7290  199.5400   92.7430 C.ar      1 HHE        -0.0753
     28 C28       173.3490  198.2260   92.5060 C.ar      1 HHE        -0.0766
     29 C29       173.9440  197.1980   93.2340 C.ar      1 HHE        -0.0616
     30 C30       174.9000  197.5480   94.1600 C.ar      1 HHE         0.0596
     31 O31       174.8500  199.0340   97.0370 O.2       1 HHE        -0.3786
     32 CL        175.5760  196.2760   95.0430 Cl        1 HHE        -0.0830
     33 C33       178.7280  203.0250  101.2650 C.3       1 HHE        -0.0016
     34 C34       179.4640  203.3230  102.5850 C.3       1 HHE         0.0509
     35 C35       179.7790  202.1090  103.4450 C.2       1 HHE         0.1794
     36 O36       178.8650  201.4320  103.8320 O.2       1 HHE        -0.3968
     37 C37       178.6260  204.3300  103.4020 C.3       1 HHE        -0.0360
     38 O38       180.8320  202.4490  100.0650 O.3       1 HHE        -0.3859
     39 C39       179.3790  204.7090  104.7070 C.3       1 HHE        -0.0629
     40 H1        180.6266  199.8175  104.4971 H         1 HHE         0.0561
     41 H2        182.8069  199.8380  103.2462 H         1 HHE         0.0324
     42 H3        180.3904  201.5216  106.3306 H         1 HHE         0.0324
     43 H4        184.1487  198.6079  104.9575 H         1 HHE         0.0296
     44 H5        182.4141  198.1478  105.0361 H         1 HHE         0.0296
     45 H6        180.9405  199.1731  106.9118 H         1 HHE         0.0296
     46 H7        181.6921  200.3246  108.0675 H         1 HHE         0.0296
     47 H8        182.3955  202.6394  107.2968 H         1 HHE         0.0271
     48 H9        182.2355  203.0717  105.5607 H         1 HHE         0.0271
     49 H10       184.6289  202.5168  106.1747 H         1 HHE         0.0302
     50 H11       183.6479  202.1251  103.8869 H         1 HHE         0.0271
     51 H12       184.8596  200.8594  104.2826 H         1 HHE         0.0271
     52 H13       185.1516  200.0937  106.6727 H         1 HHE         0.0296
     53 H14       184.1359  200.8156  107.9665 H         1 HHE         0.0296
     54 H15       182.5500  197.6161  107.3297 H         1 HHE         0.2102
     55 H16       181.7937  202.3695  103.4853 H         1 HHE         0.1854
     56 H17       179.5264  201.0519  100.8765 H         1 HHE         0.0653
     57 H18       177.6155  201.6503   99.3210 H         1 HHE         0.0929
     58 H19       179.3271  199.8005   98.7772 H         1 HHE         0.0872
     59 H20       180.0951  200.9908   97.6727 H         1 HHE         0.0872
     60 H21       178.4494  203.8759   98.9008 H         1 HHE         0.2000
     61 H22       178.1961  203.0732   97.4863 H         1 HHE         0.2000
     62 H23       179.7279  203.2802   98.0523 H         1 HHE         0.2000
     63 H24       177.8292  201.2559   96.7472 H         1 HHE         0.2062
     64 H25       176.5027  200.3836   98.4146 H         1 HHE         0.1068
     65 H26       177.3208  198.7957   98.2251 H         1 HHE         0.1068
     66 H27       177.5326  200.4968   94.2890 H         1 HHE         0.0646
     67 H28       177.8552  198.7434   94.0692 H         1 HHE         0.0646
     68 H29       180.2007  199.6454   94.3968 H         1 HHE         0.0288
     69 H30       180.6857  200.3144   95.9918 H         1 HHE         0.0288
     70 H31       179.5979  201.2558   94.9161 H         1 HHE         0.0288
     71 H32       179.3856  197.5932   95.3961 H         1 HHE         0.0288
     72 H33       178.1460  197.6107   96.6960 H         1 HHE         0.0288
     73 H34       179.8251  198.1426   97.0489 H         1 HHE         0.0288
     74 H35       174.9144  200.9050   93.8953 H         1 HHE         0.0502
     75 H36       173.2791  200.3313   92.1544 H         1 HHE         0.0579
     76 H37       172.5951  198.0016   91.7602 H         1 HHE         0.0488
     77 H38       173.6647  196.1624   93.0771 H         1 HHE         0.0583
     78 H39       177.7379  202.6098  101.5044 H         1 HHE         0.0319
     79 H40       178.6062  203.9689  100.7134 H         1 HHE         0.0319
     80 H41       180.4230  203.7954  102.3261 H         1 HHE         0.0539
     81 H42       177.6578  203.8753  103.6586 H         1 HHE         0.0290
     82 H43       178.4579  205.2363  102.8017 H         1 HHE         0.0290
     83 H44       181.2529  201.8059   99.5068 H         1 HHE         0.2101
     84 H45       178.7760  205.4262  105.2831 H         1 HHE         0.0231
     85 H46       180.3471  205.1651  104.4525 H         1 HHE         0.0231
     86 H47       179.5470  203.8041  105.3094 H         1 HHE         0.0231
@<TRIPOS>BOND
     1    1    2 1  
     2    1    3 1  
     3   12    1 1  
     4    2    4 1  
     5    2    9 1  
     6    3    5 1  
     7    3    7 1  
     8    4    6 1  
     9    5    6 1  
    10    6   10 1  
    11    6   11 1  
    12    7    8 1  
    13    9    8 1  
    14    8   10 1  
    15   35   12 am 
    16   13   14 1  
    17   33   13 1  
    18   13   38 1  
    19   14   15 1  
    20   14   16 1  
    21   15   17 1  
    22   17   18 1  
    23   17   22 1  
    24   18   19 1  
    25   19   20 am 
    26   19   31 2  
    27   21   20 1  
    28   20   25 1  
    29   22   21 1  
    30   22   23 1  
    31   22   24 1  
    32   25   26 ar 
    33   25   30 ar 
    34   26   27 ar 
    35   27   28 ar 
    36   29   28 ar 
    37   30   29 ar 
    38   30   32 1  
    39   34   33 1  
    40   34   35 1  
    41   34   37 1  
    42   35   36 2  
    43   37   39 1  
    44    1   40 1  
    45    2   41 1  
    46    3   42 1  
    47    4   43 1  
    48    4   44 1  
    49    5   45 1  
    50    5   46 1  
    51    7   47 1  
    52    7   48 1  
    53    8   49 1  
    54    9   50 1  
    55    9   51 1  
    56   10   52 1  
    57   10   53 1  
    58   11   54 1  
    59   12   55 1  
    60   13   56 1  
    61   14   57 1  
    62   15   58 1  
    63   15   59 1  
    64   16   60 1  
    65   16   61 1  
    66   16   62 1  
    67   17   63 1  
    68   18   64 1  
    69   18   65 1  
    70   21   66 1  
    71   21   67 1  
    72   23   68 1  
    73   23   69 1  
    74   23   70 1  
    75   24   71 1  
    76   24   72 1  
    77   24   73 1  
    78   26   74 1  
    79   27   75 1  
    80   28   76 1  
    81   29   77 1  
    82   33   78 1  
    83   33   79 1  
    84   34   80 1  
    85   37   81 1  
    86   37   82 1  
    87   38   83 1  
    88   39   84 1  
    89   39   85 1  
    90   39   86 1  
@<TRIPOS>SUBSTRUCTURE
     1 HHE         1

