### 
### Created by X-TOOL on Mon Sep 10 21:13:11 2018
### 

@<TRIPOS>MOLECULE
3vv6_ligand
   34    36     1     0     0
SMALL
GAST_HUCK


@<TRIPOS>ATOM
      1 O          16.6850   42.3020  -10.1490 O.2       1 B00        -0.3300
      2 C1         16.4250   41.2790   -9.4800 C.2       1 B00         0.2863
      3 N2         15.8070   41.3830   -8.2080 N.am      1 B00        -0.2297
      4 C5         15.4900   42.7190   -7.6850 C.3       1 B00         0.0216
      5 C4         15.5480   40.1920   -7.4660 C.cat     1 B00         0.2097
      6 N3         14.9690   40.2420   -6.2300 N.pl3     1 B00        -0.3314
      7 N1         15.8720   38.9850   -8.0040 N.pl3     1 B00        -0.2016
      8 C3         16.4690   38.8640   -9.2310 C.2       1 B00         0.2125
      9 C2         16.7390   40.0160   -9.9850 C.2       1 B00         0.1728
     10 C6         16.7880   37.5080   -9.7750 C.3       1 B00         0.0993
     11 C14        17.7090   37.5820  -11.0010 C.3       1 B00         0.0015
     12 C7         18.2420   37.0070   -9.6860 C.3       1 B00         0.0323
     13 C8         19.2070   37.8890   -8.9650 C.ar      1 B00        -0.0339
     14 C13        19.1080   38.0600   -7.5740 C.ar      1 B00        -0.0597
     15 C12        20.0090   38.8750   -6.8840 C.ar      1 B00        -0.0685
     16 C11        21.0330   39.5140   -7.5870 C.ar      1 B00        -0.0687
     17 C10        21.1460   39.3420   -8.9660 C.ar      1 B00        -0.0685
     18 C9         20.2450   38.5250   -9.6580 C.ar      1 B00        -0.0597
     19 H          14.4201   42.7861   -7.4877 H         1 B00         0.0480
     20 H          16.0425   42.8863   -6.7604 H         1 B00         0.0480
     21 H          15.7731   43.4722   -8.4203 H         1 B00         0.0480
     22 H          14.7831   39.3793   -5.7186 H         1 B00         0.1780
     23 H          14.7225   41.1421   -5.8183 H         1 B00         0.1780
     24 H          15.6626   38.1390   -7.4741 H         1 B00         0.2558
     25 H          17.1963   39.9243  -10.9702 H         1 B00         0.1668
     26 H          15.8336   37.0563   -9.5045 H         1 B00         0.0816
     27 H          18.0092   38.3130  -11.7517 H         1 B00         0.0359
     28 H          17.6833   37.3129  -12.0569 H         1 B00         0.0359
     29 H          18.7088   36.0733   -9.3724 H         1 B00         0.0529
     30 H          18.3167   37.5494   -7.0251 H         1 B00         0.0557
     31 H          19.9137   39.0110   -5.8067 H         1 B00         0.0599
     32 H          21.7443   40.1476   -7.0571 H         1 B00         0.0559
     33 H          21.9433   39.8485   -9.5099 H         1 B00         0.0599
     34 H          20.3506   38.3838  -10.7336 H         1 B00         0.0557
@<TRIPOS>BOND
     1    1    2 2  
     2    2    3 am 
     3    2    9 1  
     4    3    4 1  
     5    3    5 ar 
     6    5    6 ar 
     7    5    7 ar 
     8    7    8 1  
     9    8    9 2  
    10    8   10 1  
    11   10   11 1  
    12   10   12 1  
    13   11   12 1  
    14   12   13 1  
    15   13   14 ar 
    16   13   18 ar 
    17   14   15 ar 
    18   15   16 ar 
    19   16   17 ar 
    20   17   18 ar 
    21    4   19 1  
    22    4   20 1  
    23    4   21 1  
    24    6   22 1  
    25    6   23 1  
    26    7   24 1  
    27    9   25 1  
    28   10   26 1  
    29   11   27 1  
    30   11   28 1  
    31   12   29 1  
    32   14   30 1  
    33   15   31 1  
    34   16   32 1  
    35   17   33 1  
    36   18   34 1  
@<TRIPOS>SUBSTRUCTURE
     1 B00         1

