### 
### Created by X-TOOL on Mon Sep 10 21:13:15 2018
### 

@<TRIPOS>MOLECULE
3vva_ligand
   49    49     1     0     0
SMALL
GAST_HUCK


@<TRIPOS>ATOM
      1 OAA       -45.8290   -4.0480  -26.2810 O.3       1 CHW        -0.3350
      2 CAB       -46.4430   -3.5740  -25.1690 C.ar      1 CHW         0.0975
      3 CAC       -47.6150   -4.1990  -24.7760 C.ar      1 CHW         0.0191
      4 CAD       -48.1450   -5.3640  -25.5930 C.3       1 CHW        -0.0194
      5 CAE       -49.4910   -5.5310  -25.3050 C.2       1 CHW        -0.1021
      6 CAF       -50.5330   -4.8750  -25.9190 C.2       1 CHW        -0.0813
      7 CAG       -51.9510   -5.1670  -25.4490 C.3       1 CHW        -0.0251
      8 CAH       -52.5980   -4.0000  -25.0500 C.3       1 CHW        -0.0386
      9 CAI       -53.2160   -3.2160  -26.0160 C.2       1 CHW        -0.1047
     10 CAJ       -53.9150   -2.0470  -25.7210 C.2       1 CHW        -0.0561
     11 CAK       -54.5370   -1.2900  -26.8950 C.3       1 CHW         0.0772
     12 OAL       -55.7810   -0.7300  -26.5060 O.3       1 CHW        -0.3811
     13 OAM       -44.3070   -1.8080  -26.0490 O.2       1 CHW        -0.3790
     14 CAN       -44.6550   -1.7900  -24.8800 C.2       1 CHW         0.1070
     15 CAO       -45.9390   -2.4800  -24.4520 C.ar      1 CHW         0.0439
     16 CAP       -48.2620   -3.7100  -23.6340 C.ar      1 CHW         0.0963
     17 OAQ       -49.4190   -4.2270  -23.1350 O.3       1 CHW        -0.3365
     18 CAR       -50.2510   -3.9340  -27.0730 C.3       1 CHW        -0.0399
     19 CAS       -54.0760   -1.5220  -24.2740 C.3       1 CHW        -0.0380
     20 CAT       -53.5820   -0.2040  -27.3640 C.3       1 CHW        -0.0302
     21 CAU       -46.5970   -2.0240  -23.3140 C.ar      1 CHW        -0.0347
     22 CAV       -47.7700   -2.6570  -22.9200 C.ar      1 CHW         0.0576
     23 CLAW      -48.7160   -2.2340  -21.5320 Cl        1 CHW        -0.0951
     24 CAX       -46.0410   -0.8450  -22.5200 C.3       1 CHW        -0.0341
     25 H1        -45.5983   -4.9601  -26.1496 H         1 CHW         0.2484
     26 H2        -47.5941   -6.2799  -25.3329 H         1 CHW         0.0443
     27 H3        -48.0191   -5.1523  -26.6651 H         1 CHW         0.0443
     28 H4        -49.7461   -6.2449  -24.5232 H         1 CHW         0.0254
     29 H5        -51.9112   -5.8641  -24.5990 H         1 CHW         0.0426
     30 H6        -52.5153   -5.6264  -26.2739 H         1 CHW         0.0426
     31 H7        -51.8480   -3.3682  -24.5516 H         1 CHW         0.0361
     32 H8        -53.3725   -4.2909  -24.3251 H         1 CHW         0.0361
     33 H9        -53.1510   -3.5308  -27.0565 H         1 CHW         0.0244
     34 H10       -54.7092   -1.9932  -27.7231 H         1 CHW         0.0738
     35 H11       -56.1599   -0.2620  -27.2408 H         1 CHW         0.2129
     36 H12       -44.0426   -1.2771  -24.1399 H         1 CHW         0.1273
     37 H13       -49.6734   -3.7406  -22.3597 H         1 CHW         0.2478
     38 H14       -49.1653   -3.8721  -27.2387 H         1 CHW         0.0377
     39 H15       -50.6432   -2.9342  -26.8351 H         1 CHW         0.0377
     40 H16       -50.7397   -4.3127  -27.9828 H         1 CHW         0.0377
     41 H17       -53.5610   -2.2008  -23.5783 H         1 CHW         0.0376
     42 H18       -55.1447   -1.4758  -24.0175 H         1 CHW         0.0376
     43 H19       -53.6367   -0.5164  -24.1978 H         1 CHW         0.0376
     44 H20       -54.0310    0.3394  -28.2084 H         1 CHW         0.0276
     45 H21       -52.6348   -0.6621  -27.6849 H         1 CHW         0.0276
     46 H22       -53.3892    0.4965  -26.5381 H         1 CHW         0.0276
     47 H23       -45.1137   -0.4892  -22.9928 H         1 CHW         0.0393
     48 H24       -45.8276   -1.1649  -21.4894 H         1 CHW         0.0393
     49 H25       -46.7808   -0.0311  -22.5056 H         1 CHW         0.0393
@<TRIPOS>BOND
     1    2    1 1  
     2    2    3 ar 
     3   15    2 ar 
     4    3    4 1  
     5    3   16 ar 
     6    4    5 1  
     7    5    6 2  
     8    6    7 1  
     9    6   18 1  
    10    7    8 1  
    11    8    9 1  
    12    9   10 2  
    13   10   11 1  
    14   10   19 1  
    15   11   12 1  
    16   11   20 1  
    17   14   13 2  
    18   14   15 1  
    19   15   21 ar 
    20   16   17 1  
    21   16   22 ar 
    22   21   22 ar 
    23   21   24 1  
    24   22   23 1  
    25    1   25 1  
    26    4   26 1  
    27    4   27 1  
    28    5   28 1  
    29    7   29 1  
    30    7   30 1  
    31    8   31 1  
    32    8   32 1  
    33    9   33 1  
    34   11   34 1  
    35   12   35 1  
    36   14   36 1  
    37   17   37 1  
    38   18   38 1  
    39   18   39 1  
    40   18   40 1  
    41   19   41 1  
    42   19   42 1  
    43   19   43 1  
    44   20   44 1  
    45   20   45 1  
    46   20   46 1  
    47   24   47 1  
    48   24   48 1  
    49   24   49 1  
@<TRIPOS>SUBSTRUCTURE
     1 CHW         1

