### 
### Created by X-TOOL on Mon Sep 10 21:13:14 2018
### 

@<TRIPOS>MOLECULE
3vvy_ligand
   45    48     1     0     0
SMALL
GAST_HUCK


@<TRIPOS>ATOM
      1 C1          5.1040   15.5370  -32.2680 C.ar      1 ET         -0.0789
      2 C2          4.1550   16.5650  -32.3740 C.ar      1 ET         -0.0582
      3 C3          3.1320   16.4380  -33.2820 C.ar      1 ET          0.0225
      4 C4          2.9680   15.3140  -34.0630 C.ar      1 ET         -0.0279
      5 N5          3.7430   13.0580  -34.6490 N.pl3     1 ET         -0.2864
      6 C6          4.7240   12.1700  -34.7880 C.3       1 ET          0.1019
      7 C7          6.6720   11.0700  -33.5810 C.ar      1 ET         -0.0409
      8 C8          7.6410   11.2310  -32.5900 C.ar      1 ET          0.0271
      9 C9          7.7610   12.3730  -31.8300 C.ar      1 ET         -0.0530
     10 C10         6.9100   13.4650  -31.9630 C.ar      1 ET         -0.0760
     11 C11         5.7880   12.1660  -33.7100 C.ar      1 ET         -0.0145
     12 C12         5.9270   13.3280  -32.9900 C.ar      1 ET         -0.0361
     13 C13         4.9430   14.4160  -33.0870 C.ar      1 ET         -0.0206
     14 C14         3.8940   14.2650  -33.9970 C.ar      1 ET          0.0395
     15 C15         4.6110   10.9230  -35.5010 C.ar      1 ET         -0.0075
     16 C16         5.3630   10.7280  -36.7010 C.ar      1 ET         -0.0562
     17 C17         5.2570    9.5180  -37.3500 C.ar      1 ET         -0.0681
     18 C18         4.3580    8.5440  -36.8750 C.ar      1 ET         -0.0685
     19 C19         3.6580    8.7720  -35.6640 C.ar      1 ET         -0.0681
     20 C20         3.7440    9.9800  -35.0350 C.ar      1 ET         -0.0562
     21 C21         2.6770   13.1020  -35.7170 C.3       1 ET          0.0287
     22 C22         1.3940   12.6820  -35.0460 C.3       1 ET         -0.0449
     23 N23         2.2260   17.4940  -33.4650 N.pl3     1 ET         -0.3397
     24 N24         8.4090   10.1080  -32.3580 N.pl3     1 ET         -0.3390
     25 H1          5.9339   15.6098  -31.5744 H         1 ET          0.0537
     26 H2          4.2280   17.4471  -31.7482 H         1 ET          0.0412
     27 H3          2.1180   15.2415  -34.7318 H         1 ET          0.0403
     28 H4          5.2781   12.7177  -35.5645 H         1 ET          0.0872
     29 H5          6.6029   10.1817  -34.1984 H         1 ET          0.0452
     30 H6          8.5554   12.4232  -31.0941 H         1 ET          0.0460
     31 H7          6.9865   14.3477  -31.3384 H         1 ET          0.0544
     32 H8          6.0009   11.5131  -37.0905 H         1 ET          0.0561
     33 H9          5.8644    9.3158  -38.2248 H         1 ET          0.0600
     34 H10         4.2025    7.6267  -37.4313 H         1 ET          0.0561
     35 H11         3.0511    7.9828  -35.2352 H         1 ET          0.0600
     36 H12         3.1260   10.1886  -34.1692 H         1 ET          0.0561
     37 H13         2.9257   12.4078  -36.5332 H         1 ET          0.0516
     38 H14         2.5814   14.1214  -36.1190 H         1 ET          0.0516
     39 H15         0.5750   12.6949  -35.7802 H         1 ET          0.0249
     40 H16         1.1632   13.3791  -34.2270 H         1 ET          0.0249
     41 H17         1.5075   11.6655  -34.6413 H         1 ET          0.0249
     42 H18         2.3139   18.3516  -32.9013 H         1 ET          0.1719
     43 H19         1.4731   17.4115  -34.1630 H         1 ET          0.1719
     44 H20         8.2905    9.2722  -32.9481 H         1 ET          0.1716
     45 H21         9.1006   10.1057  -31.5947 H         1 ET          0.1716
@<TRIPOS>BOND
     1    2    1 ar 
     2    1   13 ar 
     3    3    2 ar 
     4    4    3 ar 
     5    3   23 1  
     6   14    4 ar 
     7    6    5 1  
     8    5   14 1  
     9    5   21 1  
    10   11    6 1  
    11    6   15 1  
    12    7    8 ar 
    13    7   11 ar 
    14    8    9 ar 
    15    8   24 1  
    16    9   10 ar 
    17   10   12 ar 
    18   11   12 ar 
    19   12   13 1  
    20   13   14 ar 
    21   15   16 ar 
    22   15   20 ar 
    23   16   17 ar 
    24   17   18 ar 
    25   18   19 ar 
    26   19   20 ar 
    27   21   22 1  
    28    1   25 1  
    29    2   26 1  
    30    4   27 1  
    31    6   28 1  
    32    7   29 1  
    33    9   30 1  
    34   10   31 1  
    35   16   32 1  
    36   17   33 1  
    37   18   34 1  
    38   19   35 1  
    39   20   36 1  
    40   21   37 1  
    41   21   38 1  
    42   22   39 1  
    43   22   40 1  
    44   22   41 1  
    45   23   42 1  
    46   23   43 1  
    47   24   44 1  
    48   24   45 1  
@<TRIPOS>SUBSTRUCTURE
     1 ET          1

