### 
### Created by X-TOOL on Mon Sep 10 21:13:16 2018
### 

@<TRIPOS>MOLECULE
3vvz_ligand
   65    68     1     0     0
SMALL
GAST_HUCK


@<TRIPOS>ATOM
      1 C1          5.0130   16.5430  -34.4700 C.ar      1 RHQ         0.1011
      2 C2          3.8310   16.4820  -35.1860 C.ar      1 RHQ        -0.0056
      3 C3          2.9070   17.5230  -35.1160 C.ar      1 RHQ        -0.0731
      4 C4          3.1700   18.6410  -34.3190 C.ar      1 RHQ        -0.0438
      5 C5          4.3580   18.7110  -33.5990 C.ar      1 RHQ         0.0256
      6 C6          5.2670   17.6490  -33.6820 C.ar      1 RHQ        -0.0234
      7 O1          5.9290   15.5080  -34.5140 O.3       1 RHQ        -0.2780
      8 C7          5.6940   14.3910  -35.2930 C.ar      1 RHQ         0.1011
      9 C8          4.5200   14.3100  -36.0340 C.ar      1 RHQ        -0.0056
     10 C9          3.5740   15.3730  -35.9650 C.3       1 RHQ         0.0455
     11 C10         6.6340   13.3700  -35.3120 C.ar      1 RHQ        -0.0234
     12 C11         6.4210   12.2310  -36.0830 C.ar      1 RHQ         0.0256
     13 C12         5.2440   12.1310  -36.8240 C.ar      1 RHQ        -0.0438
     14 C13         4.3020   13.1550  -36.8020 C.ar      1 RHQ        -0.0731
     15 N1          7.3520   11.2400  -36.0940 N.pl3     1 RHQ        -0.3313
     16 C14         2.3000   15.3640  -36.7520 C.ar      1 RHQ        -0.0040
     17 C15         1.2040   14.6930  -36.2310 C.ar      1 RHQ        -0.0515
     18 C16         0.0050   14.6630  -36.9700 C.ar      1 RHQ        -0.0639
     19 C17        -0.1090   15.2780  -38.2250 C.ar      1 RHQ        -0.0628
     20 C18         0.9960   15.9520  -38.7410 C.ar      1 RHQ        -0.0471
     21 C19         2.1910   16.0090  -38.0180 C.ar      1 RHQ         0.0658
     22 C20         4.9550   10.9230  -37.6830 C.3       1 RHQ        -0.0410
     23 C21         2.1970   19.8130  -34.2420 C.3       1 RHQ        -0.0410
     24 C22         8.3720   11.2100  -35.0120 C.3       1 RHQ         0.0184
     25 C23         7.9630   10.7720  -33.6520 C.3       1 RHQ        -0.0460
     26 N2          4.5980   19.8600  -32.7860 N.pl3     1 RHQ        -0.3313
     27 C24         5.6350   19.5460  -31.6780 C.3       1 RHQ         0.0184
     28 C25         5.7870   20.8020  -30.8430 C.3       1 RHQ        -0.0460
     29 C26         3.3050   16.7870  -38.7020 C.2       1 RHQ         0.2582
     30 O27         4.4000   16.9820  -38.1680 O.2       1 RHQ        -0.3611
     31 O2          3.0680   17.3430  -40.0580 O.3       1 RHQ        -0.2790
     32 C28         4.1070   18.0100  -40.8050 C.3       1 RHQ         0.0727
     33 C29         3.6930   18.1710  -42.2740 C.3       1 RHQ        -0.0373
     34 H1          1.9832   17.4657  -35.6803 H         1 RHQ         0.0442
     35 H2          6.1901   17.6957  -33.1156 H         1 RHQ         0.0410
     36 H3          3.0719   14.8730  -35.1236 H         1 RHQ         0.0695
     37 H4          7.5394   13.4602  -34.7228 H         1 RHQ         0.0410
     38 H5          3.3918   13.0601  -37.3830 H         1 RHQ         0.0442
     39 H6          7.3509   10.5254  -36.8358 H         1 RHQ         0.1715
     40 H7          1.2689   14.1985  -35.2686 H         1 RHQ         0.0572
     41 H8         -0.8551   14.1492  -36.5561 H         1 RHQ         0.0636
     42 H9         -1.0376   15.2301  -38.7822 H         1 RHQ         0.0571
     43 H10         0.9285   16.4351  -39.7090 H         1 RHQ         0.0653
     44 H11         5.7844   10.2055  -37.5976 H         1 RHQ         0.0344
     45 H12         4.8476   11.2362  -38.7320 H         1 RHQ         0.0344
     46 H13         4.0225   10.4473  -37.3450 H         1 RHQ         0.0344
     47 H14         1.3154   19.5991  -34.8641 H         1 RHQ         0.0344
     48 H15         2.6915   20.7248  -34.6080 H         1 RHQ         0.0344
     49 H16         1.8822   19.9603  -33.1984 H         1 RHQ         0.0344
     50 H17         8.7712   12.2305  -34.9161 H         1 RHQ         0.0503
     51 H18         9.1731   10.5324  -35.3421 H         1 RHQ         0.0503
     52 H19         8.8318   10.8086  -32.9783 H         1 RHQ         0.0248
     53 H20         7.5783    9.7425  -33.6985 H         1 RHQ         0.0248
     54 H21         7.1763   11.4407  -33.2725 H         1 RHQ         0.0248
     55 H22         4.1431   20.7746  -32.9182 H         1 RHQ         0.1715
     56 H23         6.6002   19.2742  -32.1302 H         1 RHQ         0.0503
     57 H24         5.2775   18.7164  -31.0504 H         1 RHQ         0.0503
     58 H25         6.5177   20.6226  -30.0406 H         1 RHQ         0.0248
     59 H26         4.8155   21.0685  -30.4013 H         1 RHQ         0.0248
     60 H27         6.1382   21.6263  -31.4811 H         1 RHQ         0.0248
     61 H28         5.0303   17.4144  -40.7522 H         1 RHQ         0.0608
     62 H29         4.2861   19.0036  -40.3683 H         1 RHQ         0.0608
     63 H30         4.4956   18.6805  -42.8274 H         1 RHQ         0.0255
     64 H31         2.7713   18.7686  -42.3318 H         1 RHQ         0.0255
     65 H32         3.5155   17.1794  -42.7157 H         1 RHQ         0.0255
@<TRIPOS>BOND
     1    1    2 ar 
     2    1    6 ar 
     3    1    7 1  
     4    2    3 ar 
     5    2   10 1  
     6    3    4 ar 
     7    4    5 ar 
     8    4   23 1  
     9    5    6 ar 
    10    5   26 1  
    11    7    8 1  
    12    8    9 ar 
    13    8   11 ar 
    14    9   10 1  
    15    9   14 ar 
    16   10   16 1  
    17   11   12 ar 
    18   12   13 ar 
    19   12   15 1  
    20   13   14 ar 
    21   13   22 1  
    22   15   24 1  
    23   16   17 ar 
    24   16   21 ar 
    25   17   18 ar 
    26   18   19 ar 
    27   19   20 ar 
    28   20   21 ar 
    29   21   29 1  
    30   24   25 1  
    31   26   27 1  
    32   27   28 1  
    33   29   30 2  
    34   29   31 1  
    35   31   32 1  
    36   32   33 1  
    37    3   34 1  
    38    6   35 1  
    39   10   36 1  
    40   11   37 1  
    41   14   38 1  
    42   15   39 1  
    43   17   40 1  
    44   18   41 1  
    45   19   42 1  
    46   20   43 1  
    47   22   44 1  
    48   22   45 1  
    49   22   46 1  
    50   23   47 1  
    51   23   48 1  
    52   23   49 1  
    53   24   50 1  
    54   24   51 1  
    55   25   52 1  
    56   25   53 1  
    57   25   54 1  
    58   26   55 1  
    59   27   56 1  
    60   27   57 1  
    61   28   58 1  
    62   28   59 1  
    63   28   60 1  
    64   32   61 1  
    65   32   62 1  
    66   33   63 1  
    67   33   64 1  
    68   33   65 1  
@<TRIPOS>SUBSTRUCTURE
     1 RHQ         1

