### 
### Created by X-TOOL on Mon Sep 10 21:13:15 2018
### 

@<TRIPOS>MOLECULE
3vw0_ligand
   77    80     1     0     0
SMALL
GAST_HUCK


@<TRIPOS>ATOM
      1 C1        -41.7490    0.0060  -24.5050 C.ar      1 DEQ        -0.0451
      2 C2        -40.7870    0.4170  -23.6230 C.ar      1 DEQ        -0.0760
      3 C3        -40.0550   -0.4850  -22.8940 C.ar      1 DEQ        -0.0772
      4 C4        -40.3010   -1.8110  -23.0610 C.ar      1 DEQ        -0.0670
      5 C5        -42.0010   -1.3290  -24.6490 C.ar      1 DEQ         0.0511
      6 C6        -41.2700   -2.2280  -23.9380 C.ar      1 DEQ         0.0103
      7 C7        -41.4820   -3.5500  -24.0940 C.2       1 DEQ         0.0200
      8 C8        -42.4180   -3.9820  -24.9520 C.2       1 DEQ        -0.0597
      9 C9        -43.1530   -3.0830  -25.6510 C.3       1 DEQ         0.0472
     10 N1        -42.9540   -1.7120  -25.5740 N.pl3     1 DEQ        -0.2992
     11 C10       -51.5280   -6.1200  -28.9950 C.ar      1 DEQ         0.0290
     12 C11       -51.4450   -4.7440  -29.4360 C.ar      1 DEQ         0.0690
     13 N2        -52.2910   -3.8290  -28.8710 N.pl3     1 DEQ        -0.2707
     14 C12       -53.1930   -4.2210  -27.8770 C.2       1 DEQ         0.0248
     15 C13       -53.2450   -5.5400  -27.4660 C.2       1 DEQ        -0.0400
     16 C14       -52.4130   -6.4790  -28.0330 C.3       1 DEQ         0.0084
     17 C15       -50.7210   -7.0440  -29.5710 C.ar      1 DEQ        -0.0646
     18 C16       -49.8370   -6.6450  -30.5500 C.ar      1 DEQ        -0.0817
     19 C17       -49.7330   -5.3410  -30.9750 C.ar      1 DEQ        -0.0803
     20 C18       -50.5490   -4.3920  -30.4130 C.ar      1 DEQ        -0.0461
     21 C19       -52.1360   -2.4870  -29.3520 C.3       1 DEQ         0.0422
     22 C20       -50.6390   -2.3220  -29.4360 C.3       1 DEQ        -0.0297
     23 C21       -50.2220   -0.9840  -29.9560 C.3       1 DEQ        -0.0510
     24 C22       -48.7550   -0.8200  -29.6780 C.3       1 DEQ        -0.0530
     25 C23       -48.4720   -0.5920  -28.2150 C.3       1 DEQ        -0.0531
     26 C24       -47.0200   -0.2110  -28.0420 C.3       1 DEQ        -0.0531
     27 C25       -46.8700    0.7210  -26.8770 C.3       1 DEQ        -0.0530
     28 C26       -45.4290    0.8090  -26.4480 C.3       1 DEQ        -0.0512
     29 C27       -44.6950   -0.4820  -26.6710 C.3       1 DEQ        -0.0329
     30 C28       -44.1940   -0.9990  -25.3450 C.3       1 DEQ         0.0293
     31 C30       -44.1680   -3.6190  -26.5890 C.3       1 DEQ        -0.0376
     32 C29       -54.1140   -3.2390  -27.2250 C.3       1 DEQ        -0.0147
     33 N4        -40.7140   -4.5280  -23.3260 N.pl3     1 DEQ        -0.3493
     34 N3        -52.4420   -7.8910  -27.6340 N.4       1 DEQ         0.2343
     35 H1        -42.3062    0.7332  -25.0844 H         1 DEQ         0.0505
     36 H2        -40.5996    1.4773  -23.4979 H         1 DEQ         0.0562
     37 H3        -39.2954   -0.1470  -22.1985 H         1 DEQ         0.0502
     38 H4        -39.7298   -2.5415  -22.4995 H         1 DEQ         0.0560
     39 H5        -42.5865   -5.0495  -25.0863 H         1 DEQ         0.0334
     40 H6        -43.8899   -3.0290  -24.8362 H         1 DEQ         0.0646
     41 H7        -53.9480   -5.8379  -26.6895 H         1 DEQ         0.0187
     42 H8        -51.6643   -6.2721  -27.2542 H         1 DEQ         0.1015
     43 H9        -50.7702   -8.0830  -29.2657 H         1 DEQ         0.0514
     44 H10       -49.1957   -7.3913  -31.0049 H         1 DEQ         0.0491
     45 H11       -49.0175   -5.0674  -31.7420 H         1 DEQ         0.0525
     46 H12       -50.4854   -3.3611  -30.7420 H         1 DEQ         0.0495
     47 H13       -52.5738   -1.7630  -28.6491 H         1 DEQ         0.0558
     48 H14       -52.6023   -2.3660  -30.3409 H         1 DEQ         0.0558
     49 H15       -50.2389   -3.0975  -30.1057 H         1 DEQ         0.0288
     50 H16       -50.2158   -2.4531  -28.4292 H         1 DEQ         0.0288
     51 H17       -50.7901   -0.1912  -29.4473 H         1 DEQ         0.0266
     52 H18       -50.4059   -0.9296  -31.0391 H         1 DEQ         0.0266
     53 H19       -48.3809    0.0424  -30.2492 H         1 DEQ         0.0265
     54 H20       -48.2296   -1.7304  -30.0022 H         1 DEQ         0.0265
     55 H21       -48.6797   -1.5140  -27.6523 H         1 DEQ         0.0265
     56 H22       -49.1123    0.2194  -27.8387 H         1 DEQ         0.0265
     57 H23       -46.6627    0.2871  -28.9553 H         1 DEQ         0.0265
     58 H24       -46.4243   -1.1180  -27.8620 H         1 DEQ         0.0265
     59 H25       -47.4748    0.3491  -26.0368 H         1 DEQ         0.0265
     60 H26       -47.2220    1.7218  -27.1675 H         1 DEQ         0.0265
     61 H27       -45.3919    1.0580  -25.3772 H         1 DEQ         0.0266
     62 H28       -44.9342    1.6031  -27.0265 H         1 DEQ         0.0266
     63 H29       -43.8430   -0.3099  -27.3452 H         1 DEQ         0.0284
     64 H30       -45.3754   -1.2199  -27.1210 H         1 DEQ         0.0284
     65 H31       -44.0177   -0.1566  -24.6600 H         1 DEQ         0.0518
     66 H32       -44.9385   -1.6792  -24.9057 H         1 DEQ         0.0518
     67 H33       -44.1899   -4.7165  -26.5176 H         1 DEQ         0.0269
     68 H34       -43.9099   -3.3236  -27.6166 H         1 DEQ         0.0269
     69 H35       -45.1574   -3.2148  -26.3288 H         1 DEQ         0.0269
     70 H36       -54.7328   -3.7571  -26.4776 H         1 DEQ         0.0409
     71 H37       -54.7637   -2.7838  -27.9870 H         1 DEQ         0.0409
     72 H38       -53.5228   -2.4540  -26.7308 H         1 DEQ         0.0409
     73 H39       -39.9921   -4.2105  -22.6635 H         1 DEQ         0.1661
     74 H40       -40.8947   -5.5348  -23.4473 H         1 DEQ         0.1661
     75 H41       -51.7584   -8.4050  -28.1675 H         1 DEQ         0.2011
     76 H42       -53.3592   -8.2708  -27.8087 H         1 DEQ         0.2011
     77 H43       -52.2282   -7.9671  -26.6519 H         1 DEQ         0.2011
@<TRIPOS>BOND
     1    1    2 ar 
     2    5    1 ar 
     3    2    3 ar 
     4    4    3 ar 
     5    6    4 ar 
     6    5    6 ar 
     7   10    5 1  
     8    6    7 1  
     9    8    7 2  
    10    7   33 1  
    11    9    8 1  
    12   10    9 1  
    13    9   31 1  
    14   30   10 1  
    15   12   11 ar 
    16   11   16 1  
    17   11   17 ar 
    18   13   12 1  
    19   12   20 ar 
    20   13   14 1  
    21   21   13 1  
    22   14   15 2  
    23   14   32 1  
    24   15   16 1  
    25   16   34 1  
    26   17   18 ar 
    27   19   18 ar 
    28   20   19 ar 
    29   22   21 1  
    30   23   22 1  
    31   24   23 1  
    32   25   24 1  
    33   26   25 1  
    34   27   26 1  
    35   28   27 1  
    36   29   28 1  
    37   29   30 1  
    38    1   35 1  
    39    2   36 1  
    40    3   37 1  
    41    4   38 1  
    42    8   39 1  
    43    9   40 1  
    44   15   41 1  
    45   16   42 1  
    46   17   43 1  
    47   18   44 1  
    48   19   45 1  
    49   20   46 1  
    50   21   47 1  
    51   21   48 1  
    52   22   49 1  
    53   22   50 1  
    54   23   51 1  
    55   23   52 1  
    56   24   53 1  
    57   24   54 1  
    58   25   55 1  
    59   25   56 1  
    60   26   57 1  
    61   26   58 1  
    62   27   59 1  
    63   27   60 1  
    64   28   61 1  
    65   28   62 1  
    66   29   63 1  
    67   29   64 1  
    68   30   65 1  
    69   30   66 1  
    70   31   67 1  
    71   31   68 1  
    72   31   69 1  
    73   32   70 1  
    74   32   71 1  
    75   32   72 1  
    76   33   73 1  
    77   33   74 1  
    78   34   75 1  
    79   34   76 1  
    80   34   77 1  
@<TRIPOS>SUBSTRUCTURE
     1 DEQ         1

