### 
### Created by X-TOOL on Mon Sep 10 21:13:15 2018
### 

@<TRIPOS>MOLECULE
3vw1_ligand
   59    61     1     0     0
SMALL
GAST_HUCK


@<TRIPOS>ATOM
      1 C1        -13.4020    2.7860  -18.6720 C.3       1 CVI         0.0405
      2 C2        -12.6860    3.3930  -17.5410 C.ar      1 CVI        -0.0347
      3 C3        -11.6340    2.7120  -16.9750 C.ar      1 CVI        -0.0680
      4 C4        -10.9790    3.2650  -15.8490 C.ar      1 CVI        -0.0500
      5 C5        -11.4240    4.5220  -15.3720 C.ar      1 CVI         0.0334
      6 C6        -12.4950    5.1980  -15.9950 C.ar      1 CVI        -0.0500
      7 C7        -13.1250    4.6120  -17.0780 C.ar      1 CVI        -0.0680
      8 C8        -14.8730    3.0700  -18.8150 C.ar      1 CVI        -0.0347
      9 C9        -15.3830    3.5690  -20.0210 C.ar      1 CVI        -0.0680
     10 C10       -16.7790    3.8380  -20.1240 C.ar      1 CVI        -0.0500
     11 C11       -17.6380    3.6340  -19.0460 C.ar      1 CVI         0.0334
     12 C12       -17.1200    3.1630  -17.8470 C.ar      1 CVI        -0.0500
     13 C13       -15.7410    2.8780  -17.7030 C.ar      1 CVI        -0.0680
     14 C14       -12.6310    2.0310  -19.6670 C.ar      1 CVI        -0.0347
     15 C15       -11.2440    2.1680  -19.7960 C.ar      1 CVI        -0.0680
     16 C16       -10.6130    1.4160  -20.8130 C.ar      1 CVI        -0.0500
     17 C17       -11.3340    0.5240  -21.6340 C.ar      1 CVI         0.0334
     18 C18       -12.6950    0.4160  -21.4570 C.ar      1 CVI        -0.0500
     19 C19       -13.3330    1.1710  -20.4870 C.ar      1 CVI        -0.0680
     20 C20        -9.4710    4.6310  -13.8240 C.3       1 CVI         0.0139
     21 C21       -11.3910    6.1790  -13.4840 C.3       1 CVI         0.0139
     22 C22       -19.5190    4.6360  -20.2470 C.3       1 CVI         0.0139
     23 C23       -19.7550    3.4460  -17.9850 C.3       1 CVI         0.0139
     24 C24        -9.2330   -0.1860  -22.7330 C.3       1 CVI         0.0139
     25 C25       -11.3620   -0.8560  -23.8100 C.3       1 CVI         0.0139
     26 N1        -10.7970    5.0960  -14.2540 N.pl3     1 CVI        -0.3184
     27 N2        -18.9750    3.9030  -19.1200 N.pl3     1 CVI        -0.3184
     28 N3        -10.6850   -0.1980  -22.6840 N.pl3     1 CVI        -0.3184
     29 H1        -13.6095    1.8680  -18.1026 H         1 CVI         0.0701
     30 H2        -11.3102    1.7628  -17.3864 H         1 CVI         0.0531
     31 H3        -10.1613    2.7422  -15.3662 H         1 CVI         0.0500
     32 H4        -12.8200    6.1652  -15.6290 H         1 CVI         0.0500
     33 H5        -13.9592    5.1099  -17.5589 H         1 CVI         0.0531
     34 H6        -14.7251    3.7479  -20.8638 H         1 CVI         0.0531
     35 H7        -17.1806    4.2089  -21.0601 H         1 CVI         0.0500
     36 H8        -17.7848    3.0105  -17.0045 H         1 CVI         0.0500
     37 H9        -15.3507    2.5181  -16.7579 H         1 CVI         0.0531
     38 H10       -10.6778    2.8230  -19.1437 H         1 CVI         0.0531
     39 H11        -9.5457    1.5279  -20.9662 H         1 CVI         0.0500
     40 H12       -13.2688   -0.2618  -22.0786 H         1 CVI         0.0500
     41 H13       -14.4071    1.0846  -20.3692 H         1 CVI         0.0531
     42 H14        -9.1529    5.1993  -12.9375 H         1 CVI         0.0475
     43 H15        -8.7468    4.7850  -14.6375 H         1 CVI         0.0475
     44 H16        -9.5207    3.5607  -13.5750 H         1 CVI         0.0475
     45 H17       -12.3753    6.4314  -13.9053 H         1 CVI         0.0475
     46 H18       -10.7363    7.0618  -13.5275 H         1 CVI         0.0475
     47 H19       -11.5104    5.8622  -12.4374 H         1 CVI         0.0475
     48 H20       -20.6059    4.7488  -20.1208 H         1 CVI         0.0475
     49 H21       -19.3130    4.0852  -21.1766 H         1 CVI         0.0475
     50 H22       -19.0508    5.6300  -20.2984 H         1 CVI         0.0475
     51 H23       -19.0983    2.9189  -17.2772 H         1 CVI         0.0475
     52 H24       -20.5429    2.7619  -18.3331 H         1 CVI         0.0475
     53 H25       -20.2150    4.3106  -17.4842 H         1 CVI         0.0475
     54 H26        -8.8902   -0.7823  -23.5914 H         1 CVI         0.0475
     55 H27        -8.8312   -0.6163  -21.8038 H         1 CVI         0.0475
     56 H28        -8.8783    0.8496  -22.8409 H         1 CVI         0.0475
     57 H29       -12.4511   -0.8032  -23.6645 H         1 CVI         0.0475
     58 H30       -11.0495   -1.9094  -23.8608 H         1 CVI         0.0475
     59 H31       -11.0923   -0.3479  -24.7476 H         1 CVI         0.0475
@<TRIPOS>BOND
     1    1    2 1  
     2    1    8 1  
     3    1   14 1  
     4    2    3 ar 
     5    2    7 ar 
     6    3    4 ar 
     7    4    5 ar 
     8    5    6 ar 
     9    5   26 1  
    10    6    7 ar 
    11    8    9 ar 
    12    8   13 ar 
    13    9   10 ar 
    14   10   11 ar 
    15   11   12 ar 
    16   11   27 1  
    17   12   13 ar 
    18   14   15 ar 
    19   14   19 ar 
    20   15   16 ar 
    21   16   17 ar 
    22   17   18 ar 
    23   17   28 1  
    24   18   19 ar 
    25   26   20 1  
    26   26   21 1  
    27   27   22 1  
    28   27   23 1  
    29   28   24 1  
    30   28   25 1  
    31    1   29 1  
    32    3   30 1  
    33    4   31 1  
    34    6   32 1  
    35    7   33 1  
    36    9   34 1  
    37   10   35 1  
    38   12   36 1  
    39   13   37 1  
    40   15   38 1  
    41   16   39 1  
    42   18   40 1  
    43   19   41 1  
    44   20   42 1  
    45   20   43 1  
    46   20   44 1  
    47   21   45 1  
    48   21   46 1  
    49   21   47 1  
    50   22   48 1  
    51   22   49 1  
    52   22   50 1  
    53   23   51 1  
    54   23   52 1  
    55   23   53 1  
    56   24   54 1  
    57   24   55 1  
    58   24   56 1  
    59   25   57 1  
    60   25   58 1  
    61   25   59 1  
@<TRIPOS>SUBSTRUCTURE
     1 CVI         1

