### 
### Created by X-TOOL on Mon Sep 10 21:13:15 2018
### 

@<TRIPOS>MOLECULE
3vw2_ligand
   45    49     1     0     0
SMALL
GAST_HUCK


@<TRIPOS>ATOM
      1 C1          2.6150   14.5040  -34.3610 C.ar      1 BER         0.0414
      2 C2          2.6370   13.1850  -34.9190 C.ar      1 BER         0.0003
      3 N1          1.5430   15.2620  -34.5030 N.ar      1 BER        -0.3639
      4 C3          3.8780   14.8570  -33.6970 C.3       1 BER         0.0667
      5 C4          1.4270   12.7340  -35.5940 C.ar      1 BER        -0.0244
      6 C5          3.7670   12.4330  -34.7970 C.ar      1 BER        -0.0218
      7 C6          1.4790   16.4810  -33.9780 C.3       1 BER         0.0332
      8 C7          0.4450   14.8420  -35.1220 C.ar      1 BER        -0.0237
      9 C8          3.7560   16.1430  -33.0080 C.2       1 BER         0.0392
     10 C9          1.3700   11.4910  -36.1430 C.ar      1 BER        -0.0249
     11 C10         0.3600   13.5930  -35.6760 C.ar      1 BER        -0.0497
     12 C11         3.6670   11.2100  -35.3580 C.ar      1 BER         0.1351
     13 C12         2.6660   17.0920  -33.3260 C.3       1 BER         0.0946
     14 C13         4.6860   16.4830  -32.1480 C.2       1 BER         0.0070
     15 C14         2.4930   10.7410  -36.0260 C.ar      1 BER         0.1350
     16 O1          4.5590   10.2430  -35.3900 O.3       1 BER        -0.2843
     17 C15         2.2030   17.8420  -32.1200 C.3       1 BER         0.1866
     18 C16         4.5680   17.7610  -31.4820 C.2       1 BER         0.0402
     19 O2          2.7080    9.5020  -36.4670 O.3       1 BER        -0.2830
     20 C17         3.9930    9.1130  -36.0330 C.3       1 BER         0.1910
     21 C18         3.4110   18.4090  -31.4880 C.2       1 BER         0.1993
     22 O3          1.4470   18.9040  -32.6500 O.3       1 BER        -0.3436
     23 O4          3.3500   19.6890  -30.8630 O.3       1 BER        -0.2545
     24 C19         1.2570   19.9720  -31.7650 C.3       1 BER         0.0430
     25 C20         4.4900   19.9960  -30.1200 C.3       1 BER         0.0845
     26 H1          4.6761   14.9251  -34.4509 H         1 BER         0.0832
     27 H2          4.1315   14.0769  -32.9641 H         1 BER         0.0832
     28 H3          4.6620   12.7844  -34.2963 H         1 BER         0.0526
     29 H4          0.6833   16.4543  -33.2190 H         1 BER         0.0462
     30 H5          1.1855   17.1586  -34.7932 H         1 BER         0.0462
     31 H6         -0.4080   15.5074  -35.1903 H         1 BER         0.0701
     32 H7          0.4815   11.1229  -36.6432 H         1 BER         0.0501
     33 H8         -0.5489   13.2830  -36.1788 H         1 BER         0.0616
     34 H9          3.0856   17.8222  -34.0336 H         1 BER         0.0742
     35 H10         5.5250   15.8203  -31.9410 H         1 BER         0.0796
     36 H11         1.6250   17.2180  -31.4225 H         1 BER         0.1052
     37 H12         5.4301   18.1918  -30.9750 H         1 BER         0.0804
     38 H13         3.9177    8.2723  -35.3277 H         1 BER         0.0981
     39 H14         4.6109    8.8158  -36.8931 H         1 BER         0.0981
     40 H15         0.6596   20.7538  -32.2568 H         1 BER         0.0528
     41 H16         2.2339   20.3856  -31.4743 H         1 BER         0.0528
     42 H17         0.7281   19.6158  -30.8687 H         1 BER         0.0528
     43 H18         4.3757   20.9923  -29.6679 H         1 BER         0.0632
     44 H19         5.3700   19.9917  -30.7800 H         1 BER         0.0632
     45 H20         4.6233   19.2463  -29.3262 H         1 BER         0.0632
@<TRIPOS>BOND
     1    1    2 ar 
     2    1    3 ar 
     3    1    4 1  
     4    2    5 ar 
     5    2    6 ar 
     6    3    7 1  
     7    3    8 ar 
     8    4    9 1  
     9    5   10 ar 
    10    5   11 ar 
    11    6   12 ar 
    12    7   13 1  
    13    8   11 ar 
    14    9   13 1  
    15    9   14 2  
    16   10   15 ar 
    17   12   15 ar 
    18   12   16 1  
    19   13   17 1  
    20   14   18 1  
    21   15   19 1  
    22   16   20 1  
    23   17   21 1  
    24   17   22 1  
    25   18   21 2  
    26   19   20 1  
    27   21   23 1  
    28   22   24 1  
    29   23   25 1  
    30    4   26 1  
    31    4   27 1  
    32    6   28 1  
    33    7   29 1  
    34    7   30 1  
    35    8   31 1  
    36   10   32 1  
    37   11   33 1  
    38   13   34 1  
    39   14   35 1  
    40   17   36 1  
    41   18   37 1  
    42   20   38 1  
    43   20   39 1  
    44   24   40 1  
    45   24   41 1  
    46   24   42 1  
    47   25   43 1  
    48   25   44 1  
    49   25   45 1  
@<TRIPOS>SUBSTRUCTURE
     1 BER         1

