### 
### Created by X-TOOL on Mon Sep 10 21:13:09 2018
### 

@<TRIPOS>MOLECULE
3vw9_ligand
   49    52     1     0     0
SMALL
GAST_HUCK


@<TRIPOS>ATOM
      1 C4          5.6130  -10.7480  -24.6640 C.3       1 HPJ        -0.0023
      2 C14         9.7490  -12.1760  -28.2440 C.ar      1 HPJ         0.0386
      3 C5          5.2810  -10.5450  -26.1660 C.3       1 HPJ         0.0571
      4 C11         7.2330  -11.6170  -27.2870 C.ar      1 HPJ         0.1419
      5 C7          5.3370  -12.6620  -27.4930 C.2       1 HPJ         0.0312
      6 C8          6.2500  -13.3940  -28.1340 C.2       1 HPJ        -0.0539
      7 C9          7.4300  -12.7650  -28.0510 C.ar      1 HPJ         0.0048
      8 C10         8.7220  -13.0980  -28.4770 C.ar      1 HPJ        -0.0384
      9 C13         9.4790  -11.0440  -27.4650 C.ar      1 HPJ         0.0112
     10 C3          4.9530  -11.9970  -24.0440 C.3       1 HPJ         0.0498
     11 C1          2.8650  -13.0760  -23.7180 C.3       1 HPJ         0.0364
     12 O2          3.5280  -11.8320  -23.9930 O.3       1 HPJ        -0.3829
     13 N6          5.9400  -11.5870  -26.9870 N.pl3     1 HPJ        -0.2491
     14 N12         8.2550  -10.7870  -27.0010 N.ar      1 HPJ        -0.2804
     15 C15        11.0720  -12.4630  -28.6030 C.2       1 HPJ         0.1342
     16 C16        11.4590  -12.8890  -29.8730 C.2       1 HPJ        -0.0310
     17 N17        12.0630  -12.3360  -27.6070 N.am      1 HPJ        -0.0767
     18 O18        11.7860  -11.8910  -26.3050 O.3       1 HPJ        -0.2284
     19 C20        13.4030  -12.6430  -27.8780 C.2       1 HPJ         0.2204
     20 O21        14.2160  -12.4940  -26.9410 O.2       1 HPJ        -0.4243
     21 C22        13.7770  -13.0590  -29.1660 C.2       1 HPJ        -0.0097
     22 C23        12.8170  -13.1490  -30.1900 C.2       1 HPJ        -0.0374
     23 C24        13.1880  -13.5830  -31.4890 C.ar      1 HPJ        -0.0186
     24 C25        12.3010  -14.3370  -32.2790 C.ar      1 HPJ        -0.0513
     25 C26        12.7100  -14.7920  -33.5450 C.ar      1 HPJ        -0.0587
     26 C27        13.9870  -14.4920  -34.0400 C.ar      1 HPJ        -0.0595
     27 C28        14.8670  -13.7200  -33.2830 C.ar      1 HPJ        -0.0587
     28 C29        14.4580  -13.2700  -32.0150 C.ar      1 HPJ        -0.0513
     29 H           5.2332   -9.8790  -24.1267 H         1 HPJ         0.0314
     30 H           6.6924  -10.8771  -24.5842 H         1 HPJ         0.0314
     31 H           5.6419   -9.5655  -26.4797 H         1 HPJ         0.0609
     32 H           4.2020  -10.6151  -26.3033 H         1 HPJ         0.0609
     33 H           4.2780  -12.9025  -27.3992 H         1 HPJ         0.0968
     34 H           6.0670  -14.3424  -28.6392 H         1 HPJ         0.0310
     35 H           8.9217  -14.0468  -28.9751 H         1 HPJ         0.0719
     36 H          10.2905  -10.3547  -27.2316 H         1 HPJ         0.0788
     37 H           5.3323  -12.1351  -23.0315 H         1 HPJ         0.0560
     38 H           5.1894  -12.8666  -24.6572 H         1 HPJ         0.0560
     39 H           3.1024  -13.7941  -24.5029 H         1 HPJ         0.0523
     40 H           3.2034  -13.4618  -22.7564 H         1 HPJ         0.0523
     41 H           1.7877  -12.9129  -23.6867 H         1 HPJ         0.0523
     42 H          10.6986  -13.0257  -30.6419 H         1 HPJ         0.0359
     43 H          12.5977  -11.8792  -25.7926 H         1 HPJ         0.2641
     44 H          14.8164  -13.3134  -29.3732 H         1 HPJ         0.0379
     45 H          11.3011  -14.5674  -31.9113 H         1 HPJ         0.0644
     46 H          12.0249  -15.3861  -34.1498 H         1 HPJ         0.0624
     47 H          14.2922  -14.8630  -35.0184 H         1 HPJ         0.0636
     48 H          15.8556  -13.4693  -33.6675 H         1 HPJ         0.0624
     49 H          15.1419  -12.6623  -31.4224 H         1 HPJ         0.0644
@<TRIPOS>BOND
     1    3    1 1  
     2    1   10 1  
     3    8    2 ar 
     4    2    9 ar 
     5    2   15 1  
     6   13    3 1  
     7    7    4 ar 
     8    4   13 1  
     9    4   14 ar 
    10    6    5 2  
    11    5   13 1  
    12    7    6 1  
    13    7    8 ar 
    14    9   14 ar 
    15   10   12 1  
    16   12   11 1  
    17   15   16 2  
    18   15   17 1  
    19   16   22 1  
    20   17   18 1  
    21   17   19 am 
    22   19   20 2  
    23   19   21 1  
    24   21   22 2  
    25   22   23 1  
    26   23   24 ar 
    27   23   28 ar 
    28   24   25 ar 
    29   25   26 ar 
    30   26   27 ar 
    31   27   28 ar 
    32    1   29 1  
    33    1   30 1  
    34    3   31 1  
    35    3   32 1  
    36    5   33 1  
    37    6   34 1  
    38    8   35 1  
    39    9   36 1  
    40   10   37 1  
    41   10   38 1  
    42   11   39 1  
    43   11   40 1  
    44   11   41 1  
    45   16   42 1  
    46   18   43 1  
    47   21   44 1  
    48   24   45 1  
    49   25   46 1  
    50   26   47 1  
    51   27   48 1  
    52   28   49 1  
@<TRIPOS>SUBSTRUCTURE
     1 HPJ         1

