### 
### Created by X-TOOL on Mon Sep 10 21:13:13 2018
### 

@<TRIPOS>MOLECULE
3vws_ligand
   35    37     1     0     0
SMALL
GAST_HUCK


@<TRIPOS>ATOM
      1 CL1        36.7950   61.6280   14.1380 Cl        1 VWS        -0.0707
      2 C5         35.3500   62.4450   13.5400 C.ar      1 VWS         0.0405
      3 C4         35.5820   63.7580   13.1470 C.ar      1 VWS        -0.0459
      4 C3         34.5240   64.5220   12.6650 C.ar      1 VWS        -0.0341
      5 C6         34.0630   61.8430   13.4470 C.ar      1 VWS        -0.0459
      6 C2         32.9920   62.6320   12.9460 C.ar      1 VWS        -0.0341
      7 C1         33.2330   64.0060   12.5480 C.ar      1 VWS         0.1137
      8 S1         32.1290   65.0580   12.0050 S.o2      1 VWS         0.0875
      9 O1         32.1950   65.5620   10.6460 O.2       1 VWS        -0.1450
     10 O2         31.0920   64.1400   11.5530 O.2       1 VWS        -0.1450
     11 N1         31.1860   65.6660   13.1420 N.am      1 VWS        -0.1950
     12 C12        30.8340   65.2000   14.3800 C.ar      1 VWS         0.0434
     13 C7         30.1130   63.9830   14.5600 C.ar      1 VWS        -0.0569
     14 C8         29.7240   63.5680   15.8640 C.ar      1 VWS        -0.0455
     15 C11        31.1710   66.0150   15.5170 C.ar      1 VWS        -0.0619
     16 C10        30.7740   65.6000   16.8230 C.ar      1 VWS        -0.0250
     17 C13        30.8980   66.0980   18.1610 C.2       1 VWS         0.0180
     18 C15        31.6110   67.3900   18.5440 C.2       1 VWS         0.0331
     19 O4         32.1090   68.1640   17.6910 O.co2     1 VWS        -0.5750
     20 O5         31.7330   67.6640   19.7640 O.co2     1 VWS        -0.5750
     21 C9         30.0620   64.3920   16.9780 C.ar      1 VWS         0.1094
     22 O3         29.7760   64.1600   18.2480 O.3       1 VWS        -0.2516
     23 C14        30.2570   65.1930   19.0260 C.2       1 VWS         0.1169
     24 C16        30.0100   65.0910   20.5270 C.3       1 VWS         0.0098
     25 H1         36.5772   64.1823   13.2154 H         1 VWS         0.0624
     26 H2         34.7082   65.5491   12.3715 H         1 VWS         0.0637
     27 H3         33.9047   60.8141   13.7491 H         1 VWS         0.0624
     28 H4         31.9979   62.2081   12.8616 H         1 VWS         0.0637
     29 H5         30.7784   66.5482   12.9063 H         1 VWS         0.2120
     30 H6         29.8606   63.3723   13.7007 H         1 VWS         0.0416
     31 H7         29.1801   62.6415   16.0084 H         1 VWS         0.0525
     32 H8         31.7229   66.9382   15.3821 H         1 VWS         0.0344
     33 H9         29.4426   64.1739   20.7437 H         1 VWS         0.0472
     34 H10        29.4352   65.9661   20.8643 H         1 VWS         0.0472
     35 H11        30.9739   65.0593   21.0559 H         1 VWS         0.0472
@<TRIPOS>BOND
     1    1    2 1  
     2    2    3 ar 
     3    2    5 ar 
     4    3    4 ar 
     5    4    7 ar 
     6    5    6 ar 
     7    6    7 ar 
     8    7    8 1  
     9    8    9 2  
    10    8   10 2  
    11    8   11 am 
    12   11   12 1  
    13   12   13 ar 
    14   12   15 ar 
    15   13   14 ar 
    16   14   21 ar 
    17   15   16 ar 
    18   16   17 1  
    19   16   21 ar 
    20   17   18 1  
    21   17   23 2  
    22   18   19 ar 
    23   18   20 ar 
    24   21   22 1  
    25   22   23 1  
    26   23   24 1  
    27    3   25 1  
    28    4   26 1  
    29    5   27 1  
    30    6   28 1  
    31   11   29 1  
    32   13   30 1  
    33   14   31 1  
    34   15   32 1  
    35   24   33 1  
    36   24   34 1  
    37   24   35 1  
@<TRIPOS>SUBSTRUCTURE
     1 VWS         1

