### 
### Created by X-TOOL on Mon Sep 10 21:13:15 2018
### 

@<TRIPOS>MOLECULE
3vzd_ligand
   31    33     1     0     0
SMALL
GAST_HUCK


@<TRIPOS>ATOM
      1 C16         1.5590  -31.1530   -6.8870 C.ar      1 UUL        -0.0458
      2 C19         1.5330  -29.9210   -6.2260 C.ar      1 UUL        -0.0421
      3 C12         2.6640  -29.1040   -6.3360 C.ar      1 UUL         0.0762
      4 O20         2.7350  -27.9200   -5.6920 O.3       1 UUL        -0.3404
      5 C18         3.7780  -29.4900   -7.0730 C.ar      1 UUL        -0.0421
      6 C17         3.7920  -30.7060   -7.7180 C.ar      1 UUL        -0.0458
      7 C10         2.6810  -31.5380   -7.6520 C.ar      1 UUL         0.0573
      8 N6          2.7860  -32.7080   -8.3190 N.pl3     1 UUL        -0.2428
      9 C2          2.2300  -33.8860   -7.9700 C.2       1 UUL         0.1983
     10 N1          1.4250  -34.1280   -6.9130 N.2       1 UUL        -0.3094
     11 S4          2.4050  -35.3480   -8.8700 S.3       1 UUL         0.0208
     12 C5          1.3650  -36.2360   -7.8310 C.2       1 UUL         0.0108
     13 C3          0.9800  -35.4160   -6.8040 C.2       1 UUL         0.0062
     14 C7          0.1580  -35.8070   -5.7490 C.ar      1 UUL        -0.0254
     15 C8         -0.0170  -34.9190   -4.6830 C.ar      1 UUL        -0.0581
     16 C14        -0.8570  -35.2230   -3.6160 C.ar      1 UUL        -0.0507
     17 C11        -1.5150  -36.4580   -3.6000 C.ar      1 UUL         0.0373
     18 CL         -2.5470  -36.8280   -2.2560 Cl        1 UUL        -0.0731
     19 C13        -1.3330  -37.3380   -4.6630 C.ar      1 UUL        -0.0507
     20 C9         -0.5080  -37.0400   -5.7390 C.ar      1 UUL        -0.0581
     21 H1          0.7078  -31.8199   -6.8110 H         1 UUL         0.0512
     22 H2          0.6690  -29.6103   -5.6498 H         1 UUL         0.0516
     23 H3          3.5691  -27.5070   -5.8820 H         1 UUL         0.2444
     24 H4          4.6370  -28.8322   -7.1398 H         1 UUL         0.0516
     25 H5          4.6684  -31.0141   -8.2766 H         1 UUL         0.0512
     26 H6          3.3480  -32.6995   -9.1821 H         1 UUL         0.2184
     27 H7          1.0633  -37.2737   -7.9658 H         1 UUL         0.0673
     28 H8          0.5131  -33.9735   -4.6879 H         1 UUL         0.0595
     29 H9         -0.9996  -34.5135   -2.8090 H         1 UUL         0.0615
     30 H10        -1.8534  -38.2888   -4.6502 H         1 UUL         0.0615
     31 H11        -0.3818  -37.7449   -6.5528 H         1 UUL         0.0595
@<TRIPOS>BOND
     1    1    2 ar 
     2    1    7 ar 
     3    2    3 ar 
     4    3    4 1  
     5    3    5 ar 
     6    5    6 ar 
     7    6    7 ar 
     8    7    8 1  
     9    8    9 1  
    10    9   10 2  
    11    9   11 1  
    12   10   13 1  
    13   11   12 1  
    14   12   13 2  
    15   13   14 1  
    16   14   15 ar 
    17   14   20 ar 
    18   15   16 ar 
    19   16   17 ar 
    20   17   18 1  
    21   17   19 ar 
    22   19   20 ar 
    23    1   21 1  
    24    2   22 1  
    25    4   23 1  
    26    5   24 1  
    27    6   25 1  
    28    8   26 1  
    29   12   27 1  
    30   15   28 1  
    31   16   29 1  
    32   19   30 1  
    33   20   31 1  
@<TRIPOS>SUBSTRUCTURE
     1 UUL         1

