### 
### Created by X-TOOL on Mon Sep 10 21:13:15 2018
### 

@<TRIPOS>MOLECULE
3vzg_ligand
   38    38     1     0     0
SMALL
GAST_HUCK


@<TRIPOS>ATOM
      1 N          23.8050   -0.9000    7.1800 N.4       1 THR         0.2345
      2 CA         23.5930   -0.0650    8.3530 C.3       1 THR         0.0548
      3 C          24.2560   -0.6740    9.5600 C.2       1 THR         0.0870
      4 O          24.2190   -1.9150    9.7180 O.co2     1 THR        -0.5642
      5 CB         22.0950    0.2000    8.5930 C.3       1 THR         0.1131
      6 OG1        21.8460    0.7600    9.8910 O.3       1 THR        -0.3383
      7 CG2        21.2290   -1.0500    8.4320 C.3       1 THR        -0.0316
      8 OXT        24.8270    0.0980   10.3620 O.co2     1 THR        -0.5642
      9 C1         21.9320    2.1930    9.9670 C.3       1 MAN         0.1886
     10 C2         21.7010    2.6560   11.4100 C.3       1 MAN         0.1341
     11 C3         20.2210    2.6070   11.8060 C.3       1 MAN         0.1141
     12 C4         19.3120    3.2600   10.7630 C.3       1 MAN         0.1119
     13 C5         19.6270    2.7530    9.3520 C.3       1 MAN         0.1130
     14 C6         18.8480    3.5160    8.2840 C.3       1 MAN         0.0730
     15 O2         22.2060    3.9880   11.5660 O.3       1 MAN        -0.3841
     16 O3         20.0320    3.2460   13.0750 O.3       1 MAN        -0.3864
     17 O4         17.9470    2.9730   11.0910 O.3       1 MAN        -0.3865
     18 O5         21.0290    2.8570    9.0610 O.3       1 MAN        -0.3405
     19 O6         19.3850    4.8320    8.1170 O.3       1 MAN        -0.3924
     20 H          24.7928   -1.0540    7.0513 H         1 THR         0.2011
     21 H          23.4281   -0.4389    6.3667 H         1 THR         0.2011
     22 H          23.3410   -1.7854    7.3095 H         1 THR         0.2011
     23 H          24.0733    0.9063    8.1637 H         1 THR         0.1050
     24 H          21.7716    0.9325    7.8388 H         1 THR         0.0670
     25 H          20.1755   -0.7924    8.6160 H         1 THR         0.0258
     26 H          21.5510   -1.8147    9.1542 H         1 THR         0.0258
     27 H          21.3374   -1.4421    7.4100 H         1 THR         0.0258
     28 H          22.9544    2.4794    9.6794 H         1 THR         0.0938
     29 H          22.2579    1.9857   12.0812 H         1 THR         0.0671
     30 H          19.9292    1.5505   11.8989 H         1 THR         0.0648
     31 H          19.4675    4.3487   10.7883 H         1 THR         0.0647
     32 H          19.3375    1.6930    9.3017 H         1 THR         0.0647
     33 H          17.7938    3.5911    8.5891 H         1 THR         0.0584
     34 H          18.9157    2.9735    7.3295 H         1 THR         0.0584
     35 H          22.1155    4.2556   12.4730 H         1 THR         0.2101
     36 H          20.2484    4.1679   12.9994 H         1 THR         0.2100
     37 H          17.3751    3.4049   10.4673 H         1 THR         0.2100
     38 H          19.3256    5.3038    8.9395 H         1 THR         0.2095
@<TRIPOS>BOND
     1    1    2 1  
     2    2    3 1  
     3    2    5 1  
     4    3    4 ar 
     5    3    8 ar 
     6    5    6 1  
     7    5    7 1  
     8    6    9 1  
     9    9   10 1  
    10    9   18 1  
    11   10   11 1  
    12   10   15 1  
    13   11   12 1  
    14   11   16 1  
    15   12   13 1  
    16   12   17 1  
    17   13   14 1  
    18   13   18 1  
    19   14   19 1  
    20    1   20 1  
    21    1   21 1  
    22    1   22 1  
    23    2   23 1  
    24    5   24 1  
    25    7   25 1  
    26    7   26 1  
    27    7   27 1  
    28    9   28 1  
    29   10   29 1  
    30   11   30 1  
    31   12   31 1  
    32   13   32 1  
    33   14   33 1  
    34   14   34 1  
    35   15   35 1  
    36   16   36 1  
    37   17   37 1  
    38   19   38 1  
@<TRIPOS>SUBSTRUCTURE
     1 THR         1

