### 
### Created by X-TOOL on Mon Sep 10 21:13:16 2018
### 

@<TRIPOS>MOLECULE
3vzv_ligand
   72    76     1     0     0
SMALL
GAST_HUCK


@<TRIPOS>ATOM
      1 O43        10.1510   -3.5540  -32.2010 O.2       1 VZV        -0.3952
      2 C42         9.2080   -3.9500  -31.5020 C.2       1 VZV         0.1998
      3 N5          8.2350   -4.7920  -31.9980 N.am      1 VZV        -0.2506
      4 C4          8.1770   -5.2340  -33.3980 C.3       1 VZV         0.1338
      5 C6          7.7870   -3.9400  -34.2390 C.2       1 VZV         0.2038
      6 O10         7.9820   -4.0040  -35.4730 O.2       1 VZV        -0.3943
      7 N7          7.2710   -2.7160  -33.6980 N.am      1 VZV        -0.2774
      8 C9          5.9070   -2.5370  -33.0190 C.3       1 VZV         0.0223
      9 C8          8.1050   -1.4560  -33.8040 C.3       1 VZV         0.0223
     10 C3          7.0850   -6.2890  -33.3440 C.3       1 VZV        -0.0104
     11 C2          6.8330   -6.6030  -31.8580 C.3       1 VZV        -0.0281
     12 C1          7.0540   -5.2500  -31.2180 C.3       1 VZV         0.0369
     13 C37         9.1520   -3.3520  -30.1050 C.3       1 VZV         0.1435
     14 C38        10.2610   -3.4980  -29.0450 C.3       1 VZV         0.0856
     15 C39        10.9650   -4.8370  -28.6520 C.3       1 VZV        -0.0187
     16 C41        10.5100   -6.1860  -29.2050 C.3       1 VZV        -0.0603
     17 C40        12.4810   -4.6530  -28.8210 C.3       1 VZV        -0.0603
     18 N35         9.5080   -2.9420  -27.8980 N.pl3     1 VZV        -0.2533
     19 C31         9.9030   -2.7800  -26.5390 C.3       1 VZV         0.0694
     20 C24         9.3540   -3.9140  -25.6910 C.ar      1 VZV        -0.0240
     21 C23        10.1780   -4.3570  -24.6700 C.ar      1 VZV        -0.0582
     22 C22         9.7020   -5.3560  -23.8720 C.ar      1 VZV        -0.0546
     23 C25         8.0940   -4.4820  -25.9540 C.ar      1 VZV        -0.0582
     24 C26         7.6220   -5.5060  -25.1400 C.ar      1 VZV        -0.0546
     25 C21         8.4410   -5.9200  -24.1030 C.ar      1 VZV         0.0330
     26 CL2         7.9610   -7.1870  -22.9740 Cl        1 VZV        -0.0771
     27 S36         8.0750   -2.1260  -29.7810 S.3       1 VZV        -0.0043
     28 C34         8.6840   -1.9040  -28.1970 C.2       1 VZV         0.1554
     29 N33         8.5370   -1.0180  -27.3510 N.2       1 VZV        -0.3937
     30 C32         9.3900   -1.3490  -26.1780 C.3       1 VZV         0.0190
     31 C44        10.5900   -0.3800  -26.1020 C.3       1 VZV        -0.0769
     32 C15         8.6360   -1.3260  -24.8030 C.ar      1 VZV        -0.0408
     33 C16         9.4350   -1.2800  -23.6510 C.ar      1 VZV        -0.0389
     34 C11         8.8800   -1.2840  -22.3890 C.ar      1 VZV        -0.0182
     35 C14         7.2350   -1.3900  -24.6720 C.ar      1 VZV        -0.0389
     36 C13         6.6910   -1.3960  -23.4050 C.ar      1 VZV        -0.0182
     37 C12         7.5130   -1.3420  -22.2760 C.ar      1 VZV         0.0714
     38 CL1         6.8510   -1.3150  -20.6410 Cl        1 VZV        -0.0420
     39 H1          9.1262   -5.6580  -33.7574 H         1 VZV         0.0802
     40 H2          5.7879   -1.4892  -32.7061 H         1 VZV         0.0486
     41 H3          5.8475   -3.1920  -32.1373 H         1 VZV         0.0486
     42 H4          5.1075   -2.8014  -33.7268 H         1 VZV         0.0486
     43 H5          9.0578   -1.6878  -34.3024 H         1 VZV         0.0486
     44 H6          8.3046   -1.0625  -32.7964 H         1 VZV         0.0486
     45 H7          7.5584   -0.7027  -34.3902 H         1 VZV         0.0486
     46 H8          7.4113   -7.1974  -33.8716 H         1 VZV         0.0313
     47 H9          6.1655   -5.9047  -33.8097 H         1 VZV         0.0313
     48 H10         7.5480   -7.3478  -31.4785 H         1 VZV         0.0287
     49 H11         5.8066   -6.9623  -31.6923 H         1 VZV         0.0287
     50 H12         6.1887   -4.5852  -31.3572 H         1 VZV         0.0524
     51 H13         7.2808   -5.3369  -30.1452 H         1 VZV         0.0524
     52 H14         8.5276   -4.1630  -29.7021 H         1 VZV         0.0716
     53 H15        11.0792   -2.8210  -29.3319 H         1 VZV         0.0615
     54 H16        10.7839   -4.9271  -27.5708 H         1 VZV         0.0321
     55 H17        11.1461   -6.9840  -28.7943 H         1 VZV         0.0233
     56 H18        10.5925   -6.1793  -30.3019 H         1 VZV         0.0233
     57 H19         9.4638   -6.3663  -28.9170 H         1 VZV         0.0233
     58 H20        12.7792   -3.6752  -28.4148 H         1 VZV         0.0233
     59 H21        12.7393   -4.7005  -29.8892 H         1 VZV         0.0233
     60 H22        13.0099   -5.4515  -28.2799 H         1 VZV         0.0233
     61 H23        10.9997   -2.7999  -26.4568 H         1 VZV         0.0642
     62 H24        11.1607   -3.9277  -24.5114 H         1 VZV         0.0558
     63 H25        10.3074   -5.7178  -23.0488 H         1 VZV         0.0606
     64 H26         7.4960   -4.1244  -26.7844 H         1 VZV         0.0558
     65 H27         6.6531   -5.9613  -25.3102 H         1 VZV         0.0606
     66 H28        10.2314    0.6284  -25.8479 H         1 VZV         0.0141
     67 H29        11.1016   -0.3528  -27.0754 H         1 VZV         0.0141
     68 H30        11.2917   -0.7253  -25.3285 H         1 VZV         0.0141
     69 H31        10.5132   -1.2404  -23.7554 H         1 VZV         0.0848
     70 H32         9.5083   -1.2423  -21.5066 H         1 VZV         0.0703
     71 H33         6.5983   -1.4336  -25.5482 H         1 VZV         0.0848
     72 H34         5.6149   -1.4431  -23.2834 H         1 VZV         0.0703
@<TRIPOS>BOND
     1    1    2 2  
     2    2    3 am 
     3    2   13 1  
     4    3    4 1  
     5    3   12 1  
     6    4    5 1  
     7    4   10 1  
     8    5    6 2  
     9    5    7 am 
    10    7    8 1  
    11    7    9 1  
    12   10   11 1  
    13   11   12 1  
    14   13   14 1  
    15   13   27 1  
    16   14   15 1  
    17   14   18 1  
    18   15   16 1  
    19   15   17 1  
    20   18   19 1  
    21   18   28 1  
    22   19   20 1  
    23   19   30 1  
    24   20   21 ar 
    25   20   23 ar 
    26   21   22 ar 
    27   22   25 ar 
    28   23   24 ar 
    29   24   25 ar 
    30   25   26 1  
    31   27   28 1  
    32   28   29 2  
    33   29   30 1  
    34   30   31 1  
    35   30   32 1  
    36   32   33 ar 
    37   32   35 ar 
    38   33   34 ar 
    39   34   37 ar 
    40   35   36 ar 
    41   36   37 ar 
    42   37   38 1  
    43    4   39 1  
    44    8   40 1  
    45    8   41 1  
    46    8   42 1  
    47    9   43 1  
    48    9   44 1  
    49    9   45 1  
    50   10   46 1  
    51   10   47 1  
    52   11   48 1  
    53   11   49 1  
    54   12   50 1  
    55   12   51 1  
    56   13   52 1  
    57   14   53 1  
    58   15   54 1  
    59   16   55 1  
    60   16   56 1  
    61   16   57 1  
    62   17   58 1  
    63   17   59 1  
    64   17   60 1  
    65   19   61 1  
    66   21   62 1  
    67   22   63 1  
    68   23   64 1  
    69   24   65 1  
    70   31   66 1  
    71   31   67 1  
    72   31   68 1  
    73   33   69 1  
    74   34   70 1  
    75   35   71 1  
    76   36   72 1  
@<TRIPOS>SUBSTRUCTURE
     1 VZV         1

