### 
### Created by X-TOOL on Mon Sep 10 21:13:15 2018
### 

@<TRIPOS>MOLECULE
3w1f_ligand
   50    53     1     0     0
SMALL
GAST_HUCK


@<TRIPOS>ATOM
      1 O3         -0.2380  -36.0670   -4.4770 O.2       1 1O5        -0.1514
      2 S          -1.1540  -35.1860   -5.1570 S.o2      1 1O5         0.0641
      3 O2         -0.8420  -33.7900   -4.8890 O.2       1 1O5        -0.1514
      4 N3         -2.6600  -35.3950   -4.6320 N.am      1 1O5        -0.2617
      5 C12        -1.0420  -35.5980   -6.7090 C.ar      1 1O5         0.1123
      6 C11        -0.6020  -34.6240   -7.5930 C.ar      1 1O5        -0.0269
      7 C13        -1.3670  -36.9700   -7.2390 C.ar      1 1O5        -0.0164
      8 C14        -1.8500  -38.1010   -6.3820 C.3       1 1O5        -0.0277
      9 C15        -1.2220  -37.2140   -8.5980 C.ar      1 1O5        -0.0552
     10 C16        -0.7790  -36.1810   -9.4260 C.ar      1 1O5        -0.0534
     11 C10        -0.4740  -34.9080   -8.9360 C.ar      1 1O5         0.0248
     12 C7          0.0110  -33.8120   -9.8210 C.2       1 1O5         0.1301
     13 N2         -0.1880  -32.4770   -9.6510 N.pl3     1 1O5        -0.2427
     14 N1          0.4390  -31.7530  -10.6780 N.2       1 1O5        -0.3236
     15 C8          0.8290  -33.9510  -11.0360 C.ar      1 1O5         0.0194
     16 C9          1.3270  -35.0650  -11.6880 C.ar      1 1O5        -0.0232
     17 C3          2.0640  -34.8720  -12.8520 C.ar      1 1O5         0.0943
     18 O1          2.5720  -35.9420  -13.5350 O.3       1 1O5        -0.3192
     19 C2          2.3340  -37.2800  -13.1130 C.3       1 1O5         0.0673
     20 C1          3.4080  -38.1290  -13.7530 C.3       1 1O5        -0.0372
     21 C6          1.0520  -32.5810  -11.5330 C.ar      1 1O5        -0.0211
     22 C5          1.7870  -32.3900  -12.6940 C.ar      1 1O5        -0.0650
     23 C4          2.3150  -33.4880  -13.3570 C.ar      1 1O5        -0.0041
     24 C17         3.0910  -33.2870  -14.6130 C.2       1 1O5        -0.0028
     25 C20         4.1290  -34.0860  -15.0820 C.2       1 1O5         0.0038
     26 N5          4.5440  -33.5840  -16.2600 N.2       1 1O5        -0.2151
     27 N4          3.7270  -32.4770  -16.5160 N.pl3     1 1O5        -0.2081
     28 C19         4.0100  -31.7590  -17.7810 C.3       1 1O5         0.0607
     29 C18         2.8500  -32.2840  -15.5430 C.2       1 1O5         0.0597
     30 H1         -3.0976  -36.2906   -4.7120 H         1 1O5         0.1634
     31 H2         -3.1586  -34.6293   -4.2256 H         1 1O5         0.1634
     32 H3         -0.3574  -33.6338   -7.2258 H         1 1O5         0.0643
     33 H4         -2.0140  -38.9909   -7.0075 H         1 1O5         0.0401
     34 H5         -2.7946  -37.8154   -5.8960 H         1 1O5         0.0401
     35 H6         -1.0959  -38.3268   -5.6137 H         1 1O5         0.0401
     36 H7         -1.4491  -38.1908   -9.0095 H         1 1O5         0.0568
     37 H8         -0.6676  -36.3731  -10.4870 H         1 1O5         0.0624
     38 H9         -0.7232  -32.0565   -8.8779 H         1 1O5         0.2834
     39 H10         1.1476  -36.0620  -11.3020 H         1 1O5         0.0536
     40 H11         1.3392  -37.6119  -13.4448 H         1 1O5         0.0611
     41 H12         2.3972  -37.3498  -12.0170 H         1 1O5         0.0611
     42 H13         3.2695  -39.1795  -13.4575 H         1 1O5         0.0256
     43 H14         4.3971  -37.7817  -13.4197 H         1 1O5         0.0256
     44 H15         3.3391  -38.0439  -14.8475 H         1 1O5         0.0256
     45 H16         1.9475  -31.3899  -13.0802 H         1 1O5         0.0546
     46 H17         4.5350  -34.9646  -14.5829 H         1 1O5         0.0666
     47 H18         3.3163  -30.9116  -17.8847 H         1 1O5         0.0606
     48 H19         3.8789  -32.4461  -18.6299 H         1 1O5         0.0606
     49 H20         5.0448  -31.3862  -17.7675 H         1 1O5         0.0606
     50 H21         2.0957  -31.5008  -15.4841 H         1 1O5         0.1005
@<TRIPOS>BOND
     1    1    2 2  
     2    2    3 2  
     3    2    4 am 
     4    2    5 1  
     5    5    6 ar 
     6    5    7 ar 
     7    6   11 ar 
     8    7    8 1  
     9    7    9 ar 
    10    9   10 ar 
    11   10   11 ar 
    12   11   12 1  
    13   12   13 1  
    14   12   15 2  
    15   13   14 1  
    16   14   21 2  
    17   15   16 ar 
    18   15   21 ar 
    19   16   17 ar 
    20   17   18 1  
    21   17   23 ar 
    22   18   19 1  
    23   19   20 1  
    24   21   22 ar 
    25   22   23 ar 
    26   23   24 1  
    27   24   25 1  
    28   24   29 2  
    29   25   26 2  
    30   26   27 1  
    31   27   28 1  
    32   27   29 1  
    33    4   30 1  
    34    4   31 1  
    35    6   32 1  
    36    8   33 1  
    37    8   34 1  
    38    8   35 1  
    39    9   36 1  
    40   10   37 1  
    41   13   38 1  
    42   16   39 1  
    43   19   40 1  
    44   19   41 1  
    45   20   42 1  
    46   20   43 1  
    47   20   44 1  
    48   22   45 1  
    49   25   46 1  
    50   28   47 1  
    51   28   48 1  
    52   28   49 1  
    53   29   50 1  
@<TRIPOS>SUBSTRUCTURE
     1 1O5         1

