### 
### Created by X-TOOL on Mon Sep 10 21:13:13 2018
### 

@<TRIPOS>MOLECULE
3w2o_ligand
   63    66     1     0     0
SMALL
GAST_HUCK


@<TRIPOS>ATOM
      1 N1        -52.1510    2.1220  -22.8700 N.ar      1 03P        -0.2703
      2 N3        -47.8660   -1.1650  -21.8410 N.am      1 03P        -0.2842
      3 C4        -50.5690    1.1850  -18.7860 C.2       1 03P         0.0345
      4 C5        -51.7780    1.8470  -18.8100 C.2       1 03P        -0.0449
      5 C6        -48.7720    0.2360  -20.0680 C.3       1 03P         0.0744
      6 C7        -47.9830    0.1950  -21.3570 C.3       1 03P         0.0579
      7 C8        -47.1420   -1.4080  -22.9260 C.2       1 03P         0.1788
      8 C10       -50.0240    1.3660  -24.5580 C.ar      1 03P         0.0548
      9 C13       -49.8610    1.9510  -27.3330 C.ar      1 03P         0.1200
     10 C15       -49.7870    0.3510  -25.4890 C.ar      1 03P        -0.0448
     11 C17       -50.4560    1.0930  -30.6780 C.ar      1 03P         0.0005
     12 C20       -47.9420   -0.1420  -30.7920 C.ar      1 03P         0.0394
     13 C21       -48.2450    0.7630  -29.7700 C.ar      1 03P         0.0004
     14 C22       -46.5730   -0.7950  -30.8410 C.3       1 03P         0.3740
     15 C24       -44.5230   -0.3080  -22.4320 C.3       1 03P        -0.0342
     16 F2        -46.1250   -1.0680  -29.6150 F         1 03P        -0.2206
     17 F         -46.6170   -1.9150  -31.5580 F         1 03P        -0.2206
     18 F1        -45.7220    0.0380  -31.4200 F         1 03P        -0.2206
     19 C19       -48.9080   -0.4120  -31.7680 C.ar      1 03P        -0.0409
     20 C18       -50.1610    0.2010  -31.7110 C.ar      1 03P        -0.0385
     21 C16       -49.5020    1.3810  -29.6990 C.ar      1 03P         0.1418
     22 O1        -49.7910    2.2800  -28.6820 O.3       1 03P        -0.2571
     23 C12       -50.1080    2.9710  -26.4140 C.ar      1 03P         0.0641
     24 CL        -50.3160    4.6520  -27.0380 Cl        1 03P        -0.0803
     25 C11       -50.1760    2.6820  -25.0400 C.ar      1 03P        -0.0311
     26 C14       -49.7060    0.6330  -26.8590 C.ar      1 03P        -0.0363
     27 N4        -50.1010    1.0380  -23.2180 N.pl3     1 03P        -0.2596
     28 C1        -51.0320    1.5180  -22.3550 C.ar      1 03P         0.1675
     29 C         -53.1400    2.6330  -22.1080 C.ar      1 03P         0.0451
     30 C3        -50.9470    1.4420  -20.9520 C.ar      1 03P         0.1396
     31 C2        -51.9750    1.9830  -20.2100 C.ar      1 03P         0.0383
     32 N         -53.0580    2.5730  -20.7680 N.ar      1 03P        -0.3130
     33 N2        -50.0630    0.9450  -20.0260 N.pl3     1 03P        -0.2518
     34 O         -47.3620   -0.8710  -24.0020 O.2       1 03P        -0.3970
     35 C9        -45.9910   -2.3740  -22.7610 C.3       1 03P         0.0655
     36 C23       -44.6500   -1.6960  -23.0550 C.3       1 03P         0.0771
     37 O2        -43.6160   -2.4950  -22.4780 O.3       1 03P        -0.3868
     38 C25       -44.4170   -1.6260  -24.5630 C.3       1 03P        -0.0342
     39 H1        -48.3260   -1.9130  -21.3625 H         1 03P         0.1852
     40 H2        -50.0690    0.8842  -17.8665 H         1 03P         0.1013
     41 H3        -52.4077    2.1749  -17.9842 H         1 03P         0.0320
     42 H4        -48.1251    0.7058  -19.3125 H         1 03P         0.0629
     43 H5        -48.9714   -0.8074  -19.7824 H         1 03P         0.0629
     44 H6        -48.4966    0.8052  -22.1145 H         1 03P         0.0547
     45 H7        -46.9771    0.6027  -21.1780 H         1 03P         0.0547
     46 H8        -49.6640   -0.6699  -25.1460 H         1 03P         0.0517
     47 H9        -51.4310    1.5648  -30.6355 H         1 03P         0.0802
     48 H10       -47.4960    0.9907  -29.0202 H         1 03P         0.0767
     49 H11       -43.5401    0.1178  -22.6825 H         1 03P         0.0259
     50 H12       -44.6210   -0.3862  -21.3392 H         1 03P         0.0259
     51 H13       -45.3163    0.3446  -22.8255 H         1 03P         0.0259
     52 H14       -48.6819   -1.1015  -32.5733 H         1 03P         0.0774
     53 H15       -50.9051   -0.0156  -32.4689 H         1 03P         0.0675
     54 H16       -50.3490    3.4881  -24.3362 H         1 03P         0.0519
     55 H17       -49.5221   -0.1714  -27.5620 H         1 03P         0.0527
     56 H18       -49.4002    0.3808  -22.8467 H         1 03P         0.2135
     57 H19       -54.0022    3.0927  -22.5773 H         1 03P         0.0963
     58 H20       -46.1270   -3.2157  -23.4560 H         1 03P         0.0531
     59 H21       -45.9836   -2.7496  -21.7271 H         1 03P         0.0531
     60 H22       -42.7730   -2.0917  -22.6489 H         1 03P         0.2103
     61 H23       -43.4518   -1.1376  -24.7626 H         1 03P         0.0259
     62 H24       -45.2253   -1.0461  -25.0324 H         1 03P         0.0259
     63 H25       -44.4060   -2.6438  -24.9800 H         1 03P         0.0259
@<TRIPOS>BOND
     1   28    1 ar 
     2    1   29 ar 
     3    2    6 1  
     4    7    2 am 
     5    3    4 2  
     6   33    3 1  
     7   31    4 1  
     8    6    5 1  
     9    5   33 1  
    10    7   34 2  
    11   35    7 1  
    12    8   10 ar 
    13    8   25 ar 
    14   27    8 1  
    15    9   22 1  
    16   23    9 ar 
    17   26    9 ar 
    18   10   26 ar 
    19   11   20 ar 
    20   21   11 ar 
    21   13   12 ar 
    22   12   14 1  
    23   12   19 ar 
    24   21   13 ar 
    25   14   16 1  
    26   14   17 1  
    27   14   18 1  
    28   36   15 1  
    29   20   19 ar 
    30   22   21 1  
    31   23   24 1  
    32   25   23 ar 
    33   28   27 1  
    34   30   28 ar 
    35   32   29 ar 
    36   30   31 ar 
    37   33   30 1  
    38   31   32 ar 
    39   35   36 1  
    40   36   37 1  
    41   36   38 1  
    42    2   39 1  
    43    3   40 1  
    44    4   41 1  
    45    5   42 1  
    46    5   43 1  
    47    6   44 1  
    48    6   45 1  
    49   10   46 1  
    50   11   47 1  
    51   13   48 1  
    52   15   49 1  
    53   15   50 1  
    54   15   51 1  
    55   19   52 1  
    56   20   53 1  
    57   25   54 1  
    58   26   55 1  
    59   27   56 1  
    60   29   57 1  
    61   35   58 1  
    62   35   59 1  
    63   37   60 1  
    64   38   61 1  
    65   38   62 1  
    66   38   63 1  
@<TRIPOS>SUBSTRUCTURE
     1 03P         1

