### 
### Created by X-TOOL on Mon Sep 10 21:13:13 2018
### 

@<TRIPOS>MOLECULE
3w2p_ligand
   68    71     1     0     0
SMALL
GAST_HUCK


@<TRIPOS>ATOM
      1 C1        146.5290   24.7500   50.2060 C.ar      1 W2P         0.0548
      2 C2        147.7900   25.2830   50.3750 C.ar      1 W2P        -0.0311
      3 C3        148.0040   26.6420   50.3920 C.ar      1 W2P         0.0641
      4 C4        146.9420   27.4940   50.2150 C.ar      1 W2P         0.1200
      5 C5        145.6670   26.9730   50.0390 C.ar      1 W2P        -0.0363
      6 C6        145.4530   25.5960   50.0330 C.ar      1 W2P        -0.0448
      7 O7        147.2810   28.8440   50.2580 O.3       1 W2P        -0.2571
      8 C8        146.3570   29.8140   49.8900 C.ar      1 W2P         0.1418
      9 CL9       149.5950   27.2700   50.6370 Cl        1 W2P        -0.0803
     10 C10       146.0680   30.8190   50.7800 C.ar      1 W2P         0.0005
     11 C11       145.1700   31.8040   50.4360 C.ar      1 W2P        -0.0385
     12 C12       144.5740   31.7810   49.1950 C.ar      1 W2P        -0.0409
     13 C13       144.8730   30.7730   48.3000 C.ar      1 W2P         0.0394
     14 C14       145.7730   29.7910   48.6470 C.ar      1 W2P         0.0004
     15 C15       144.2400   30.7360   46.9430 C.3       1 W2P         0.3740
     16 F16       143.9020   29.4770   46.5120 F         1 W2P        -0.2206
     17 F17       145.0850   31.2220   45.9920 F         1 W2P        -0.2206
     18 F18       143.1050   31.4930   46.8770 F         1 W2P        -0.2206
     19 N19       147.7610   20.9810   53.4790 N.ar      1 W2P        -0.3130
     20 C20       147.6180   22.3040   53.4810 C.ar      1 W2P         0.0451
     21 N21       147.2300   23.0940   52.4790 N.ar      1 W2P        -0.2703
     22 C22       146.9230   22.5500   51.2910 C.ar      1 W2P         0.1675
     23 C23       147.4520   20.4260   52.2930 C.ar      1 W2P         0.0383
     24 C24       147.0290   21.1740   51.2090 C.ar      1 W2P         0.1396
     25 N25       146.8250   20.2780   50.1850 N.pl3     1 W2P        -0.2518
     26 C26       147.0870   18.9960   50.6020 C.2       1 W2P         0.0345
     27 C27       147.4780   19.0530   51.9210 C.2       1 W2P        -0.0449
     28 C28       146.4090   20.6230   48.8210 C.3       1 W2P         0.0744
     29 C29       145.2170   19.8550   48.3060 C.3       1 W2P         0.0579
     30 N30       144.0870   20.3480   49.0240 N.am      1 W2P        -0.2843
     31 C31       143.4550   19.5260   49.9110 C.2       1 W2P         0.1762
     32 C32       142.3150   20.2540   50.5470 C.3       1 W2P         0.0420
     33 O33       143.7450   18.3540   50.1450 O.2       1 W2P        -0.3971
     34 N34       146.5190   23.3390   50.2010 N.pl3     1 W2P        -0.2596
     35 C35       141.0470   19.5800   50.0640 C.3       1 W2P         0.0044
     36 C36       140.4300   20.2940   48.8810 C.3       1 W2P        -0.0303
     37 N37       139.1550   19.6570   48.5670 N.4       1 W2P         0.2310
     38 C38       138.0750   20.5940   48.8800 C.3       1 W2P        -0.0433
     39 C39       139.1450   19.4210   47.1290 C.3       1 W2P        -0.0433
     40 H1        148.6340   24.6139   50.4976 H         1 W2P         0.0519
     41 H2        144.8277   27.6457   49.9046 H         1 W2P         0.0527
     42 H3        144.4554   25.1953   49.8944 H         1 W2P         0.0517
     43 H4        146.5465   30.8367   51.7525 H         1 W2P         0.0802
     44 H5        144.9331   32.5943   51.1391 H         1 W2P         0.0675
     45 H6        143.8681   32.5563   48.9199 H         1 W2P         0.0774
     46 H7        146.0194   29.0041   47.9434 H         1 W2P         0.0767
     47 H8        147.8458   22.8031   54.4159 H         1 W2P         0.0963
     48 H9        147.0008   18.0946   49.9970 H         1 W2P         0.1013
     49 H10       147.7533   18.2117   52.5554 H         1 W2P         0.0320
     50 H11       147.2564   20.4307   48.1466 H         1 W2P         0.0629
     51 H12       146.1598   21.6942   48.8006 H         1 W2P         0.0629
     52 H13       145.3472   18.7787   48.4919 H         1 W2P         0.0547
     53 H14       145.0887   20.0279   47.2273 H         1 W2P         0.0547
     54 H15       143.7627   21.2828   48.8792 H         1 W2P         0.1852
     55 H16       142.3225   21.3110   50.2424 H         1 W2P         0.0504
     56 H17       142.3863   20.1876   51.6427 H         1 W2P         0.0504
     57 H18       146.1967   22.8594   49.3484 H         1 W2P         0.2135
     58 H19       140.3182   19.5662   50.8878 H         1 W2P         0.0341
     59 H20       141.2859   18.5478   49.7684 H         1 W2P         0.0341
     60 H21       141.1029   20.2241   48.0136 H         1 W2P         0.0816
     61 H22       140.2639   21.3520   49.1319 H         1 W2P         0.0816
     62 H23       139.0432   18.7960   49.0791 H         1 W2P         0.2028
     63 H24       137.1062   20.1274   48.6483 H         1 W2P         0.0777
     64 H25       138.1956   21.5068   48.2782 H         1 W2P         0.0777
     65 H26       138.1115   20.8518   49.9487 H         1 W2P         0.0777
     66 H27       139.9496   18.7181   46.8672 H         1 W2P         0.0777
     67 H28       139.3029   20.3725   46.6001 H         1 W2P         0.0777
     68 H29       138.1750   18.9942   46.8342 H         1 W2P         0.0777
@<TRIPOS>BOND
     1    1    2 ar 
     2    1    6 ar 
     3   34    1 1  
     4    2    3 ar 
     5    3    4 ar 
     6    3    9 1  
     7    5    4 ar 
     8    4    7 1  
     9    6    5 ar 
    10    7    8 1  
    11    8   10 ar 
    12    8   14 ar 
    13   10   11 ar 
    14   11   12 ar 
    15   13   12 ar 
    16   14   13 ar 
    17   13   15 1  
    18   15   16 1  
    19   15   17 1  
    20   15   18 1  
    21   20   19 ar 
    22   19   23 ar 
    23   21   20 ar 
    24   22   21 ar 
    25   22   24 ar 
    26   22   34 1  
    27   23   24 ar 
    28   23   27 1  
    29   24   25 1  
    30   25   26 1  
    31   25   28 1  
    32   26   27 2  
    33   28   29 1  
    34   29   30 1  
    35   30   31 am 
    36   31   32 1  
    37   31   33 2  
    38   32   35 1  
    39   35   36 1  
    40   36   37 1  
    41   37   38 1  
    42   37   39 1  
    43    2   40 1  
    44    5   41 1  
    45    6   42 1  
    46   10   43 1  
    47   11   44 1  
    48   12   45 1  
    49   14   46 1  
    50   20   47 1  
    51   26   48 1  
    52   27   49 1  
    53   28   50 1  
    54   28   51 1  
    55   29   52 1  
    56   29   53 1  
    57   30   54 1  
    58   32   55 1  
    59   32   56 1  
    60   34   57 1  
    61   35   58 1  
    62   35   59 1  
    63   36   60 1  
    64   36   61 1  
    65   37   62 1  
    66   38   63 1  
    67   38   64 1  
    68   38   65 1  
    69   39   66 1  
    70   39   67 1  
    71   39   68 1  
@<TRIPOS>SUBSTRUCTURE
     1 W2P         1

