### 
### Created by X-TOOL on Mon Sep 10 21:13:13 2018
### 

@<TRIPOS>MOLECULE
3w2q_ligand
   72    75     1     0     0
SMALL
GAST_HUCK


@<TRIPOS>ATOM
      1 CAJ         1.6540   24.0130   52.9560 C.1       1 HKI         0.0837
      2 CAL         1.4380   32.8040   50.9840 C.ar      1 HKI        -0.0488
      3 CAK         0.7120   33.1510   49.8680 C.ar      1 HKI        -0.0410
      4 CAO        -0.6920   25.3770   50.5860 C.ar      1 HKI        -0.0446
      5 CAP        -0.3220   26.6740   50.2790 C.ar      1 HKI        -0.0402
      6 CAN         1.5180   31.4700   51.3170 C.ar      1 HKI        -0.0298
      7 CAS        -0.2430   20.2390   50.6080 C.ar      1 HKI        -0.0286
      8 CAT         1.4860   18.6010   51.9670 C.ar      1 HKI        -0.0212
      9 CAR         1.5860   24.7340   50.4600 C.ar      1 HKI        -0.0310
     10 CAM         0.1010   32.1580   49.1370 C.ar      1 HKI         0.0029
     11 CAQ         2.4140   21.7490   53.2910 C.ar      1 HKI         0.0143
     12 CBL         1.5910   22.6310   52.6340 C.ar      1 HKI         0.1318
     13 CBR         0.6610   20.7900   51.4970 C.ar      1 HKI         0.0227
     14 CBQ         1.5360   19.9630   52.1990 C.ar      1 HKI         0.0175
     15 CBI         0.2560   24.3780   50.6770 C.ar      1 HKI         0.0576
     16 CBM        -0.2890   18.8740   50.3880 C.ar      1 HKI         0.1081
     17 CBP         0.6790   22.1640   51.7100 C.ar      1 HKI         0.1146
     18 CBN         1.0090   26.9990   50.0810 C.ar      1 HKI         0.0979
     19 CBO         0.5890   18.0550   51.0710 C.ar      1 HKI         0.1260
     20 CBJ         1.9850   26.0320   50.1740 C.ar      1 HKI         0.0602
     21 CBK         0.8740   30.5420   50.5260 C.ar      1 HKI         0.0582
     22 CBH        -2.5910   18.6340   49.7030 C.2       1 HKI         0.2029
     23 CAA         1.4020   14.5190   51.1490 C.3       1 HKI        -0.0371
     24 CAB        -7.8310   18.6070   48.7490 C.3       1 HKI        -0.0433
     25 CAC        -7.7170   17.6040   46.6680 C.3       1 HKI        -0.0433
     26 CAV         0.9620   29.0940   50.8960 C.3       1 HKI         0.1175
     27 CAX        -3.5540   17.6700   49.0670 C.3       1 HKI         0.0478
     28 CBT        -5.0110   18.1230   49.1960 C.3       1 HKI         0.0048
     29 CAY        -5.7260   17.7130   47.9130 C.3       1 HKI        -0.0303
     30 CAU         1.6900   16.0010   51.2810 C.3       1 HKI         0.0679
     31 NAD         1.6220   25.1290   53.3000 N.1       1 HKI        -0.3476
     32 NBA         2.4160   20.4320   53.0930 N.ar      1 HKI        -0.3248
     33 NAZ         0.1640   30.8560   49.4370 N.ar      1 HKI        -0.2954
     34 NBC        -0.1760   23.0610   51.0220 N.pl3     1 HKI        -0.2609
     35 NBB        -1.2370   18.3410   49.4770 N.am      1 HKI        -0.2325
     36 NBU        -6.9590   18.4390   47.5950 N.4       1 HKI         0.2310
     37 OAG        -3.0180   19.5790   50.3580 O.2       1 HKI        -0.3853
     38 OBE         1.3970   28.2990   49.7800 O.3       1 HKI        -0.3088
     39 OBD         0.5230   16.6890   50.8330 O.3       1 HKI        -0.3150
     40 CLA         3.6570   26.4980   49.9210 Cl        1 HKI        -0.0813
     41 H1          1.9329   33.5590   51.5841 H         1 HKI         0.0719
     42 H2          0.6228   34.1893   49.5695 H         1 HKI         0.0652
     43 H3         -1.7366   25.1429   50.7568 H         1 HKI         0.0520
     44 H4         -1.0812   27.4429   50.1927 H         1 HKI         0.0518
     45 H5          2.0794   31.1539   52.1888 H         1 HKI         0.0652
     46 H6         -0.9277   20.8879   50.0740 H         1 HKI         0.0482
     47 H7          2.1664   17.9472   52.5006 H         1 HKI         0.0486
     48 H8          2.3439   23.9611   50.5173 H         1 HKI         0.0522
     49 H9         -0.4680   32.4497   48.2617 H         1 HKI         0.0803
     50 H10         3.1083   22.1519   54.0194 H         1 HKI         0.0825
     51 H11         2.2777   13.9440   51.4844 H         1 HKI         0.0256
     52 H12         1.1871   14.2795   50.0971 H         1 HKI         0.0256
     53 H13         0.5322   14.2578   51.7697 H         1 HKI         0.0256
     54 H14        -8.7353   19.1564   48.4483 H         1 HKI         0.0777
     55 H15        -7.3012   19.1724   49.5298 H         1 HKI         0.0777
     56 H16        -8.1153   17.6192   49.1406 H         1 HKI         0.0777
     57 H17        -7.1205   17.4290   45.7605 H         1 HKI         0.0777
     58 H18        -8.6541   18.1130   46.3983 H         1 HKI         0.0777
     59 H19        -7.9475   16.6408   47.1466 H         1 HKI         0.0777
     60 H20        -0.0296   28.7454   51.2203 H         1 HKI         0.0805
     61 H21         1.6797   28.9773   51.7213 H         1 HKI         0.0805
     62 H22        -3.4452   16.6899   49.5545 H         1 HKI         0.0509
     63 H23        -3.3069   17.5779   47.9991 H         1 HKI         0.0509
     64 H24        -5.0566   19.2150   49.3203 H         1 HKI         0.0341
     65 H25        -5.4820   17.6353   50.0622 H         1 HKI         0.0341
     66 H26        -5.9780   16.6455   47.9964 H         1 HKI         0.0816
     67 H27        -5.0257   17.8603   47.0776 H         1 HKI         0.0816
     68 H28         2.5541   16.2759   50.6583 H         1 HKI         0.0612
     69 H29         1.8992   16.2541   52.3308 H         1 HKI         0.0612
     70 H30        -1.1264   22.7575   50.7661 H         1 HKI         0.2184
     71 H31        -0.9510   17.7772   48.7022 H         1 HKI         0.2247
     72 H32        -6.7364   19.3349   47.1902 H         1 HKI         0.2028
@<TRIPOS>BOND
     1   12    1 1  
     2    1   31 3  
     3    2    3 ar 
     4    6    2 ar 
     5   10    3 ar 
     6    4    5 ar 
     7   15    4 ar 
     8    5   18 ar 
     9   21    6 ar 
    10    7   13 ar 
    11   16    7 ar 
    12    8   14 ar 
    13   19    8 ar 
    14   15    9 ar 
    15    9   20 ar 
    16   33   10 ar 
    17   11   12 ar 
    18   32   11 ar 
    19   17   12 ar 
    20   14   13 ar 
    21   13   17 ar 
    22   14   32 ar 
    23   34   15 1  
    24   19   16 ar 
    25   16   35 1  
    26   17   34 1  
    27   20   18 ar 
    28   18   38 1  
    29   39   19 1  
    30   20   40 1  
    31   26   21 1  
    32   21   33 ar 
    33   22   27 1  
    34   35   22 am 
    35   22   37 2  
    36   30   23 1  
    37   36   24 1  
    38   36   25 1  
    39   38   26 1  
    40   27   28 1  
    41   28   29 1  
    42   29   36 1  
    43   30   39 1  
    44    2   41 1  
    45    3   42 1  
    46    4   43 1  
    47    5   44 1  
    48    6   45 1  
    49    7   46 1  
    50    8   47 1  
    51    9   48 1  
    52   10   49 1  
    53   11   50 1  
    54   23   51 1  
    55   23   52 1  
    56   23   53 1  
    57   24   54 1  
    58   24   55 1  
    59   24   56 1  
    60   25   57 1  
    61   25   58 1  
    62   25   59 1  
    63   26   60 1  
    64   26   61 1  
    65   27   62 1  
    66   27   63 1  
    67   28   64 1  
    68   28   65 1  
    69   29   66 1  
    70   29   67 1  
    71   30   68 1  
    72   30   69 1  
    73   34   70 1  
    74   35   71 1  
    75   36   72 1  
@<TRIPOS>SUBSTRUCTURE
     1 HKI         1

