### 
### Created by X-TOOL on Mon Sep 10 21:13:15 2018
### 

@<TRIPOS>MOLECULE
3w2r_ligand
   73    77     1     0     0
SMALL
GAST_HUCK


@<TRIPOS>ATOM
      1 C1          5.4560   16.1160   46.4940 C.ar      1 W2R        -0.0831
      2 C2          4.5280   16.9110   45.8490 C.ar      1 W2R        -0.0521
      3 C3          4.6750   10.7990   46.8950 C.ar      1 W2R        -0.0447
      4 C4          5.7160   14.8610   45.9700 C.ar      1 W2R        -0.0444
      5 C5          4.5450   11.9180   46.1060 C.ar      1 W2R        -0.0363
      6 C6          8.1300    5.2950   49.6710 C.2       1 W2R        -0.0449
      7 C7          4.1270   15.2310   44.1940 C.ar      1 W2R        -0.0102
      8 C8          6.5170   10.0600   45.5680 C.ar      1 W2R        -0.0311
      9 C9          6.7800    5.0150   49.6240 C.2       1 W2R         0.0345
     10 C10         9.3050    8.3340   48.1570 C.ar      1 W2R         0.0451
     11 C11         8.3420    6.5280   49.0090 C.ar      1 W2R         0.0383
     12 C12         7.1150    6.9990   48.5740 C.ar      1 W2R         0.1396
     13 C13         3.8620   16.4740   44.7190 C.ar      1 W2R         0.0581
     14 C14         5.6630    9.8700   46.6410 C.ar      1 W2R         0.0549
     15 C15         5.0560   14.4370   44.8300 C.ar      1 W2R         0.1000
     16 C16         5.4080   12.1030   45.0460 C.ar      1 W2R         0.1189
     17 C17         6.3930   11.1810   44.7670 C.ar      1 W2R         0.0641
     18 C18         7.0290    8.1880   47.8800 C.ar      1 W2R         0.1675
     19 C19         2.1950   17.1610   42.9610 C.2       1 W2R         0.2872
     20 C20        -0.7060   19.6670   39.2140 C.3       1 W2R        -0.0529
     21 C21        -1.4180   19.3690   40.5060 C.3       1 W2R        -0.0510
     22 C22         0.4580   18.6950   39.0020 C.3       1 W2R        -0.0510
     23 C23        -0.4180   19.4270   41.6450 C.3       1 W2R        -0.0301
     24 C24         1.4260   18.7470   40.1680 C.3       1 W2R        -0.0301
     25 C25         0.6770   18.4010   41.4380 C.3       1 W2R         0.0429
     26 C26         4.7550    6.0500   48.7010 C.3       1 W2R         0.0777
     27 C27         3.9410    6.6060   49.8330 C.3       1 W2R         0.0747
     28 C28         2.3010    9.6130   49.5660 C.3       1 W2R         0.0676
     29 C29         3.0480    8.6650   50.4530 C.3       1 W2R         0.0709
     30 N30         9.4960    7.1960   48.8190 N.ar      1 W2R        -0.3130
     31 N31         8.1730    8.8550   47.6800 N.ar      1 W2R        -0.2703
     32 N32         6.1830    6.0500   48.9590 N.pl3     1 W2R        -0.2515
     33 N33         5.7890    8.7040   47.4220 N.pl3     1 W2R        -0.2596
     34 N34         2.9300   17.3440   44.1180 N.am      1 W2R        -0.2219
     35 N35         1.5540   18.3230   42.5940 N.am      1 W2R        -0.2648
     36 O36         2.0300   16.1120   42.3630 O.2       1 W2R        -0.3904
     37 O37         1.5420    8.8190   48.6810 O.3       1 W2R        -0.3927
     38 O38         5.3030   13.2140   44.2270 O.3       1 W2R        -0.2680
     39 O39         4.0050    8.0080   49.6250 O.3       1 W2R        -0.3748
     40 CL1         7.4610   11.4160   43.4250 Cl        1 W2R        -0.0803
     41 H1          5.9659   16.4648   47.3847 H         1 W2R         0.0552
     42 H2          4.3172   17.9006   46.2381 H         1 W2R         0.0416
     43 H3          3.9945   10.6454   47.7247 H         1 W2R         0.0517
     44 H4          6.4365   14.2107   46.4527 H         1 W2R         0.0425
     45 H5          3.7714   12.6479   46.3153 H         1 W2R         0.0527
     46 H6          8.8969    4.6768   50.1353 H         1 W2R         0.0320
     47 H7          3.6177   14.8845   43.3020 H         1 W2R         0.0426
     48 H8          7.2864    9.3269   45.3545 H         1 W2R         0.0519
     49 H9          6.2846    4.1377   50.0373 H         1 W2R         0.1013
     50 H10        10.1976    8.9229   47.9795 H         1 W2R         0.0963
     51 H11        -0.3168   20.6954   39.2448 H         1 W2R         0.0265
     52 H12        -1.4156   19.5683   38.3793 H         1 W2R         0.0265
     53 H13        -1.8646   18.3649   40.4580 H         1 W2R         0.0266
     54 H14        -2.2094   20.1148   40.6716 H         1 W2R         0.0266
     55 H15         0.9910   18.9673   38.0791 H         1 W2R         0.0266
     56 H16         0.0615   17.6732   38.9086 H         1 W2R         0.0266
     57 H17        -0.9356   19.2186   42.5930 H         1 W2R         0.0287
     58 H18         0.0289   20.4313   41.6843 H         1 W2R         0.0287
     59 H19         1.8496   19.7586   40.2523 H         1 W2R         0.0287
     60 H20         2.2374   18.0218   40.0079 H         1 W2R         0.0287
     61 H21         0.2098   17.4141   41.3050 H         1 W2R         0.0553
     62 H22         4.5635    6.6569   47.8038 H         1 W2R         0.0632
     63 H23         4.4345    5.0138   48.5180 H         1 W2R         0.0632
     64 H24         4.3782    6.3317   50.8044 H         1 W2R         0.0587
     65 H25         2.9021    6.2477   49.7842 H         1 W2R         0.0587
     66 H26         3.0060   10.2421   49.0027 H         1 W2R         0.0580
     67 H27         1.6377   10.2528   50.1665 H         1 W2R         0.0580
     68 H28         2.3570    7.9304   50.8922 H         1 W2R         0.0583
     69 H29         3.5562    9.2170   51.2574 H         1 W2R         0.0583
     70 H30         4.9297    8.1958   47.6756 H         1 W2R         0.2135
     71 H31         2.7799   18.2113   44.5927 H         1 W2R         0.2252
     72 H32         1.6976   19.1454   43.1445 H         1 W2R         0.1855
     73 H33         2.1250    8.2664   48.1738 H         1 W2R         0.2095
@<TRIPOS>BOND
     1    1    2 ar 
     2    4    1 ar 
     3   13    2 ar 
     4    3    5 ar 
     5   14    3 ar 
     6   15    4 ar 
     7    5   16 ar 
     8    9    6 2  
     9   11    6 1  
    10    7   13 ar 
    11   15    7 ar 
    12   14    8 ar 
    13    8   17 ar 
    14   32    9 1  
    15   30   10 ar 
    16   31   10 ar 
    17   12   11 ar 
    18   11   30 ar 
    19   12   18 ar 
    20   32   12 1  
    21   13   34 1  
    22   33   14 1  
    23   38   15 1  
    24   17   16 ar 
    25   16   38 1  
    26   17   40 1  
    27   18   31 ar 
    28   18   33 1  
    29   34   19 am 
    30   19   35 am 
    31   19   36 2  
    32   21   20 1  
    33   22   20 1  
    34   23   21 1  
    35   24   22 1  
    36   25   23 1  
    37   25   24 1  
    38   35   25 1  
    39   27   26 1  
    40   26   32 1  
    41   39   27 1  
    42   29   28 1  
    43   28   37 1  
    44   29   39 1  
    45    1   41 1  
    46    2   42 1  
    47    3   43 1  
    48    4   44 1  
    49    5   45 1  
    50    6   46 1  
    51    7   47 1  
    52    8   48 1  
    53    9   49 1  
    54   10   50 1  
    55   20   51 1  
    56   20   52 1  
    57   21   53 1  
    58   21   54 1  
    59   22   55 1  
    60   22   56 1  
    61   23   57 1  
    62   23   58 1  
    63   24   59 1  
    64   24   60 1  
    65   25   61 1  
    66   26   62 1  
    67   26   63 1  
    68   27   64 1  
    69   27   65 1  
    70   28   66 1  
    71   28   67 1  
    72   29   68 1  
    73   29   69 1  
    74   33   70 1  
    75   34   71 1  
    76   35   72 1  
    77   37   73 1  
@<TRIPOS>SUBSTRUCTURE
     1 W2R         1

