### 
### Created by X-TOOL on Mon Sep 10 21:13:15 2018
### 

@<TRIPOS>MOLECULE
3w2s_ligand
   73    77     1     0     0
SMALL
GAST_HUCK


@<TRIPOS>ATOM
      1 C1          7.3170    4.6510    7.2570 C.ar      1 W2R        -0.0831
      2 C2          6.0730    4.8240    6.6950 C.ar      1 W2R        -0.0521
      3 C3          5.9920    1.1650   11.2350 C.ar      1 W2R        -0.0447
      4 C4          7.7200    3.3840    7.6270 C.ar      1 W2R        -0.0444
      5 C5          6.2520    1.5790    9.9470 C.ar      1 W2R        -0.0363
      6 C6          8.3250   -1.4620   17.1090 C.2       1 W2R        -0.0449
      7 C7          5.6160    2.4880    6.8580 C.ar      1 W2R        -0.0102
      8 C8          7.0150   -0.9560   10.7700 C.ar      1 W2R        -0.0311
      9 C9          7.0010   -1.8240   17.1680 C.2       1 W2R         0.0345
     10 C10         9.5940   -0.0680   14.0500 C.ar      1 W2R         0.0451
     11 C11         8.5660   -0.9470   15.8110 C.ar      1 W2R         0.0383
     12 C12         7.3830   -0.9980   15.0920 C.ar      1 W2R         0.1396
     13 C13         5.2180    3.7600    6.4970 C.ar      1 W2R         0.0581
     14 C14         6.3790   -0.1030   11.6520 C.ar      1 W2R         0.0549
     15 C15         6.8570    2.3270    7.4250 C.ar      1 W2R         0.1000
     16 C16         6.9030    0.7120    9.0860 C.ar      1 W2R         0.1189
     17 C17         7.2720   -0.5470    9.4860 C.ar      1 W2R         0.0641
     18 C18         7.3340   -0.5620   13.7760 C.ar      1 W2R         0.1675
     19 C19         2.8990    3.1250    6.1010 C.2       1 W2R         0.2872
     20 C20        -1.9640    2.0650    4.3190 C.3       1 W2R        -0.0529
     21 C21        -0.7930    1.1360    4.5380 C.3       1 W2R        -0.0510
     22 C22        -1.9500    3.2040    5.3170 C.3       1 W2R        -0.0510
     23 C23         0.5170    1.9020    4.4730 C.3       1 W2R        -0.0301
     24 C24        -0.6270    3.9430    5.2800 C.3       1 W2R        -0.0301
     25 C25         0.5200    2.9830    5.5380 C.3       1 W2R         0.0429
     26 C26         5.0420   -1.8330   15.6810 C.3       1 W2R         0.0777
     27 C27         4.1150   -0.6950   16.1030 C.3       1 W2R         0.0747
     28 C28         3.2150    1.9740   13.9120 C.3       1 W2R         0.0676
     29 C29         3.3640    1.3260   15.2570 C.3       1 W2R         0.0709
     30 N30         9.7240   -0.4730   15.3180 N.ar      1 W2R        -0.3130
     31 N31         8.5000   -0.0970   13.2880 N.ar      1 W2R        -0.2703
     32 N32         6.4460   -1.5330   15.9510 N.pl3     1 W2R        -0.2515
     33 N33         6.1650   -0.5630   12.9540 N.pl3     1 W2R        -0.2596
     34 N34         3.9710    3.9730    5.9170 N.am      1 W2R        -0.2219
     35 N35         1.7670    3.7130    5.6040 N.am      1 W2R        -0.2648
     36 O36         2.9310    1.9970    6.5960 O.2       1 W2R        -0.3904
     37 O37         2.4280    1.1120   13.1130 O.3       1 W2R        -0.3927
     38 O38         7.2340    1.0460    7.7850 O.3       1 W2R        -0.2680
     39 O39         4.2700    0.2510   15.0550 O.3       1 W2R        -0.3748
     40 CL1         8.0750   -1.5550    8.3270 Cl        1 W2R        -0.0803
     41 H1          7.9733    5.5006    7.4075 H         1 W2R         0.0552
     42 H2          5.7579    5.8187    6.4013 H         1 W2R         0.0416
     43 H3          5.4845    1.8297   11.9247 H         1 W2R         0.0517
     44 H4          8.6968    3.2224    8.0683 H         1 W2R         0.0425
     45 H5          5.9522    2.5659    9.6136 H         1 W2R         0.0527
     46 H6          9.0549   -1.5539   17.9119 H         1 W2R         0.0320
     47 H7          4.9646    1.6365    6.6978 H         1 W2R         0.0426
     48 H8          7.3106   -1.9478   11.0926 H         1 W2R         0.0519
     49 H9          6.4885   -2.2611   18.0237 H         1 W2R         0.1013
     50 H10        10.4872    0.3329   13.5848 H         1 W2R         0.0963
     51 H11        -2.8993    1.4976    4.4345 H         1 W2R         0.0265
     52 H12        -1.9092    2.4785    3.3012 H         1 W2R         0.0265
     53 H13        -0.7968    0.3597    3.7587 H         1 W2R         0.0266
     54 H14        -0.8866    0.6633    5.5268 H         1 W2R         0.0266
     55 H15        -2.1074    2.7988    6.3274 H         1 W2R         0.0266
     56 H16        -2.7609    3.9060    5.0730 H         1 W2R         0.0266
     57 H17         0.6235    2.3640    3.4804 H         1 W2R         0.0287
     58 H18         1.3553    1.2116    4.6480 H         1 W2R         0.0287
     59 H19        -0.6265    4.7251    6.0534 H         1 W2R         0.0287
     60 H20        -0.4973    4.4057    4.2905 H         1 W2R         0.0287
     61 H21         0.3607    2.4993    6.5130 H         1 W2R         0.0553
     62 H22         4.9188   -2.0081   14.6020 H         1 W2R         0.0632
     63 H23         4.7616   -2.7414   16.2343 H         1 W2R         0.0632
     64 H24         4.4261   -0.2694   17.0685 H         1 W2R         0.0587
     65 H25         3.0728   -1.0397   16.1730 H         1 W2R         0.0587
     66 H26         4.2037    2.1157   13.4511 H         1 W2R         0.0580
     67 H27         2.7164    2.9488   14.0173 H         1 W2R         0.0580
     68 H28         2.3936    0.9505   15.6137 H         1 W2R         0.0583
     69 H29         3.7711    2.0414   15.9867 H         1 W2R         0.0583
     70 H30         5.2438   -0.8759   13.2922 H         1 W2R         0.2135
     71 H31         3.8463    4.7796    5.3391 H         1 W2R         0.2252
     72 H32         1.8027    4.6592    5.2825 H         1 W2R         0.1855
     73 H33         2.3151    1.4959   12.2514 H         1 W2R         0.2095
@<TRIPOS>BOND
     1    1    2 ar 
     2    4    1 ar 
     3   13    2 ar 
     4    3    5 ar 
     5   14    3 ar 
     6   15    4 ar 
     7    5   16 ar 
     8    9    6 2  
     9   11    6 1  
    10    7   13 ar 
    11   15    7 ar 
    12   14    8 ar 
    13    8   17 ar 
    14   32    9 1  
    15   30   10 ar 
    16   31   10 ar 
    17   12   11 ar 
    18   11   30 ar 
    19   12   18 ar 
    20   32   12 1  
    21   13   34 1  
    22   33   14 1  
    23   38   15 1  
    24   17   16 ar 
    25   16   38 1  
    26   17   40 1  
    27   18   31 ar 
    28   18   33 1  
    29   34   19 am 
    30   19   35 am 
    31   19   36 2  
    32   21   20 1  
    33   22   20 1  
    34   23   21 1  
    35   24   22 1  
    36   25   23 1  
    37   25   24 1  
    38   35   25 1  
    39   27   26 1  
    40   26   32 1  
    41   39   27 1  
    42   29   28 1  
    43   28   37 1  
    44   29   39 1  
    45    1   41 1  
    46    2   42 1  
    47    3   43 1  
    48    4   44 1  
    49    5   45 1  
    50    6   46 1  
    51    7   47 1  
    52    8   48 1  
    53    9   49 1  
    54   10   50 1  
    55   20   51 1  
    56   20   52 1  
    57   21   53 1  
    58   21   54 1  
    59   22   55 1  
    60   22   56 1  
    61   23   57 1  
    62   23   58 1  
    63   24   59 1  
    64   24   60 1  
    65   25   61 1  
    66   26   62 1  
    67   26   63 1  
    68   27   64 1  
    69   27   65 1  
    70   28   66 1  
    71   28   67 1  
    72   29   68 1  
    73   29   69 1  
    74   33   70 1  
    75   34   71 1  
    76   35   72 1  
    77   37   73 1  
@<TRIPOS>SUBSTRUCTURE
     1 W2R         1

