### 
### Created by X-TOOL on Mon Sep 10 21:13:14 2018
### 

@<TRIPOS>MOLECULE
3w32_ligand
   62    65     1     0     0
SMALL
GAST_HUCK


@<TRIPOS>ATOM
      1 C1         17.5230   28.9900    5.7980 C.ar      1 W32        -0.0384
      2 C2         16.2910   28.4180    6.0800 C.ar      1 W32        -0.0409
      3 C3         17.3990   32.4000   11.0690 C.ar      1 W32        -0.0445
      4 C4         17.7660   30.2650    6.2690 C.ar      1 W32         0.0005
      5 C5         17.6200   31.9950    9.7720 C.ar      1 W32        -0.0362
      6 C6         15.6050   30.4080    7.2680 C.ar      1 W32         0.0004
      7 C7         15.7860   33.9910   10.3130 C.ar      1 W32        -0.0309
      8 C8         12.7480   33.5660   13.3790 C.ar      1 W32         0.0562
      9 C9         14.9420   34.4920   14.5740 C.ar      1 W32         0.0641
     10 C10        15.3700   29.1340    6.8090 C.ar      1 W32         0.0394
     11 C11        16.4800   33.3980   11.3520 C.ar      1 W32         0.0556
     12 C12        16.8300   30.9650    6.9940 C.ar      1 W32         0.1418
     13 C13        16.9230   32.5970    8.7430 C.ar      1 W32         0.1201
     14 C14        15.9950   33.5920    9.0090 C.ar      1 W32         0.0642
     15 C15        13.6990   34.5620   15.1920 C.ar      1 W32         0.1249
     16 C16        14.9890   33.9350   13.3050 C.ar      1 W32         0.1416
     17 C17        16.1630   35.0290   15.1700 C.2       1 W32        -0.0435
     18 C18        16.4430   35.1960   16.4650 C.2       1 W32         0.0250
     19 C19        17.7340   35.8640   16.8100 C.2       1 W32         0.1968
     20 C20        15.5660   34.8150   17.5820 C.3       1 W32         0.0062
     21 C21        14.3100   35.6400   17.4090 C.3       1 W32         0.0388
     22 C22        23.0390   35.0530   18.7000 C.3       1 W32         0.0545
     23 C23        20.0480   36.3220   16.1570 C.3       1 W32         0.0492
     24 C24        20.7350   35.5380   17.2580 C.3       1 W32         0.0854
     25 C25        14.0380   28.5220    7.1200 C.3       1 W32         0.3740
     26 N26        12.5980   34.0910   14.5900 N.ar      1 W32        -0.2688
     27 N27        13.8910   33.4610   12.6950 N.ar      1 W32        -0.2665
     28 N28        13.3910   35.0600   16.4560 N.pl3     1 W32        -0.3002
     29 N29        16.2480   33.8570   12.6500 N.pl3     1 W32        -0.2606
     30 N30        18.7330   35.7910   15.8670 N.am      1 W32        -0.2865
     31 O31        17.8350   36.4820   17.8600 O.2       1 W32        -0.3902
     32 O32        23.0660   36.4370   16.4890 O.2       1 W32        -0.1746
     33 O33        21.9970   37.4430   18.5570 O.2       1 W32        -0.1746
     34 O34        17.1180   32.2490    7.4240 O.3       1 W32        -0.2570
     35 F35        14.0970   27.6110    8.1150 F         1 W32        -0.2206
     36 F36        13.1660   29.4380    7.5620 F         1 W32        -0.2206
     37 F37        13.5590   27.8560    6.0390 F         1 W32        -0.2206
     38 S38        22.2760   36.3050   17.7000 S.o2      1 W32        -0.0319
     39 CL1        15.1370   34.3430    7.7020 Cl        1 W32        -0.0803
     40 H1         18.2711   28.4531    5.2261 H         1 W32         0.0675
     41 H2         16.0569   27.4190    5.7302 H         1 W32         0.0774
     42 H3         17.9497   31.9333   11.8777 H         1 W32         0.0518
     43 H4         18.7236   30.7284    6.0610 H         1 W32         0.0802
     44 H5         18.3360   31.2092    9.5599 H         1 W32         0.0527
     45 H6         14.8516   30.9528    7.8254 H         1 W32         0.0767
     46 H7         15.0706   34.7772   10.5254 H         1 W32         0.0520
     47 H8         11.8544   33.1850   12.8980 H         1 W32         0.1026
     48 H9         16.9418   35.3307   14.4712 H         1 W32         0.0555
     49 H10        16.0472   35.0445   18.5442 H         1 W32         0.0444
     50 H11        15.3301   33.7416   17.5368 H         1 W32         0.0444
     51 H12        14.5931   36.6438   17.0593 H         1 W32         0.0549
     52 H13        13.8041   35.7200   18.3825 H         1 W32         0.0549
     53 H14        24.0211   35.4080   19.0458 H         1 W32         0.0464
     54 H15        23.1689   34.1371   18.1049 H         1 W32         0.0464
     55 H16        22.4000   34.8380   19.5692 H         1 W32         0.0464
     56 H17        20.6623   36.2717   15.2459 H         1 W32         0.0534
     57 H18        19.9478   37.3705   16.4742 H         1 W32         0.0534
     58 H19        20.9282   34.5137   16.9066 H         1 W32         0.0520
     59 H20        20.0805   35.5052   18.1415 H         1 W32         0.0520
     60 H21        12.4028   35.0095   16.7420 H         1 W32         0.1857
     61 H22        17.0702   34.1699   13.1857 H         1 W32         0.2147
     62 H23        18.5502   35.3699   14.9786 H         1 W32         0.1837
@<TRIPOS>BOND
     1    1    2 ar 
     2    4    1 ar 
     3   10    2 ar 
     4    3    5 ar 
     5   11    3 ar 
     6   12    4 ar 
     7    5   13 ar 
     8    6   10 ar 
     9   12    6 ar 
    10   11    7 ar 
    11    7   14 ar 
    12   26    8 ar 
    13   27    8 ar 
    14    9   15 ar 
    15    9   16 ar 
    16   17    9 1  
    17   10   25 1  
    18   29   11 1  
    19   34   12 1  
    20   14   13 ar 
    21   13   34 1  
    22   14   39 1  
    23   15   26 ar 
    24   28   15 1  
    25   16   27 ar 
    26   16   29 1  
    27   18   17 2  
    28   19   18 1  
    29   18   20 1  
    30   30   19 am 
    31   19   31 2  
    32   20   21 1  
    33   21   28 1  
    34   38   22 1  
    35   24   23 1  
    36   23   30 1  
    37   24   38 1  
    38   25   35 1  
    39   25   36 1  
    40   25   37 1  
    41   38   32 2  
    42   38   33 2  
    43    1   40 1  
    44    2   41 1  
    45    3   42 1  
    46    4   43 1  
    47    5   44 1  
    48    6   45 1  
    49    7   46 1  
    50    8   47 1  
    51   17   48 1  
    52   20   49 1  
    53   20   50 1  
    54   21   51 1  
    55   21   52 1  
    56   22   53 1  
    57   22   54 1  
    58   22   55 1  
    59   23   56 1  
    60   23   57 1  
    61   24   58 1  
    62   24   59 1  
    63   28   60 1  
    64   29   61 1  
    65   30   62 1  
@<TRIPOS>SUBSTRUCTURE
     1 W32         1

