### 
### Created by X-TOOL on Mon Sep 10 21:13:14 2018
### 

@<TRIPOS>MOLECULE
3w33_ligand
   57    61     1     0     0
SMALL
GAST_HUCK


@<TRIPOS>ATOM
      1 C1         18.1380   29.6370    6.3460 C.ar      1 W19        -0.0793
      2 C2         17.5280   32.8280   11.2660 C.ar      1 W19        -0.0444
      3 C3         18.0650   30.9560    6.7410 C.ar      1 W19        -0.0383
      4 C4         17.5790   32.4710    9.9370 C.ar      1 W19        -0.0360
      5 C5         17.0580   28.7870    6.4820 C.ar      1 W19        -0.0610
      6 C6         14.5340   30.9960    7.9760 C.2       1 W19        -0.0635
      7 C7         15.9490   34.5580   10.7240 C.ar      1 W19        -0.0308
      8 C8         13.6320   29.9650    8.0080 C.2       1 W19        -0.0087
      9 C9         13.2060   33.8790   13.8920 C.ar      1 W19         0.0562
     10 C10        15.8170   30.6690    7.4450 C.ar      1 W19         0.0109
     11 C11        15.4160   34.8310   15.0410 C.ar      1 W19         0.0641
     12 C12        16.7100   33.8780   11.6700 C.ar      1 W19         0.0557
     13 C13        16.9090   31.4830    7.2940 C.ar      1 W19         0.1131
     14 C14        16.8110   33.1500    9.0120 C.ar      1 W19         0.1200
     15 C15        15.9180   29.3400    7.0420 C.ar      1 W19         0.0304
     16 C16        15.9940   34.1970    9.3990 C.ar      1 W19         0.0645
     17 C17        14.1950   34.8430   15.7160 C.ar      1 W19         0.1249
     18 C18        15.4230   34.3190   13.7540 C.ar      1 W19         0.1416
     19 C19        16.6660   35.4100   15.5710 C.2       1 W19        -0.0435
     20 C20        17.0560   35.4950   16.8450 C.2       1 W19         0.0250
     21 C21        18.3500   36.1810   17.1170 C.2       1 W19         0.1968
     22 C22        16.2420   34.9900   17.9680 C.3       1 W19         0.0062
     23 C23        14.9810   35.8450   17.9060 C.3       1 W19         0.0388
     24 C24        20.2410   37.0910   15.8830 C.3       1 W19         0.0530
     25 C25        21.6500   36.6330   16.1700 C.3       1 W19         0.0642
     26 N26        13.0870   34.3590   15.1270 N.ar      1 W19        -0.2688
     27 N27        14.3310   33.8280   13.1710 N.ar      1 W19        -0.2665
     28 N28        13.9540   35.3000   17.0250 N.pl3     1 W19        -0.3002
     29 N29        16.6390   34.2990   13.0000 N.pl3     1 W19        -0.2605
     30 N30        19.2900   36.0320   16.1340 N.am      1 W19        -0.2858
     31 O31        18.5380   36.8390   18.1370 O.2       1 W19        -0.3902
     32 O32        21.7000   36.2510   17.5370 O.3       1 W19        -0.3930
     33 O33        16.8660   32.8250    7.6660 O.3       1 W19        -0.2647
     34 S34        14.4040   28.5880    7.3480 S.3       1 W19        -0.0452
     35 CL1        15.0450   35.0360    8.2210 Cl        1 W19        -0.0802
     36 H1         19.0609   29.2599    5.9205 H         1 W19         0.0541
     37 H2         18.1240   32.2919   11.9957 H         1 W19         0.0518
     38 H3         18.9316   31.5951    6.6161 H         1 W19         0.0477
     39 H4         18.2211   31.6582    9.6175 H         1 W19         0.0528
     40 H5         17.0998   27.7499    6.1695 H         1 W19         0.0473
     41 H6         14.2885   31.9957    8.3313 H         1 W19         0.0414
     42 H7         15.3148   35.3802   11.0353 H         1 W19         0.0520
     43 H8         12.6112   30.0132    8.3844 H         1 W19         0.0744
     44 H9         12.3064   33.4929   13.4264 H         1 W19         0.1026
     45 H10        17.3545   35.8178   14.8323 H         1 W19         0.0555
     46 H11        16.7644   35.1288   18.9260 H         1 W19         0.0444
     47 H12        16.0021   33.9251   17.8321 H         1 W19         0.0444
     48 H13        15.2561   36.8463   17.5430 H         1 W19         0.0549
     49 H14        14.5635   35.9246   18.9206 H         1 W19         0.0549
     50 H15        20.1697   37.3957   14.8285 H         1 W19         0.0541
     51 H16        20.0030   37.9486   16.5294 H         1 W19         0.0541
     52 H17        22.3581   37.4536   15.9824 H         1 W19         0.0577
     53 H18        21.9047   35.7754   15.5300 H         1 W19         0.0577
     54 H19        12.9902   35.2462   17.3842 H         1 W19         0.1857
     55 H20        17.5056   34.6107   13.4612 H         1 W19         0.2148
     56 H21        19.3189   35.1929   15.5908 H         1 W19         0.1837
     57 H22        22.5776   35.9564   17.7504 H         1 W19         0.2095
@<TRIPOS>BOND
     1    3    1 ar 
     2    1    5 ar 
     3    2    4 ar 
     4   12    2 ar 
     5   13    3 ar 
     6    4   14 ar 
     7   15    5 ar 
     8    6    8 2  
     9   10    6 1  
    10   12    7 ar 
    11    7   16 ar 
    12   34    8 1  
    13   26    9 ar 
    14   27    9 ar 
    15   13   10 ar 
    16   10   15 ar 
    17   11   17 ar 
    18   11   18 ar 
    19   19   11 1  
    20   29   12 1  
    21   33   13 1  
    22   16   14 ar 
    23   14   33 1  
    24   15   34 1  
    25   16   35 1  
    26   17   26 ar 
    27   28   17 1  
    28   18   27 ar 
    29   18   29 1  
    30   20   19 2  
    31   21   20 1  
    32   20   22 1  
    33   30   21 am 
    34   21   31 2  
    35   22   23 1  
    36   23   28 1  
    37   24   25 1  
    38   24   30 1  
    39   25   32 1  
    40    1   36 1  
    41    2   37 1  
    42    3   38 1  
    43    4   39 1  
    44    5   40 1  
    45    6   41 1  
    46    7   42 1  
    47    8   43 1  
    48    9   44 1  
    49   19   45 1  
    50   22   46 1  
    51   22   47 1  
    52   23   48 1  
    53   23   49 1  
    54   24   50 1  
    55   24   51 1  
    56   25   52 1  
    57   25   53 1  
    58   28   54 1  
    59   29   55 1  
    60   30   56 1  
    61   32   57 1  
@<TRIPOS>SUBSTRUCTURE
     1 W19         1

