### 
### Created by X-TOOL on Mon Sep 10 21:13:12 2018
### 

@<TRIPOS>MOLECULE
3w37_ligand
   88    91     1     0     0
SMALL
GAST_HUCK


@<TRIPOS>ATOM
      1 C1A        -0.3310   -7.3210  -21.5390 C.3       1 ACR         0.0141
      2 C2A         0.0430   -8.5600  -22.3890 C.3       1 ACR         0.1303
      3 C3A        -1.1120   -8.9100  -23.3300 C.3       1 ACR         0.1215
      4 C4A        -2.2520   -9.4630  -22.4840 C.3       1 ACR         0.1112
      5 C5A        -2.5620   -8.5160  -21.3760 C.2       1 ACR        -0.0200
      6 C6A        -3.8920   -8.6690  -20.7060 C.3       1 ACR         0.0719
      7 C7A        -1.6970   -7.5810  -20.9190 C.2       1 ACR        -0.0543
      8 O2A         1.2480   -8.3150  -23.1330 O.3       1 ACR        -0.3821
      9 O3A        -0.7750   -9.9810  -24.2340 O.3       1 ACR        -0.3843
     10 O4A        -3.4070   -9.6300  -23.3300 O.3       1 ACR        -0.3780
     11 O6A        -3.7380   -9.7540  -19.7730 O.3       1 ACR        -0.3839
     12 C1B        -0.6000   -1.8880  -20.8330 C.3       1 ACR         0.1886
     13 C2B         0.3150   -2.8630  -20.1110 C.3       1 ACR         0.1370
     14 C3B         0.7010   -4.0530  -21.0030 C.3       1 ACR         0.1304
     15 C4B        -0.5630   -4.7860  -21.4080 C.3       1 ACR         0.0341
     16 C5B        -1.4260   -3.7650  -22.1510 C.3       1 ACR         0.1038
     17 C6B        -2.7640   -4.3860  -22.4880 C.3       1 ACR        -0.0332
     18 N4B        -0.3100   -5.9980  -22.2220 N.4       1 ACR         0.2433
     19 O2B         1.4950   -2.1520  -19.6970 O.3       1 ACR        -0.3840
     20 O3B         1.4930   -4.8700  -20.1470 O.3       1 ACR        -0.3834
     21 O5B        -1.7280   -2.6190  -21.3120 O.3       1 ACR        -0.3401
     22 C1C        -0.3520    2.0770  -24.2980 C.3       1 ACR         0.1884
     23 C2C        -1.0890    2.0370  -22.9880 C.3       1 ACR         0.1341
     24 C3C        -0.4090    1.0430  -22.0570 C.3       1 ACR         0.1144
     25 C4C        -0.4910   -0.3360  -22.6990 C.3       1 ACR         0.1184
     26 C5C         0.3180   -0.2670  -23.9770 C.3       1 ACR         0.1134
     27 C6C         0.2880   -1.6140  -24.6990 C.3       1 ACR         0.0730
     28 O2C        -1.0410    3.3420  -22.3980 O.3       1 ACR        -0.3841
     29 O3C        -1.2220    1.0580  -20.8850 O.3       1 ACR        -0.3864
     30 O4C         0.1660   -1.3230  -21.8940 O.3       1 ACR        -0.3401
     31 O5C        -0.2330    0.7400  -24.8430 O.3       1 ACR        -0.3405
     32 O6C        -1.0650   -1.8830  -25.1140 O.3       1 ACR        -0.3924
     33 C1D         3.8780    4.6730  -26.1260 C.3       1 ACR         0.1854
     34 C2D         2.4350    4.9730  -26.5390 C.3       1 ACR         0.1339
     35 C3D         1.3920    4.4790  -25.5260 C.3       1 ACR         0.1144
     36 C4D         1.6540    3.0350  -25.1110 C.3       1 ACR         0.1184
     37 C5D         3.1090    2.8610  -24.7320 C.3       1 ACR         0.1134
     38 C6D         3.2860    1.3790  -24.4840 C.3       1 ACR         0.0730
     39 O1D         4.2950    5.4270  -24.9710 O.3       1 ACR        -0.3649
     40 O2D         2.2390    6.3840  -26.7260 O.3       1 ACR        -0.3841
     41 O3D         0.1080    4.5320  -26.1580 O.3       1 ACR        -0.3864
     42 O4D         0.9100    2.6320  -23.9500 O.3       1 ACR        -0.3401
     43 O5D         3.9790    3.2850  -25.7950 O.3       1 ACR        -0.3407
     44 O6D         4.4930    1.1990  -23.7850 O.3       1 ACR        -0.3924
     45 H1          0.4073   -7.2590  -20.7259 H         1 ACR         0.0950
     46 H2          0.2167   -9.4109  -21.7139 H         1 ACR         0.0694
     47 H3         -1.4234   -8.0159  -23.8900 H         1 ACR         0.0671
     48 H4         -1.9609  -10.4357  -22.0609 H         1 ACR         0.0769
     49 H5         -4.6690   -8.9083  -21.4469 H         1 ACR         0.0706
     50 H6         -4.1629   -7.7438  -20.1763 H         1 ACR         0.0706
     51 H7         -1.9945   -6.9813  -20.0601 H         1 ACR         0.0299
     52 H8          1.1079   -7.5901  -23.7309 H         1 ACR         0.2103
     53 H9         -0.0630   -9.7048  -24.7990 H         1 ACR         0.2102
     54 H10        -4.1273   -9.9755  -22.8160 H         1 ACR         0.2130
     55 H11        -3.0584   -9.5368  -19.1458 H         1 ACR         0.2125
     56 H12        -0.9377   -1.0932  -20.1517 H         1 ACR         0.0938
     57 H13        -0.2061   -3.2479  -19.2220 H         1 ACR         0.0672
     58 H14         1.2644   -3.7338  -21.8922 H         1 ACR         0.0679
     59 H15        -1.0914   -5.1044  -20.4973 H         1 ACR         0.0903
     60 H16        -0.9071   -3.4416  -23.0654 H         1 ACR         0.0652
     61 H17        -3.3848   -3.6518  -23.0224 H         1 ACR         0.0257
     62 H18        -3.2715   -4.6893  -21.5604 H         1 ACR         0.0257
     63 H19        -2.6084   -5.2683  -23.1262 H         1 ACR         0.0257
     64 H20        -1.0114   -6.0239  -22.9455 H         1 ACR         0.2029
     65 H21         0.6008   -5.8921  -22.6406 H         1 ACR         0.2029
     66 H22         2.0612   -2.7378  -19.2083 H         1 ACR         0.2101
     67 H23         2.2807   -4.3990  -19.9013 H         1 ACR         0.2102
     68 H24        -0.8707    2.7205  -25.0238 H         1 ACR         0.0938
     69 H25        -2.1343    1.7377  -23.1543 H         1 ACR         0.0671
     70 H26         0.6331    1.3205  -21.8404 H         1 ACR         0.0648
     71 H27        -1.5378   -0.6152  -22.8891 H         1 ACR         0.0651
     72 H28         1.3589   -0.0093  -23.7319 H         1 ACR         0.0647
     73 H29         0.6314   -2.4070  -24.0184 H         1 ACR         0.0584
     74 H30         0.9454   -1.5769  -25.5802 H         1 ACR         0.0584
     75 H31        -0.1350    3.5956  -22.2661 H         1 ACR         0.2101
     76 H32        -1.1753    1.9158  -20.4795 H         1 ACR         0.2100
     77 H33        -1.3581   -1.1949  -25.6997 H         1 ACR         0.2095
     78 H34         4.5454    4.9069  -26.9685 H         1 ACR         0.0935
     79 H35         2.2508    4.4626  -27.4958 H         1 ACR         0.0671
     80 H36         1.4065    5.1260  -24.6365 H         1 ACR         0.0648
     81 H37         1.4008    2.3769  -25.9552 H         1 ACR         0.0651
     82 H38         3.3372    3.4352  -23.8219 H         1 ACR         0.0647
     83 H39         3.3258    0.8417  -25.4430 H         1 ACR         0.0584
     84 H40         2.4464    0.9974  -23.8844 H         1 ACR         0.0584
     85 H41         5.1922    5.2019  -24.7543 H         1 ACR         0.2126
     86 H42         1.3617    6.5398  -27.0553 H         1 ACR         0.2101
     87 H43        -0.0756    5.4250  -26.4251 H         1 ACR         0.2100
     88 H44         4.6257    0.2734  -23.6176 H         1 ACR         0.2095
@<TRIPOS>BOND
     1    1    2 1  
     2    1    7 1  
     3   18    1 1  
     4    2    3 1  
     5    2    8 1  
     6    3    4 1  
     7    3    9 1  
     8    5    4 1  
     9    4   10 1  
    10    5    6 1  
    11    7    5 2  
    12    6   11 1  
    13   12   13 1  
    14   12   21 1  
    15   30   12 1  
    16   13   14 1  
    17   13   19 1  
    18   14   15 1  
    19   14   20 1  
    20   16   15 1  
    21   15   18 1  
    22   16   17 1  
    23   21   16 1  
    24   22   23 1  
    25   22   31 1  
    26   42   22 1  
    27   23   24 1  
    28   23   28 1  
    29   24   25 1  
    30   24   29 1  
    31   26   25 1  
    32   25   30 1  
    33   26   27 1  
    34   31   26 1  
    35   27   32 1  
    36   34   33 1  
    37   33   39 1  
    38   33   43 1  
    39   35   34 1  
    40   34   40 1  
    41   36   35 1  
    42   35   41 1  
    43   36   37 1  
    44   36   42 1  
    45   37   38 1  
    46   37   43 1  
    47   38   44 1  
    48    1   45 1  
    49    2   46 1  
    50    3   47 1  
    51    4   48 1  
    52    6   49 1  
    53    6   50 1  
    54    7   51 1  
    55    8   52 1  
    56    9   53 1  
    57   10   54 1  
    58   11   55 1  
    59   12   56 1  
    60   13   57 1  
    61   14   58 1  
    62   15   59 1  
    63   16   60 1  
    64   17   61 1  
    65   17   62 1  
    66   17   63 1  
    67   18   64 1  
    68   18   65 1  
    69   19   66 1  
    70   20   67 1  
    71   22   68 1  
    72   23   69 1  
    73   24   70 1  
    74   25   71 1  
    75   26   72 1  
    76   27   73 1  
    77   27   74 1  
    78   28   75 1  
    79   29   76 1  
    80   32   77 1  
    81   33   78 1  
    82   34   79 1  
    83   35   80 1  
    84   36   81 1  
    85   37   82 1  
    86   38   83 1  
    87   38   84 1  
    88   39   85 1  
    89   40   86 1  
    90   41   87 1  
    91   44   88 1  
@<TRIPOS>SUBSTRUCTURE
     1 ACR         1

