### 
### Created by X-TOOL on Mon Sep 10 21:13:14 2018
### 

@<TRIPOS>MOLECULE
3w54_ligand
   45    45     1     0     0
SMALL
GAST_HUCK


@<TRIPOS>ATOM
      1 CAA        89.5270   39.5770   43.8400 C.3       1 RNB        -0.0406
      2 CAO        90.3270   40.0400   42.6190 C.2       1 RNB        -0.0870
      3 CAB        91.3620   41.1600   42.7740 C.3       1 RNB        -0.0406
      4 CAJ        90.0870   39.3960   41.2310 C.2       1 RNB        -0.1074
      5 CAL        89.0470   38.2690   41.0800 C.3       1 RNB        -0.0387
      6 CAN        88.6720   38.0660   39.5950 C.3       1 RNB        -0.0251
      7 CAP        87.7910   36.8130   39.5320 C.2       1 RNB        -0.0813
      8 CAC        86.4130   36.7920   40.2760 C.3       1 RNB        -0.0399
      9 CAK        88.3070   35.6440   38.7300 C.2       1 RNB        -0.1021
     10 CAM        87.5940   34.3030   38.6920 C.3       1 RNB        -0.0194
     11 CAV        88.4370   33.3780   39.3430 C.ar      1 RNB         0.0191
     12 CAS        89.2520   32.5050   38.6400 C.ar      1 RNB         0.0975
     13 OAG        89.2210   32.5470   37.2870 O.3       1 RNB        -0.3350
     14 CAU        90.1050   31.5890   39.2730 C.ar      1 RNB         0.0439
     15 CAI        90.8960   30.6970   38.5350 C.2       1 RNB         0.1070
     16 OAE        91.2530   30.9340   37.4000 O.2       1 RNB        -0.3790
     17 CAQ        90.1500   31.5550   40.6700 C.ar      1 RNB        -0.0347
     18 CAD        91.0190   30.6290   41.2750 C.3       1 RNB        -0.0341
     19 CAT        89.3380   32.4380   41.4190 C.ar      1 RNB         0.0576
     20 CL         89.2460   32.5380   43.2820 Cl        1 RNB        -0.0951
     21 CAR        88.5210   33.3190   40.7250 C.ar      1 RNB         0.0963
     22 OAF        87.7680   34.1540   41.4670 O.3       1 RNB        -0.3365
     23 H1         89.8414   40.1516   44.7237 H         1 RNB         0.0375
     24 H2         89.7106   38.5065   44.0143 H         1 RNB         0.0375
     25 H3         88.4544   39.7404   43.6591 H         1 RNB         0.0375
     26 H4         91.8355   41.3589   41.8012 H         1 RNB         0.0375
     27 H5         92.1296   40.8521   43.4992 H         1 RNB         0.0375
     28 H6         90.8637   42.0727   43.1327 H         1 RNB         0.0375
     29 H7         90.6513   39.7385   40.3648 H         1 RNB         0.0244
     30 H8         88.1428   38.5339   41.6476 H         1 RNB         0.0361
     31 H9         89.4682   37.3336   41.4769 H         1 RNB         0.0361
     32 H10        89.5798   37.9222   38.9907 H         1 RNB         0.0426
     33 H11        88.1171   38.9390   39.2211 H         1 RNB         0.0426
     34 H12        85.9263   35.8181   40.1188 H         1 RNB         0.0377
     35 H13        85.7699   37.5915   39.8795 H         1 RNB         0.0377
     36 H14        86.5749   36.9515   41.3523 H         1 RNB         0.0377
     37 H15        89.2249   35.7660   38.1569 H         1 RNB         0.0254
     38 H16        87.4240   33.9932   37.6503 H         1 RNB         0.0443
     39 H17        86.6294   34.3713   39.2164 H         1 RNB         0.0443
     40 H18        89.8232   31.9008   36.9374 H         1 RNB         0.2484
     41 H19        91.2005   29.7589   38.9967 H         1 RNB         0.1273
     42 H20        91.5430   30.0552   40.4965 H         1 RNB         0.0393
     43 H21        90.4392   29.9421   41.9090 H         1 RNB         0.0393
     44 H22        91.7544   31.1655   41.8925 H         1 RNB         0.0393
     45 H23        87.2522   34.7080   40.8930 H         1 RNB         0.2478
@<TRIPOS>BOND
     1    1    2 1  
     2    2    3 1  
     3    2    4 2  
     4    4    5 1  
     5    5    6 1  
     6    6    7 1  
     7    7    8 1  
     8    7    9 2  
     9    9   10 1  
    10   10   11 1  
    11   11   12 ar 
    12   11   21 ar 
    13   12   13 1  
    14   12   14 ar 
    15   14   15 1  
    16   14   17 ar 
    17   15   16 2  
    18   17   18 1  
    19   17   19 ar 
    20   19   20 1  
    21   19   21 ar 
    22   21   22 1  
    23    1   23 1  
    24    1   24 1  
    25    1   25 1  
    26    3   26 1  
    27    3   27 1  
    28    3   28 1  
    29    4   29 1  
    30    5   30 1  
    31    5   31 1  
    32    6   32 1  
    33    6   33 1  
    34    8   34 1  
    35    8   35 1  
    36    8   36 1  
    37    9   37 1  
    38   10   38 1  
    39   10   39 1  
    40   13   40 1  
    41   15   41 1  
    42   18   42 1  
    43   18   43 1  
    44   18   44 1  
    45   22   45 1  
@<TRIPOS>SUBSTRUCTURE
     1 RNB         1

