### 
### Created by X-TOOL on Mon Sep 10 21:13:16 2018
### 

@<TRIPOS>MOLECULE
3w55_ligand
   50    51     1     0     0
SMALL
GAST_HUCK


@<TRIPOS>ATOM
      1 C2         17.5780   38.0050   45.2320 C.2       1 1FM         0.0683
      2 C3         17.3670   39.1160   44.3650 C.2       1 1FM        -0.0404
      3 C11        18.8550   37.4200   45.2680 C.2       1 1FM         0.1135
      4 C14        18.4340   39.5990   43.5970 C.2       1 1FM        -0.0213
      5 C15        19.6950   39.0090   43.6670 C.2       1 1FM         0.1268
      6 O15        15.2730   37.8420   45.9850 O.3       1 1FM        -0.2839
      7 C16        19.8960   37.9160   44.5000 C.3       1 1FM         0.0938
      8 C17        15.3380   39.8540   43.1080 C.2       1 1FM        -0.0547
      9 C18        12.9280   38.1820   45.7230 C.3       1 1FM        -0.0206
     10 C23        16.0740   39.8070   44.2400 C.2       1 1FM        -0.0541
     11 C24        12.9240   39.4980   42.4050 C.3       1 1FM         0.1111
     12 C26        16.5490   37.3750   46.1400 C.2       1 1FM         0.2248
     13 C31        13.9730   37.6700   46.7100 C.3       1 1FM         0.0823
     14 C34        13.8970   40.3680   43.1480 C.3       1 1FM         0.0195
     15 O38        16.8310   36.5160   46.9810 O.2       1 1FM        -0.3891
     16 C39        11.4560   39.7640   42.5150 C.3       1 1FM         0.1560
     17 C40        11.4100   38.5000   43.3410 C.2       1 1FM         0.1362
     18 O40        11.9540   37.4750   42.9850 O.2       1 1FM        -0.3887
     19 C41        10.6660   38.5160   44.6400 C.3       1 1FM         0.0239
     20 C42        11.4710   37.7740   45.7100 C.3       1 1FM        -0.0344
     21 O42        13.3050   38.9910   41.2070 O.3       1 1FM        -0.3836
     22 O44        10.8980   40.9310   43.0710 O.3       1 1FM        -0.3696
     23 O46        19.1290   36.4610   45.9730 O.2       1 1FM        -0.4200
     24 O48        20.7280   39.5140   42.9000 O.3       1 1FM        -0.2869
     25 C59        21.9810   39.5700   43.5770 C.3       1 1FM         0.0731
     26 C62        13.9330   38.3370   48.0830 C.3       1 1FM        -0.0345
     27 H1         18.2760   40.4489   42.9347 H         1 1FM         0.0326
     28 H2         20.2376   37.0895   43.8596 H         1 1FM         0.0789
     29 H3         20.6988   38.1947   45.1984 H         1 1FM         0.0789
     30 H4         15.7713   39.5253   42.1645 H         1 1FM         0.0900
     31 H5         13.3140   37.9216   44.7264 H         1 1FM         0.0295
     32 H6         12.9248   39.2757   45.8408 H         1 1FM         0.0295
     33 H7         15.6835   40.3154   45.1203 H         1 1FM         0.0474
     34 H8         12.9953   38.5933   43.0267 H         1 1FM         0.0681
     35 H9         13.8014   36.5963   46.8763 H         1 1FM         0.0643
     36 H10        13.8745   41.3732   42.7020 H         1 1FM         0.0537
     37 H11        13.5782   40.4260   44.1992 H         1 1FM         0.0537
     38 H12        10.9622   39.6464   41.5391 H         1 1FM         0.0857
     39 H13         9.6918   38.0223   44.5086 H         1 1FM         0.0495
     40 H14        10.5094   39.5573   44.9580 H         1 1FM         0.0495
     41 H15        11.0342   37.9928   46.6955 H         1 1FM         0.0291
     42 H16        11.4085   36.6936   45.5129 H         1 1FM         0.0291
     43 H17        12.8583   38.1661   41.0570 H         1 1FM         0.2105
     44 H18        10.9906   41.6491   42.4559 H         1 1FM         0.2135
     45 H19        22.7450   39.9812   42.9008 H         1 1FM         0.0606
     46 H20        22.2747   38.5570   43.8892 H         1 1FM         0.0606
     47 H21        21.8904   40.2151   44.4634 H         1 1FM         0.0606
     48 H22        12.9502   38.1645   48.5459 H         1 1FM         0.0258
     49 H23        14.1006   39.4183   47.9704 H         1 1FM         0.0258
     50 H24        14.7194   37.9086   48.7218 H         1 1FM         0.0258
@<TRIPOS>BOND
     1    1    2 2  
     2    1    3 1  
     3    1   12 1  
     4    2    4 1  
     5    2   10 1  
     6    3    7 1  
     7    3   23 2  
     8    4    5 2  
     9    5    7 1  
    10    5   24 1  
    11   12    6 1  
    12    6   13 1  
    13   10    8 2  
    14    8   14 1  
    15   13    9 1  
    16    9   20 1  
    17   14   11 1  
    18   11   16 1  
    19   11   21 1  
    20   12   15 2  
    21   13   26 1  
    22   16   17 1  
    23   16   22 1  
    24   17   18 2  
    25   17   19 1  
    26   19   20 1  
    27   24   25 1  
    28    4   27 1  
    29    7   28 1  
    30    7   29 1  
    31    8   30 1  
    32    9   31 1  
    33    9   32 1  
    34   10   33 1  
    35   11   34 1  
    36   13   35 1  
    37   14   36 1  
    38   14   37 1  
    39   16   38 1  
    40   19   39 1  
    41   19   40 1  
    42   20   41 1  
    43   20   42 1  
    44   21   43 1  
    45   22   44 1  
    46   25   45 1  
    47   25   46 1  
    48   25   47 1  
    49   26   48 1  
    50   26   49 1  
    51   26   50 1  
@<TRIPOS>SUBSTRUCTURE
     1 1FM         1

