### 
### Created by X-TOOL on Mon Sep 10 21:13:14 2018
### 

@<TRIPOS>MOLECULE
3w5e_ligand
   61    64     1     0     0
SMALL
GAST_HUCK


@<TRIPOS>ATOM
      1 N1         28.0180   19.2340  -17.2970 N.ar      1 NVW        -0.2783
      2 C1         25.5770   18.4020  -16.3630 C.ar      1 NVW         0.1620
      3 N2         25.7000   18.8900  -17.6020 N.ar      1 NVW        -0.2535
      4 C2         26.8990   19.2950  -18.0300 C.ar      1 NVW         0.1021
      5 C3         26.9470   19.8550  -19.3960 C.ar      1 NVW         0.0157
      6 N3         24.2950   17.9920  -15.9270 N.pl3     1 NVW        -0.2575
      7 C4         28.1220   19.9630  -20.1220 C.ar      1 NVW        -0.0466
      8 C5         28.1630   20.4620  -21.4140 C.ar      1 NVW        -0.0571
      9 C6         27.0170   20.8910  -22.0420 C.ar      1 NVW        -0.0582
     10 C7         25.8360   20.7990  -21.3350 C.ar      1 NVW        -0.0571
     11 C8         25.8000   20.2900  -20.0490 C.ar      1 NVW        -0.0466
     12 C9         27.9050   18.7400  -16.0590 C.ar      1 NVW         0.0543
     13 C10        26.6970   18.3210  -15.5570 C.ar      1 NVW         0.1583
     14 S1         26.6410   17.6930  -13.8970 S.o2      1 NVW         0.0012
     15 C11        28.2360   16.9660  -13.7310 C.3       1 NVW         0.0719
     16 C12        29.2480   18.0750  -13.9260 C.3       1 NVW        -0.0202
     17 C13        29.1980   18.7030  -15.3040 C.3       1 NVW         0.0017
     18 O1         26.7150   18.8380  -13.0150 O.2       1 NVW        -0.1707
     19 O2         25.6170   16.6900  -13.8350 O.2       1 NVW        -0.1707
     20 C14        23.2590   17.6400  -16.8310 C.ar      1 NVW         0.0575
     21 C15        22.7560   18.5190  -17.7720 C.ar      1 NVW        -0.0441
     22 C16        21.6940   15.9890  -17.6470 C.ar      1 NVW        -0.0670
     23 C17        22.7020   16.3820  -16.7850 C.ar      1 NVW        -0.0441
     24 C18        21.2000   16.8610  -18.5900 C.ar      1 NVW        -0.0352
     25 C19        21.7480   18.1360  -18.6350 C.ar      1 NVW        -0.0670
     26 C20        20.1150   16.4210  -19.5270 C.3       1 NVW         0.0653
     27 C21        20.2970   17.0070  -20.9180 C.2       1 NVW         0.1862
     28 N4         21.2770   16.3540  -21.6600 N.am      1 NVW        -0.2803
     29 O3         19.6340   17.9710  -21.2980 O.2       1 NVW        -0.3945
     30 C22        21.7920   16.7140  -22.9890 C.3       1 NVW         0.0447
     31 C23        22.6000   17.9890  -23.0160 C.3       1 NVW        -0.0396
     32 C24        22.7400   15.6330  -23.4350 C.3       1 NVW        -0.0396
     33 C25        20.7000   16.8120  -24.0320 C.3       1 NVW        -0.0396
     34 H1         24.1064   17.9473  -14.9154 H         1 NVW         0.2141
     35 H2         29.0489   19.6435  -19.6595 H         1 NVW         0.0659
     36 H3         29.1111   20.5150  -21.9369 H         1 NVW         0.0628
     37 H4         27.0408   21.2854  -23.0514 H         1 NVW         0.0647
     38 H5         24.9146   21.1334  -21.7979 H         1 NVW         0.0628
     39 H6         24.8476   20.2286  -19.5349 H         1 NVW         0.0659
     40 H7         28.3776   16.1865  -14.4941 H         1 NVW         0.0504
     41 H8         28.3478   16.5239  -12.7300 H         1 NVW         0.0504
     42 H9         30.2544   17.6597  -13.7690 H         1 NVW         0.0308
     43 H10        29.0541   18.8588  -13.1789 H         1 NVW         0.0308
     44 H11        29.5308   19.7453  -15.1911 H         1 NVW         0.0474
     45 H12        29.9169   18.1543  -15.9302 H         1 NVW         0.0474
     46 H13        23.1586   19.5236  -17.8334 H         1 NVW         0.0521
     47 H14        21.2898   14.9855  -17.5791 H         1 NVW         0.0534
     48 H15        23.0657   15.6751  -16.0481 H         1 NVW         0.0521
     49 H16        21.3762   18.8469  -19.3640 H         1 NVW         0.0534
     50 H17        19.1444   16.7492  -19.1268 H         1 NVW         0.0638
     51 H18        20.1299   15.3234  -19.5985 H         1 NVW         0.0638
     52 H19        21.6795   15.5416  -21.2380 H         1 NVW         0.1858
     53 H20        22.9448   18.1829  -24.0424 H         1 NVW         0.0254
     54 H21        23.4697   17.8862  -22.3504 H         1 NVW         0.0254
     55 H22        21.9743   18.8270  -22.6750 H         1 NVW         0.0254
     56 H23        23.1384   15.8822  -24.4296 H         1 NVW         0.0254
     57 H24        22.2047   14.6733  -23.4844 H         1 NVW         0.0254
     58 H25        23.5696   15.5536  -22.7170 H         1 NVW         0.0254
     59 H26        21.1426   17.0830  -25.0019 H         1 NVW         0.0254
     60 H27        19.9745   17.5825  -23.7320 H         1 NVW         0.0254
     61 H28        20.1892   15.8418  -24.1204 H         1 NVW         0.0254
@<TRIPOS>BOND
     1    4    1 ar 
     2    1   12 ar 
     3    3    2 ar 
     4    2    6 1  
     5    2   13 ar 
     6    3    4 ar 
     7    4    5 1  
     8    5    7 ar 
     9    5   11 ar 
    10    6   20 1  
    11    7    8 ar 
    12    8    9 ar 
    13    9   10 ar 
    14   10   11 ar 
    15   12   13 ar 
    16   12   17 1  
    17   13   14 1  
    18   14   15 1  
    19   14   18 2  
    20   14   19 2  
    21   15   16 1  
    22   16   17 1  
    23   20   21 ar 
    24   20   23 ar 
    25   21   25 ar 
    26   23   22 ar 
    27   22   24 ar 
    28   24   25 ar 
    29   24   26 1  
    30   26   27 1  
    31   27   28 am 
    32   27   29 2  
    33   28   30 1  
    34   30   31 1  
    35   30   32 1  
    36   30   33 1  
    37    6   34 1  
    38    7   35 1  
    39    8   36 1  
    40    9   37 1  
    41   10   38 1  
    42   11   39 1  
    43   15   40 1  
    44   15   41 1  
    45   16   42 1  
    46   16   43 1  
    47   17   44 1  
    48   17   45 1  
    49   21   46 1  
    50   22   47 1  
    51   23   48 1  
    52   25   49 1  
    53   26   50 1  
    54   26   51 1  
    55   28   52 1  
    56   31   53 1  
    57   31   54 1  
    58   31   55 1  
    59   32   56 1  
    60   32   57 1  
    61   32   58 1  
    62   33   59 1  
    63   33   60 1  
    64   33   61 1  
@<TRIPOS>SUBSTRUCTURE
     1 NVW         1

