### 
### Created by X-TOOL on Mon Sep 10 21:13:15 2018
### 

@<TRIPOS>MOLECULE
3w5t_ligand
   74    77     1     0     0
SMALL
GAST_HUCK


@<TRIPOS>ATOM
      1 O3         66.0260   12.8810   -5.9940 O.3       1 LHP        -0.2735
      2 C1         64.2380   15.2100   -8.4270 C.3       1 LHP        -0.0444
      3 C2         65.3250   14.7040   -7.3940 C.3       1 LHP        -0.0216
      4 C3         65.0850   13.1670   -6.9550 C.3       1 LHP         0.0879
      5 C4         63.6070   12.9260   -6.3410 C.3       1 LHP        -0.0188
      6 C5         62.4920   13.3930   -7.4610 C.3       1 LHP        -0.0327
      7 C6         60.9690   13.1860   -6.8650 C.3       1 LHP        -0.0493
      8 C7         60.7810   14.0730   -5.5290 C.3       1 LHP        -0.0494
      9 C8         61.0330   15.6600   -5.8150 C.3       1 LHP        -0.0344
     10 C9         62.5460   15.8960   -6.3790 C.3       1 LHP        -0.0323
     11 C10        62.7690   15.0160   -7.8320 C.3       1 LHP        -0.0260
     12 C11        62.7840   17.4480   -6.6420 C.3       1 LHP        -0.0489
     13 C12        62.5890   18.3370   -5.3590 C.3       1 LHP        -0.0468
     14 C13        61.1370   18.1000   -4.6580 C.3       1 LHP        -0.0259
     15 C14        60.8810   16.4930   -4.5150 C.3       1 LHP        -0.0323
     16 C15        59.4330   16.4270   -3.8220 C.3       1 LHP        -0.0492
     17 C16        59.7670   17.3220   -2.6860 C.3       1 LHP        -0.0492
     18 C17        60.8830   18.4080   -3.0940 C.3       1 LHP        -0.0327
     19 C18        60.0150   18.8290   -5.6730 C.3       1 LHP        -0.0590
     20 C19        61.8030   15.5480   -8.9270 C.3       1 LHP        -0.0590
     21 C20        60.4350   19.9390   -2.7100 C.3       1 LHP        -0.0390
     22 C21        61.6180   20.9820   -3.1090 C.3       1 LHP        -0.0620
     23 C22        60.2020   19.9410   -1.2220 C.3       1 LHP        -0.0386
     24 C23        59.7430   21.2150   -0.5330 C.3       1 LHP         0.0004
     25 C24        59.4990   21.0500    0.9060 C.2       1 LHP         0.0348
     26 C26        66.5960   11.7520   -5.7490 C.2       1 LHP         0.2337
     27 C27        67.8030   11.6340   -4.7800 C.3       1 LHP         0.0459
     28 C28        68.9550   12.1030   -3.8090 C.3       1 LHP        -0.0469
     29 OT1        58.5220   21.6690    1.3440 O.co2     1 LHP        -0.5690
     30 OT2        60.2270   20.3120    1.6060 O.co2     1 LHP        -0.5690
     31 O25        66.4540   10.5820   -6.0900 O.2       1 LHP        -0.3704
     32 H          64.3296   14.6346   -9.3600 H         1 LHP         0.0272
     33 H          64.4060   16.2768   -8.6360 H         1 LHP         0.0272
     34 H          65.2830   15.3389   -6.4967 H         1 LHP         0.0294
     35 H          66.3193   14.7886   -7.8568 H         1 LHP         0.0294
     36 H          65.2220   12.5103   -7.8268 H         1 LHP         0.0649
     37 H          63.4843   13.5220   -5.4247 H         1 LHP         0.0296
     38 H          63.4724   11.8599   -6.1058 H         1 LHP         0.0296
     39 H          62.6072   12.7849   -8.3704 H         1 LHP         0.0307
     40 H          60.8121   12.1243   -6.6238 H         1 LHP         0.0268
     41 H          60.2348   13.5029   -7.6203 H         1 LHP         0.0268
     42 H          61.4990   13.7297   -4.7696 H         1 LHP         0.0268
     43 H          59.7563   13.9373   -5.1527 H         1 LHP         0.0268
     44 H          60.3027   16.0085   -6.5601 H         1 LHP         0.0306
     45 H          63.2695   15.5425   -5.6297 H         1 LHP         0.0309
     46 H          62.0725   17.7844   -7.4105 H         1 LHP         0.0268
     47 H          63.8119   17.5858   -7.0085 H         1 LHP         0.0268
     48 H          62.6750   19.3955   -5.6455 H         1 LHP         0.0271
     49 H          63.3772   18.0884   -4.6331 H         1 LHP         0.0271
     50 H          61.6220   16.0875   -3.8104 H         1 LHP         0.0309
     51 H          59.1623   15.4113   -3.4980 H         1 LHP         0.0268
     52 H          58.6359   16.8322   -4.4626 H         1 LHP         0.0268
     53 H          60.1490   16.7137   -1.8529 H         1 LHP         0.0268
     54 H          58.8558   17.8494   -2.3674 H         1 LHP         0.0268
     55 H          61.8120   18.2020   -2.5421 H         1 LHP         0.0309
     56 H          60.2482   18.5774   -6.7181 H         1 LHP         0.0235
     57 H          60.0556   19.9203   -5.5408 H         1 LHP         0.0235
     58 H          59.0064   18.4668   -5.4250 H         1 LHP         0.0235
     59 H          61.9524   14.9782   -9.8560 H         1 LHP         0.0235
     60 H          62.0095   16.6124   -9.1125 H         1 LHP         0.0235
     61 H          60.7634   15.4299   -8.5876 H         1 LHP         0.0235
     62 H          59.5111   20.2127   -3.2405 H         1 LHP         0.0302
     63 H          61.3085   22.0048   -2.8479 H         1 LHP         0.0233
     64 H          61.8105   20.9220   -4.1903 H         1 LHP         0.0233
     65 H          62.5349   20.7246   -2.5585 H         1 LHP         0.0233
     66 H          61.1514   19.6477   -0.7502 H         1 LHP         0.0286
     67 H          59.4390   19.1754   -1.0177 H         1 LHP         0.0286
     68 H          58.8091   21.5501   -1.0079 H         1 LHP         0.0430
     69 H          60.5192   21.9826   -0.6683 H         1 LHP         0.0430
     70 H          68.4476   11.0595   -5.4614 H         1 LHP         0.0516
     71 H          67.3187   10.9489   -4.0686 H         1 LHP         0.0516
     72 H          69.5009   11.2238   -3.4362 H         1 LHP         0.0255
     73 H          68.5191   12.6508   -2.9605 H         1 LHP         0.0255
     74 H          69.6481   12.7613   -4.3533 H         1 LHP         0.0255
@<TRIPOS>BOND
     1    4    1 1  
     2    1   26 1  
     3    3    2 1  
     4    2   11 1  
     5    3    4 1  
     6    4    5 1  
     7    5    6 1  
     8    6    7 1  
     9    6   11 1  
    10    7    8 1  
    11    8    9 1  
    12    9   10 1  
    13    9   15 1  
    14   10   11 1  
    15   10   12 1  
    16   11   20 1  
    17   12   13 1  
    18   13   14 1  
    19   14   15 1  
    20   14   18 1  
    21   14   19 1  
    22   15   16 1  
    23   16   17 1  
    24   17   18 1  
    25   18   21 1  
    26   21   22 1  
    27   21   23 1  
    28   23   24 1  
    29   24   25 1  
    30   25   29 ar 
    31   25   30 ar 
    32   26   27 1  
    33   26   31 2  
    34   27   28 1  
    35    2   32 1  
    36    2   33 1  
    37    3   34 1  
    38    3   35 1  
    39    4   36 1  
    40    5   37 1  
    41    5   38 1  
    42    6   39 1  
    43    7   40 1  
    44    7   41 1  
    45    8   42 1  
    46    8   43 1  
    47    9   44 1  
    48   10   45 1  
    49   12   46 1  
    50   12   47 1  
    51   13   48 1  
    52   13   49 1  
    53   15   50 1  
    54   16   51 1  
    55   16   52 1  
    56   17   53 1  
    57   17   54 1  
    58   18   55 1  
    59   19   56 1  
    60   19   57 1  
    61   19   58 1  
    62   20   59 1  
    63   20   60 1  
    64   20   61 1  
    65   21   62 1  
    66   22   63 1  
    67   22   64 1  
    68   22   65 1  
    69   23   66 1  
    70   23   67 1  
    71   24   68 1  
    72   24   69 1  
    73   27   70 1  
    74   27   71 1  
    75   28   72 1  
    76   28   73 1  
    77   28   74 1  
@<TRIPOS>SUBSTRUCTURE
     1 LHP         1

