### 
### Created by X-TOOL on Mon Sep 10 21:13:15 2018
### 

@<TRIPOS>MOLECULE
3w69_ligand
   91    96     1     0     0
SMALL
GAST_HUCK


@<TRIPOS>ATOM
      1 CL2       -11.6910    5.1590   -2.7940 Cl        1 LTZ        -0.0420
      2 C30       -11.9990    4.5860   -4.4470 C.ar      1 LTZ         0.0714
      3 C29       -12.1200    3.2220   -4.6540 C.ar      1 LTZ        -0.0181
      4 C28       -12.3730    2.7630   -5.9290 C.ar      1 LTZ        -0.0368
      5 C31       -12.1160    5.5140   -5.4860 C.ar      1 LTZ        -0.0181
      6 C32       -12.3550    5.0490   -6.7700 C.ar      1 LTZ        -0.0368
      7 C27       -12.5040    3.6720   -6.9930 C.ar      1 LTZ        -0.0179
      8 C19       -12.7710    3.1690   -8.3860 C.3       1 LTZ         0.0856
      9 C33       -11.6310    2.2120   -8.7560 C.3       1 LTZ        -0.0553
     10 C20       -14.1480    2.4720   -8.5720 C.3       1 LTZ         0.0699
     11 C21       -15.0920    3.0560   -7.5640 C.ar      1 LTZ        -0.0327
     12 C26       -15.5350    2.2850   -6.4800 C.ar      1 LTZ        -0.0592
     13 C25       -16.3860    2.8330   -5.5200 C.ar      1 LTZ        -0.0546
     14 C24       -16.7790    4.1510   -5.6370 C.ar      1 LTZ         0.0330
     15 CL1       -17.8320    4.8800   -4.3920 Cl        1 LTZ        -0.0771
     16 C23       -16.3380    4.9440   -6.7080 C.ar      1 LTZ        -0.0546
     17 C22       -15.5090    4.3840   -7.6720 C.ar      1 LTZ        -0.0592
     18 N4        -14.4140    2.9180   -9.9530 N.2       1 LTZ        -0.2553
     19 C17       -15.2530    2.5100  -10.9390 C.2       1 LTZ         0.1281
     20 C34       -16.2440    1.4060  -10.9040 C.3       1 LTZ         0.0339
     21 C36       -17.3920    1.8310  -10.0050 C.3       1 LTZ        -0.0419
     22 C35       -15.5670    0.1150  -10.4690 C.3       1 LTZ        -0.0419
     23 N5        -12.8170    4.3080   -9.3190 N.pl3     1 LTZ        -0.2633
     24 C18       -13.6590    3.9440  -10.3160 C.2       1 LTZ         0.2608
     25 S         -13.8860    4.5990  -11.8890 S.3       1 LTZ         0.1469
     26 C16       -15.0940    3.3920  -12.1190 C.2       1 LTZ         0.2369
     27 C15       -15.7730    3.2070  -13.4130 C.2       1 LTZ         0.2907
     28 O3        -15.6370    2.0620  -13.8170 O.2       1 LTZ        -0.3424
     29 N1        -16.3900    4.1380  -14.1400 N.am      1 LTZ        -0.2365
     30 C6        -16.7310    3.8260  -15.5240 C.3       1 LTZ         0.1343
     31 C5        -17.3430    5.1240  -16.0150 C.3       1 LTZ        -0.0102
     32 C4        -17.4330    6.0950  -14.8600 C.3       1 LTZ        -0.0254
     33 C1        -16.7320    5.4740  -13.6640 C.3       1 LTZ         0.0479
     34 C2        -17.7610    5.3080  -12.5560 C.3       1 LTZ        -0.0324
     35 C3        -17.8470    6.5830  -11.7500 C.3       1 LTZ        -0.0632
     36 C7        -15.5270    3.4510  -16.3690 C.2       1 LTZ         0.2044
     37 O1        -14.4050    3.8640  -16.0550 O.2       1 LTZ        -0.3943
     38 N2        -15.7380    2.6470  -17.4280 N.am      1 LTZ        -0.2672
     39 C11       -17.0530    2.1070  -17.7640 C.3       1 LTZ         0.0569
     40 C10       -17.4550    2.5800  -19.1660 C.3       1 LTZ         0.0625
     41 C12       -17.8150    4.0720  -19.2560 C.3       1 LTZ        -0.0399
     42 N3        -16.3780    2.2210  -20.1020 N.am      1 LTZ        -0.2668
     43 C13       -16.6900    1.5610  -21.2430 C.2       1 LTZ         0.1757
     44 C14       -18.1440    1.3530  -21.5560 C.3       1 LTZ         0.0258
     45 O2        -15.8330    1.1470  -22.0090 O.2       1 LTZ        -0.3972
     46 C9        -15.0270    2.6890  -19.7220 C.3       1 LTZ         0.0546
     47 C8        -14.6650    2.2000  -18.3210 C.3       1 LTZ         0.0544
     48 H1        -12.0176    2.5275   -3.8280 H         1 LTZ         0.0703
     49 H2        -12.4711    1.6990   -6.1114 H         1 LTZ         0.0848
     50 H3        -12.0217    6.5762   -5.2915 H         1 LTZ         0.0703
     51 H4        -12.4264    5.7458   -7.5973 H         1 LTZ         0.0848
     52 H5        -10.6657    2.7212   -8.6186 H         1 LTZ         0.0163
     53 H6        -11.7369    1.9044   -9.8068 H         1 LTZ         0.0163
     54 H7        -11.6727    1.3241   -8.1080 H         1 LTZ         0.0163
     55 H8        -14.1094    1.3765   -8.4809 H         1 LTZ         0.0534
     56 H9        -15.2134    1.2540   -6.3870 H         1 LTZ         0.0557
     57 H10       -16.7353    2.2295   -4.6900 H         1 LTZ         0.0606
     58 H11       -16.6410    5.9822   -6.7821 H         1 LTZ         0.0606
     59 H12       -15.1833    4.9830   -8.5148 H         1 LTZ         0.0557
     60 H13       -16.6420    1.2514  -11.9177 H         1 LTZ         0.0621
     61 H14       -18.1416    1.0271   -9.9628 H         1 LTZ         0.0274
     62 H15       -17.8553    2.7435  -10.4084 H         1 LTZ         0.0274
     63 H16       -17.0106    2.0302   -8.9926 H         1 LTZ         0.0274
     64 H17       -14.7508   -0.1241  -11.1666 H         1 LTZ         0.0274
     65 H18       -16.3022   -0.7032  -10.4706 H         1 LTZ         0.0274
     66 H19       -15.1583    0.2388   -9.4553 H         1 LTZ         0.0274
     67 H20       -12.3111    5.2009   -9.2311 H         1 LTZ         0.2130
     68 H21       -17.4627    3.0056  -15.5634 H         1 LTZ         0.0801
     69 H22       -18.3501    4.9296  -16.4123 H         1 LTZ         0.0313
     70 H23       -16.7123    5.5521  -16.8080 H         1 LTZ         0.0313
     71 H24       -18.4882    6.2863  -14.6154 H         1 LTZ         0.0290
     72 H25       -16.9417    7.0415  -15.1297 H         1 LTZ         0.0290
     73 H26       -15.8562    6.0511  -13.3326 H         1 LTZ         0.0559
     74 H27       -17.4608    4.4788  -11.8986 H         1 LTZ         0.0285
     75 H28       -18.7436    5.0877  -12.9987 H         1 LTZ         0.0285
     76 H29       -18.5914    6.4611  -10.9494 H         1 LTZ         0.0230
     77 H30       -18.1475    7.4125  -12.4069 H         1 LTZ         0.0230
     78 H31       -16.8647    6.8036  -11.3068 H         1 LTZ         0.0230
     79 H32       -17.7931    2.4607  -17.0312 H         1 LTZ         0.0545
     80 H33       -17.0142    1.0079  -17.7447 H         1 LTZ         0.0545
     81 H34       -18.3559    2.0194  -19.4559 H         1 LTZ         0.0576
     82 H35       -18.0891    4.3212  -20.2918 H         1 LTZ         0.0252
     83 H36       -16.9489    4.6773  -18.9502 H         1 LTZ         0.0252
     84 H37       -18.6646    4.2850  -18.5906 H         1 LTZ         0.0252
     85 H38       -18.2400    0.8067  -22.5059 H         1 LTZ         0.0467
     86 H39       -18.6438    2.3291  -21.6422 H         1 LTZ         0.0467
     87 H40       -18.6131    0.7708  -20.7492 H         1 LTZ         0.0467
     88 H41       -15.0073    3.7887  -19.7377 H         1 LTZ         0.0542
     89 H42       -14.2930    2.2988  -20.4423 H         1 LTZ         0.0542
     90 H43       -14.5946    1.1023  -18.3092 H         1 LTZ         0.0542
     91 H44       -13.7042    2.6325  -18.0052 H         1 LTZ         0.0542
@<TRIPOS>BOND
     1    1    2 1  
     2    2    3 ar 
     3    2    5 ar 
     4    3    4 ar 
     5    4    7 ar 
     6    5    6 ar 
     7    6    7 ar 
     8    7    8 1  
     9    8    9 1  
    10    8   10 1  
    11    8   23 1  
    12   10   11 1  
    13   10   18 1  
    14   11   12 ar 
    15   11   17 ar 
    16   12   13 ar 
    17   13   14 ar 
    18   14   15 1  
    19   14   16 ar 
    20   16   17 ar 
    21   18   19 1  
    22   18   24 2  
    23   19   20 1  
    24   19   26 2  
    25   20   21 1  
    26   20   22 1  
    27   23   24 1  
    28   24   25 1  
    29   25   26 1  
    30   26   27 1  
    31   27   28 2  
    32   27   29 am 
    33   29   30 1  
    34   29   33 1  
    35   30   31 1  
    36   30   36 1  
    37   31   32 1  
    38   32   33 1  
    39   33   34 1  
    40   34   35 1  
    41   36   37 2  
    42   36   38 am 
    43   38   39 1  
    44   38   47 1  
    45   39   40 1  
    46   40   41 1  
    47   40   42 1  
    48   42   43 am 
    49   42   46 1  
    50   43   44 1  
    51   43   45 2  
    52   46   47 1  
    53    3   48 1  
    54    4   49 1  
    55    5   50 1  
    56    6   51 1  
    57    9   52 1  
    58    9   53 1  
    59    9   54 1  
    60   10   55 1  
    61   12   56 1  
    62   13   57 1  
    63   16   58 1  
    64   17   59 1  
    65   20   60 1  
    66   21   61 1  
    67   21   62 1  
    68   21   63 1  
    69   22   64 1  
    70   22   65 1  
    71   22   66 1  
    72   23   67 1  
    73   30   68 1  
    74   31   69 1  
    75   31   70 1  
    76   32   71 1  
    77   32   72 1  
    78   33   73 1  
    79   34   74 1  
    80   34   75 1  
    81   35   76 1  
    82   35   77 1  
    83   35   78 1  
    84   39   79 1  
    85   39   80 1  
    86   40   81 1  
    87   41   82 1  
    88   41   83 1  
    89   41   84 1  
    90   44   85 1  
    91   44   86 1  
    92   44   87 1  
    93   46   88 1  
    94   46   89 1  
    95   47   90 1  
    96   47   91 1  
@<TRIPOS>SUBSTRUCTURE
     1 LTZ         1

