### 
### Created by X-TOOL on Mon Sep 10 21:13:13 2018
### 

@<TRIPOS>MOLECULE
3w9k_ligand
   43    42     1     0     0
SMALL
GAST_HUCK


@<TRIPOS>ATOM
      1 C1         -5.2350   15.3900  -16.4610 C.2       1 MYR         0.0348
      2 O1         -4.3630   15.1130  -15.5970 O.co2     1 MYR        -0.5690
      3 O2         -5.6760   16.5800  -16.5020 O.co2     1 MYR        -0.5690
      4 C2         -5.7520   14.3620  -17.4640 C.3       1 MYR         0.0002
      5 C3         -6.2680   13.0310  -16.8930 C.3       1 MYR        -0.0414
      6 C4         -7.8060   12.9430  -16.8860 C.3       1 MYR        -0.0516
      7 C5         -8.4440   11.9140  -17.8350 C.3       1 MYR        -0.0530
      8 C6         -9.8310   12.3500  -18.2170 C.3       1 MYR        -0.0531
      9 C7        -10.4800   11.4010  -19.1860 C.3       1 MYR        -0.0531
     10 C8        -11.8660   11.8840  -19.5210 C.3       1 MYR        -0.0531
     11 C9        -12.3940   10.9820  -20.6130 C.3       1 MYR        -0.0531
     12 C10       -13.6650   11.5020  -21.2430 C.3       1 MYR        -0.0531
     13 C11       -13.9300   10.3690  -22.1820 C.3       1 MYR        -0.0531
     14 C12       -14.7010   10.7630  -23.4060 C.3       1 MYR        -0.0533
     15 C13       -14.3610    9.7330  -24.4500 C.3       1 MYR        -0.0559
     16 C14       -14.3390    8.3610  -23.8150 C.3       1 MYR        -0.0653
     17 H1         -4.9290   14.1298  -18.1559 H         1 MYR         0.0430
     18 H2         -6.5788   14.8275  -18.0206 H         1 MYR         0.0430
     19 H3         -5.9050   12.9271  -15.8599 H         1 MYR         0.0283
     20 H4         -5.8713   12.2080  -17.5056 H         1 MYR         0.0283
     21 H5         -8.1977   13.9344  -17.1575 H         1 MYR         0.0266
     22 H6         -8.1208   12.6921  -15.8623 H         1 MYR         0.0266
     23 H7         -8.4960   10.9379  -17.3306 H         1 MYR         0.0265
     24 H8         -7.8282   11.8256  -18.7422 H         1 MYR         0.0265
     25 H9         -9.7738   13.3456  -18.6813 H         1 MYR         0.0265
     26 H10       -10.4479   12.4043  -17.3079 H         1 MYR         0.0265
     27 H11       -10.5415   10.4009  -18.7322 H         1 MYR         0.0265
     28 H12        -9.8787   11.3501  -20.1057 H         1 MYR         0.0265
     29 H13       -11.8285   12.9247  -19.8754 H         1 MYR         0.0265
     30 H14       -12.5129   11.8219  -18.6335 H         1 MYR         0.0265
     31 H15       -12.5964    9.9905  -20.1818 H         1 MYR         0.0265
     32 H16       -11.6261   10.8918  -21.3954 H         1 MYR         0.0265
     33 H17       -13.5051   12.4516  -21.7747 H         1 MYR         0.0265
     34 H18       -14.4719   11.6260  -20.5057 H         1 MYR         0.0265
     35 H19       -14.5036    9.5999  -21.6439 H         1 MYR         0.0265
     36 H20       -12.9642    9.9501  -22.5009 H         1 MYR         0.0265
     37 H21       -14.3990   11.7654  -23.7435 H         1 MYR         0.0265
     38 H22       -15.7811   10.7561  -23.1978 H         1 MYR         0.0265
     39 H23       -13.3718    9.9556  -24.8765 H         1 MYR         0.0263
     40 H24       -15.1179    9.7557  -25.2479 H         1 MYR         0.0263
     41 H25       -14.0906    7.6080  -24.5775 H         1 MYR         0.0230
     42 H26       -15.3282    8.1384  -23.3885 H         1 MYR         0.0230
     43 H27       -13.5821    8.3383  -23.0171 H         1 MYR         0.0230
@<TRIPOS>BOND
     1    1    2 ar 
     2    1    3 ar 
     3    1    4 1  
     4    4    5 1  
     5    5    6 1  
     6    6    7 1  
     7    7    8 1  
     8    8    9 1  
     9    9   10 1  
    10   10   11 1  
    11   11   12 1  
    12   12   13 1  
    13   13   14 1  
    14   14   15 1  
    15   15   16 1  
    16    4   17 1  
    17    4   18 1  
    18    5   19 1  
    19    5   20 1  
    20    6   21 1  
    21    6   22 1  
    22    7   23 1  
    23    7   24 1  
    24    8   25 1  
    25    8   26 1  
    26    9   27 1  
    27    9   28 1  
    28   10   29 1  
    29   10   30 1  
    30   11   31 1  
    31   11   32 1  
    32   12   33 1  
    33   12   34 1  
    34   13   35 1  
    35   13   36 1  
    36   14   37 1  
    37   14   38 1  
    38   15   39 1  
    39   15   40 1  
    40   16   41 1  
    41   16   42 1  
    42   16   43 1  
@<TRIPOS>SUBSTRUCTURE
     1 MYR         1

