### 
### Created by X-TOOL on Mon Sep 10 21:13:18 2018
### 

@<TRIPOS>MOLECULE
3w9r_ligand
   38    38     1     0     0
SMALL
GAST_HUCK


@<TRIPOS>ATOM
      1 C1         38.3560  -40.9270   -6.7730 C.2       1 A8S         0.0812
      2 C2         37.3830  -41.4280   -7.7860 C.2       1 A8S         0.0195
      3 C3         37.1140  -42.7330   -8.0660 C.2       1 A8S         0.0216
      4 C4         37.7400  -43.8870   -7.4050 C.2       1 A8S        -0.0172
      5 C5         37.5860  -45.1540   -7.8870 C.2       1 A8S        -0.0885
      6 C6         36.1210  -42.9670   -9.1800 C.3       1 A8S        -0.0141
      7 C7         38.2680  -46.3410   -7.2470 C.3       1 A8S         0.0346
      8 O7         39.2770  -45.8470   -6.3680 O.3       1 A8S        -0.4664
      9 C8         37.2500  -47.1040   -6.4100 C.2       1 A8S        -0.0686
     10 C9         36.5970  -48.1610   -6.9320 C.2       1 A8S         0.0117
     11 C10        36.8340  -48.6240   -8.3180 C.2       1 A8S         0.1455
     12 O10        36.1630  -49.5450   -8.7960 O.2       1 A8S        -0.3657
     13 C11        37.8960  -47.9430   -9.1760 C.3       1 A8S         0.0180
     14 O11        38.8720  -41.7100   -5.9710 O.co2     1 A8S        -0.5531
     15 C12        38.9450  -47.2510   -8.2950 C.3       1 A8S        -0.0438
     16 O12        38.6710  -39.7160   -6.7850 O.co2     1 A8S        -0.5531
     17 C13        36.9880  -46.6390   -4.9980 C.3       1 A8S        -0.0371
     18 C14        39.8280  -48.3000   -7.6390 C.3       1 A8S        -0.0713
     19 C15        39.7920  -46.3940   -9.2480 C.3       1 A8S        -0.0713
     20 H          36.8355  -40.6788   -8.3560 H         1 A8S         0.0999
     21 H          38.3402  -43.7271   -6.5105 H         1 A8S         0.1122
     22 H          36.9531  -45.3147   -8.7585 H         1 A8S         0.0518
     23 H          35.7565  -41.9994   -9.5555 H         1 A8S         0.0419
     24 H          35.2734  -43.5549   -8.7982 H         1 A8S         0.0419
     25 H          36.6100  -43.5169   -9.9976 H         1 A8S         0.0419
     26 H          39.9048  -45.3350   -6.8643 H         1 A8S         0.1801
     27 H          35.8726  -48.6909   -6.3152 H         1 A8S         0.0957
     28 H          37.4135  -47.1926   -9.8194 H         1 A8S         0.0475
     29 H          38.3927  -48.6984   -9.8026 H         1 A8S         0.0475
     30 H          36.2335  -47.2897   -4.5318 H         1 A8S         0.0416
     31 H          36.6183  -45.6032   -5.0157 H         1 A8S         0.0416
     32 H          37.9212  -46.6854   -4.4175 H         1 A8S         0.0416
     33 H          40.5797  -47.8037   -7.0077 H         1 A8S         0.0221
     34 H          40.3345  -48.8910   -8.4162 H         1 A8S         0.0221
     35 H          39.2089  -48.9644   -7.0183 H         1 A8S         0.0221
     36 H          39.1538  -45.6345   -9.7232 H         1 A8S         0.0221
     37 H          40.2359  -47.0367  -10.0225 H         1 A8S         0.0221
     38 H          40.5927  -45.8971   -8.6806 H         1 A8S         0.0221
@<TRIPOS>BOND
     1    1    2 1  
     2    1   14 ar 
     3    1   16 ar 
     4    2    3 2  
     5    3    4 1  
     6    3    6 1  
     7    4    5 2  
     8    5    7 1  
     9    7    8 1  
    10    7    9 1  
    11    7   15 1  
    12    9   10 2  
    13    9   17 1  
    14   10   11 1  
    15   11   12 2  
    16   11   13 1  
    17   13   15 1  
    18   15   18 1  
    19   15   19 1  
    20    2   20 1  
    21    4   21 1  
    22    5   22 1  
    23    6   23 1  
    24    6   24 1  
    25    6   25 1  
    26    8   26 1  
    27   10   27 1  
    28   13   28 1  
    29   13   29 1  
    30   17   30 1  
    31   17   31 1  
    32   17   32 1  
    33   18   33 1  
    34   18   34 1  
    35   18   35 1  
    36   19   36 1  
    37   19   37 1  
    38   19   38 1  
@<TRIPOS>SUBSTRUCTURE
     1 A8S         1

