### 
### Created by X-TOOL on Mon Sep 10 21:13:15 2018
### 

@<TRIPOS>MOLECULE
3wab_ligand
   29    28     1     0     0
SMALL
GAST_HUCK


@<TRIPOS>ATOM
      1 C2          4.3240  -14.8920    0.1900 C.3       1 DDW        -0.0354
      2 C3          4.5370  -16.0260   -0.8150 C.3       1 DDW        -0.0126
      3 C4          3.3300  -16.9650   -0.7940 C.3       1 DDW        -0.0481
      4 C5          3.1940  -17.6400    0.5720 C.3       1 DDW        -0.0511
      5 C6          4.4450  -18.4690    0.8740 C.3       1 DDW        -0.0378
      6 N1          5.4590  -13.9590    0.1720 N.4       1 DDW         0.2185
      7 C7          4.2030  -19.3430    2.1080 C.3       1 DDW         0.0205
      8 C10         3.9110  -18.4850    3.3400 C.2       1 DDW         0.0386
      9 O12         4.9030  -18.0460    3.9640 O.co2     1 DDW        -0.5687
     10 O11         2.7320  -18.4770    3.7510 O.co2     1 DDW        -0.5687
     11 C8          5.4280  -20.2160    2.3830 C.3       1 DDW         0.0050
     12 S9          5.2140  -21.2200    3.8980 S.3       1 DDW        -0.1762
     13 H1          4.2237  -15.3184    1.1990 H         1 DDW         0.0813
     14 H2          3.4049  -14.3468   -0.0708 H         1 DDW         0.0813
     15 H3          5.4429  -16.5886   -0.5453 H         1 DDW         0.0317
     16 H4          4.6544  -15.6036   -1.8238 H         1 DDW         0.0317
     17 H5          3.4595  -17.7369   -1.5669 H         1 DDW         0.0267
     18 H6          2.4184  -16.3860   -1.0030 H         1 DDW         0.0267
     19 H7          2.3132  -18.2989    0.5666 H         1 DDW         0.0266
     20 H8          3.0713  -16.8701    1.3480 H         1 DDW         0.0266
     21 H9          5.2927  -17.7945    1.0649 H         1 DDW         0.0286
     22 H10         4.6745  -19.1113    0.0110 H         1 DDW         0.0286
     23 H11         5.2982  -13.2214    0.8400 H         1 DDW         0.1994
     24 H12         5.5535  -13.5626   -0.7499 H         1 DDW         0.1994
     25 H13         6.3038  -14.4529    0.4137 H         1 DDW         0.1994
     26 H14         3.3366  -19.9924    1.9143 H         1 DDW         0.0474
     27 H15         6.3080  -19.5676    2.5060 H         1 DDW         0.0394
     28 H16         5.5855  -20.8896    1.5278 H         1 DDW         0.0394
     29 H17         6.0382  -21.7809    4.0472 H         1 DDW         0.1017
@<TRIPOS>BOND
     1    1    2 1  
     2    1    6 1  
     3    2    3 1  
     4    3    4 1  
     5    4    5 1  
     6    5    7 1  
     7    7    8 1  
     8    7   11 1  
     9    8    9 ar 
    10    8   10 ar 
    11   11   12 1  
    12    1   13 1  
    13    1   14 1  
    14    2   15 1  
    15    2   16 1  
    16    3   17 1  
    17    3   18 1  
    18    4   19 1  
    19    4   20 1  
    20    5   21 1  
    21    5   22 1  
    22    6   23 1  
    23    6   24 1  
    24    6   25 1  
    25    7   26 1  
    26   11   27 1  
    27   11   28 1  
    28   12   29 1  
@<TRIPOS>SUBSTRUCTURE
     1 DDW         1

