### 
### Created by X-TOOL on Mon Sep 10 21:13:14 2018
### 

@<TRIPOS>MOLECULE
3wav_ligand
   40    42     1     0     0
SMALL
GAST_HUCK


@<TRIPOS>ATOM
      1 CAK        15.8010   39.1020   18.4880 C.3       1 DWV         0.0748
      2 CAI        17.2150   39.1240   18.9550 C.3       1 DWV        -0.0107
      3 NAU        18.1130   39.6140   17.9490 N.4       1 DWV         0.2360
      4 CAA        19.3870   40.0910   18.3310 C.3       1 DWV        -0.0429
      5 CAJ        18.0020   38.8380   16.7510 C.3       1 DWV        -0.0107
      6 CAL        16.6520   38.9990   16.1540 C.3       1 DWV         0.0748
      7 NAV        15.6020   38.7970   17.0990 N.pl3     1 DWV        -0.2650
      8 CAR        14.3250   38.2520   16.7300 C.2       1 DWV         0.1726
      9 SAN        13.6610   37.9520   15.1500 S.3       1 DWV         0.0003
     10 NAM        13.3880   37.8250   17.6320 N.2       1 DWV        -0.2989
     11 CAS        12.2330   37.3050   17.0860 C.2       1 DWV         0.1012
     12 OAB        11.1850   36.8230   17.8600 O.3       1 DWV        -0.3515
     13 CAT        12.1760   37.2820   15.6400 C.2       1 DWV         0.0415
     14 CAE        10.9560   36.7350   14.8630 C.3       1 DWV         0.0090
     15 CAO        11.0060   36.7020   13.3140 C.ar      1 DWV        -0.0364
     16 CAH        11.3600   37.8760   12.5330 C.ar      1 DWV        -0.0450
     17 CAQ        11.3590   37.8060   11.2010 C.ar      1 DWV         0.0476
     18 CLD        11.8060   39.2210   10.3030 Cl        1 DWV        -0.0719
     19 CAP        10.9980   36.5940   10.5700 C.ar      1 DWV         0.0467
     20 CLC        10.9640   36.4110    8.8810 Cl        1 DWV        -0.0766
     21 CAG        10.6370   35.4560   11.3550 C.ar      1 DWV        -0.0542
     22 CAF        10.6390   35.5280   12.6950 C.ar      1 DWV        -0.0586
     23 H1         15.3675   40.0945   18.6801 H         1 DWV         0.0582
     24 H2         15.2630   38.3462   19.0790 H         1 DWV         0.0582
     25 H3         17.5135   38.1010   19.2276 H         1 DWV         0.0835
     26 H4         17.2855   39.7745   19.8392 H         1 DWV         0.0835
     27 H5         17.6698   40.4784   17.6798 H         1 DWV         0.2032
     28 H6         19.9365   40.4243   17.4383 H         1 DWV         0.0778
     29 H7         19.9472   39.2843   18.8264 H         1 DWV         0.0778
     30 H8         19.2691   40.9358   19.0256 H         1 DWV         0.0778
     31 H9         18.1688   37.7772   16.9894 H         1 DWV         0.0835
     32 H10        18.7602   39.1752   16.0290 H         1 DWV         0.0835
     33 H11        16.5380   38.2677   15.3403 H         1 DWV         0.0582
     34 H12        16.5670   40.0172   15.7465 H         1 DWV         0.0582
     35 H13        10.4901   36.5121   17.2918 H         1 DWV         0.2373
     36 H14        10.0907   37.3530   15.1446 H         1 DWV         0.0525
     37 H15        10.7944   35.7013   15.2025 H         1 DWV         0.0525
     38 H16        11.6232   38.8026   13.0302 H         1 DWV         0.0563
     39 H17        10.3600   34.5294   10.8654 H         1 DWV         0.0605
     40 H18        10.3531   34.6662   13.2872 H         1 DWV         0.0559
@<TRIPOS>BOND
     1    1    2 1  
     2    1    7 1  
     3    2    3 1  
     4    3    4 1  
     5    3    5 1  
     6    5    6 1  
     7    6    7 1  
     8    7    8 1  
     9    8    9 1  
    10    8   10 2  
    11    9   13 1  
    12   10   11 1  
    13   11   12 1  
    14   11   13 2  
    15   13   14 1  
    16   14   15 1  
    17   15   16 ar 
    18   15   22 ar 
    19   16   17 ar 
    20   17   18 1  
    21   17   19 ar 
    22   19   20 1  
    23   19   21 ar 
    24   21   22 ar 
    25    1   23 1  
    26    1   24 1  
    27    2   25 1  
    28    2   26 1  
    29    3   27 1  
    30    4   28 1  
    31    4   29 1  
    32    4   30 1  
    33    5   31 1  
    34    5   32 1  
    35    6   33 1  
    36    6   34 1  
    37   12   35 1  
    38   14   36 1  
    39   14   37 1  
    40   16   38 1  
    41   21   39 1  
    42   22   40 1  
@<TRIPOS>SUBSTRUCTURE
     1 DWV         1

