### 
### Created by X-TOOL on Mon Sep 10 21:13:14 2018
### 

@<TRIPOS>MOLECULE
3waw_ligand
   42    44     1     0     0
SMALL
GAST_HUCK


@<TRIPOS>ATOM
      1 CBB        19.9710   40.3730   19.8830 C.3       1 DWW        -0.0497
      2 CAV        19.4810   40.3840   18.6120 C.3       1 DWW         0.0046
      3 NAS        18.1580   39.9420   18.2970 N.pl3     1 DWW        -0.3541
      4 CAT        17.7170   40.0860   16.7560 C.3       1 DWW         0.0283
      5 CAU        17.4020   39.3810   16.4460 C.3       1 DWW         0.0500
      6 CAR        16.9650   39.3530   19.2140 C.3       1 DWW         0.0283
      7 CAQ        16.5140   38.7210   18.8830 C.3       1 DWW         0.0500
      8 NAP        16.1620   38.8370   17.3110 N.pl3     1 DWW        -0.2722
      9 CAJ        14.8190   38.3730   17.0310 C.2       1 DWW         0.1724
     10 SAI        14.1340   38.2060   15.4910 S.3       1 DWW         0.0003
     11 NAK        13.8980   37.9610   17.9460 N.2       1 DWW        -0.2989
     12 CAL        12.6990   37.5390   17.4030 C.2       1 DWW         0.1012
     13 OAO        11.6260   37.0750   18.1290 O.3       1 DWW        -0.3515
     14 CAH        12.6370   37.6030   16.0090 C.2       1 DWW         0.0415
     15 CAG        11.4170   37.1950   15.2490 C.3       1 DWW         0.0090
     16 CAF        11.4620   37.1850   13.7560 C.ar      1 DWW        -0.0364
     17 CAA        11.0400   36.0190   13.1460 C.ar      1 DWW        -0.0450
     18 CAB        11.0160   35.9110   11.7690 C.ar      1 DWW         0.0476
     19 CLN        10.4950   34.4230   11.0520 Cl        1 DWW        -0.0719
     20 CAC        11.4140   36.9880   10.9810 C.ar      1 DWW         0.0467
     21 CLM        11.3780   36.8250    9.2530 Cl        1 DWW        -0.0766
     22 CAD        11.8280   38.1740   11.5900 C.ar      1 DWW        -0.0542
     23 CAE        11.8450   38.2810   12.9810 C.ar      1 DWW        -0.0586
     24 H1         21.0025   40.7550   19.8816 H         1 DWW         0.0245
     25 H2         19.9618   39.3436   20.2707 H         1 DWW         0.0245
     26 H3         19.3445   41.0115   20.5231 H         1 DWW         0.0245
     27 H4         20.1623   39.7591   18.0160 H         1 DWW         0.0457
     28 H5         19.5450   41.4270   18.2684 H         1 DWW         0.0457
     29 H6         18.5987   40.3689   16.1622 H         1 DWW         0.0480
     30 H7         16.9550   40.8756   16.6800 H         1 DWW         0.0480
     31 H8         18.1909   38.6145   16.4373 H         1 DWW         0.0544
     32 H9         17.0609   39.5679   15.4171 H         1 DWW         0.0544
     33 H10        16.2725   40.1791   19.4333 H         1 DWW         0.0480
     34 H11        17.4115   38.9901   20.1515 H         1 DWW         0.0480
     35 H12        15.5644   38.6624   19.4352 H         1 DWW         0.0544
     36 H13        17.0823   37.7909   19.0310 H         1 DWW         0.0544
     37 H14        11.3324   37.7528   18.7264 H         1 DWW         0.2373
     38 H15        10.6099   37.8825   15.5422 H         1 DWW         0.0525
     39 H16        11.1638   36.1739   15.5704 H         1 DWW         0.0525
     40 H17        10.7242   35.1796   13.7549 H         1 DWW         0.0563
     41 H18        12.1374   39.0149   10.9799 H         1 DWW         0.0605
     42 H19        12.1526   39.2060   13.4552 H         1 DWW         0.0559
@<TRIPOS>BOND
     1    1    2 1  
     2    2    3 1  
     3    3    4 1  
     4    3    6 1  
     5    4    5 1  
     6    5    8 1  
     7    6    7 1  
     8    7    8 1  
     9    8    9 1  
    10    9   10 1  
    11    9   11 2  
    12   10   14 1  
    13   11   12 1  
    14   12   13 1  
    15   12   14 2  
    16   14   15 1  
    17   15   16 1  
    18   16   17 ar 
    19   16   23 ar 
    20   17   18 ar 
    21   18   19 1  
    22   18   20 ar 
    23   20   21 1  
    24   20   22 ar 
    25   22   23 ar 
    26    1   24 1  
    27    1   25 1  
    28    1   26 1  
    29    2   27 1  
    30    2   28 1  
    31    4   29 1  
    32    4   30 1  
    33    5   31 1  
    34    5   32 1  
    35    6   33 1  
    36    6   34 1  
    37    7   35 1  
    38    7   36 1  
    39   13   37 1  
    40   15   38 1  
    41   15   39 1  
    42   17   40 1  
    43   22   41 1  
    44   23   42 1  
@<TRIPOS>SUBSTRUCTURE
     1 DWW         1

