### 
### Created by X-TOOL on Mon Sep 10 21:13:15 2018
### 

@<TRIPOS>MOLECULE
3wb4_ligand
   38    39     1     0     0
SMALL
GAST_HUCK


@<TRIPOS>ATOM
      1 O          16.5230   41.9820  -10.0520 O.2       1 0B3        -0.3970
      2 C5         16.3150   41.0250   -9.3310 C.2       1 0B3         0.1842
      3 N3         15.9980   41.1700   -8.0300 N.am      1 0B3        -0.2129
      4 C4         15.7640   42.5190   -7.5210 C.3       1 0B3         0.0244
      5 C3         15.8890   40.0480   -7.2630 C.cat     1 0B3         0.3311
      6 N2         15.2410   40.1160   -6.1080 N.pl3     1 0B3        -0.2541
      7 N1         16.3790   38.9300   -7.5850 N.pl3     1 0B3        -0.2342
      8 C6         16.4210   39.6320   -9.8880 C.3       1 0B3         0.0841
      9 C2         17.0980   38.7620   -8.8390 C.3       1 0B3         0.1251
     10 C1         17.0530   37.3060   -9.2750 C.3       1 0B3        -0.0151
     11 C7         18.5640   39.2100   -8.7090 C.3       1 0B3         0.0062
     12 C8         19.1920   38.7440   -7.3920 C.3       1 0B3        -0.0145
     13 C9         20.5340   39.4010   -7.1300 C.ar      1 0B3        -0.0429
     14 C14        21.6230   39.1870   -7.9690 C.ar      1 0B3        -0.0603
     15 C13        22.8540   39.8060   -7.7060 C.ar      1 0B3        -0.0686
     16 C12        22.9960   40.6370   -6.5930 C.ar      1 0B3        -0.0687
     17 C11        21.9190   40.8530   -5.7430 C.ar      1 0B3        -0.0686
     18 C10        20.6970   40.2280   -6.0210 C.ar      1 0B3        -0.0603
     19 H1         15.9144   43.2478   -8.3311 H         1 0B3         0.0483
     20 H2         16.4686   42.7296   -6.7030 H         1 0B3         0.0483
     21 H3         14.7329   42.5956   -7.1457 H         1 0B3         0.0483
     22 H4         15.1506   39.2766   -5.5180 H         1 0B3         0.3199
     23 H5         14.8281   41.0082   -5.8009 H         1 0B3         0.3199
     24 H6         16.2683   38.1256   -6.9513 H         1 0B3         0.3231
     25 H7         17.0212   39.6422  -10.8097 H         1 0B3         0.0552
     26 H8         15.4173   39.2397  -10.1084 H         1 0B3         0.0552
     27 H9         17.5989   37.1901  -10.2229 H         1 0B3         0.0280
     28 H10        16.0065   36.9971   -9.4144 H         1 0B3         0.0280
     29 H11        17.5211   36.6774   -8.5032 H         1 0B3         0.0280
     30 H12        18.6049   40.3084   -8.7528 H         1 0B3         0.0337
     31 H13        19.1398   38.7880   -9.5458 H         1 0B3         0.0337
     32 H14        19.3340   37.6540   -7.4339 H         1 0B3         0.0428
     33 H15        18.5090   38.9934   -6.5666 H         1 0B3         0.0428
     34 H16        21.5196   38.5380   -8.8311 H         1 0B3         0.0557
     35 H17        23.6962   39.6390   -8.3678 H         1 0B3         0.0599
     36 H18        23.9483   41.1143   -6.3920 H         1 0B3         0.0559
     37 H19        22.0229   41.4963   -4.8767 H         1 0B3         0.0599
     38 H20        19.8566   40.3920   -5.3563 H         1 0B3         0.0557
@<TRIPOS>BOND
     1    1    2 2  
     2    2    3 am 
     3    2    8 1  
     4    3    4 1  
     5    3    5 ar 
     6    5    6 ar 
     7    5    7 ar 
     8    7    9 1  
     9    8    9 1  
    10    9   10 1  
    11    9   11 1  
    12   11   12 1  
    13   12   13 1  
    14   13   14 ar 
    15   13   18 ar 
    16   14   15 ar 
    17   15   16 ar 
    18   16   17 ar 
    19   17   18 ar 
    20    4   19 1  
    21    4   20 1  
    22    4   21 1  
    23    6   22 1  
    24    6   23 1  
    25    7   24 1  
    26    8   25 1  
    27    8   26 1  
    28   10   27 1  
    29   10   28 1  
    30   10   29 1  
    31   11   30 1  
    32   11   31 1  
    33   12   32 1  
    34   12   33 1  
    35   14   34 1  
    36   15   35 1  
    37   16   36 1  
    38   17   37 1  
    39   18   38 1  
@<TRIPOS>SUBSTRUCTURE
     1 0B3         1

