### 
### Created by X-TOOL on Mon Sep 10 21:13:15 2018
### 

@<TRIPOS>MOLECULE
3wb5_ligand
   39    41     1     0     0
SMALL
GAST_HUCK


@<TRIPOS>ATOM
      1 O          18.1760   40.7490   -9.5500 O.2       1 0B4        -0.3970
      2 C5         17.7680   39.8640   -8.8190 C.2       1 0B4         0.1842
      3 N3         17.2590   40.1190   -7.6050 N.am      1 0B4        -0.2129
      4 C4         16.9560   41.4830   -7.1870 C.3       1 0B4         0.0244
      5 C3         17.0540   39.0920   -6.7740 C.cat     1 0B4         0.3311
      6 N2         16.2080   39.2320   -5.7550 N.pl3     1 0B4        -0.2541
      7 N1         17.6810   38.0020   -6.9000 N.pl3     1 0B4        -0.2340
      8 C6         17.8640   38.4370   -9.2900 C.3       1 0B4         0.0844
      9 C2         18.3300   37.5790   -8.1310 C.3       1 0B4         0.1283
     10 C1         18.0070   36.1220   -8.4250 C.3       1 0B4        -0.0148
     11 C7         19.8460   37.7220   -8.0230 C.3       1 0B4         0.0227
     12 C9         20.4200   37.0000   -6.8080 C.3       1 0B4        -0.0304
     13 C8         20.2380   38.5120   -6.7780 C.3       1 0B4         0.0009
     14 C10        21.4960   39.2280   -7.0720 C.ar      1 0B4        -0.0395
     15 C15        21.5330   40.6130   -6.9740 C.ar      1 0B4        -0.0601
     16 C14        22.7100   41.2970   -7.2500 C.ar      1 0B4        -0.0686
     17 C13        23.8470   40.5950   -7.6250 C.ar      1 0B4        -0.0687
     18 C12        23.8080   39.2100   -7.7240 C.ar      1 0B4        -0.0686
     19 C11        22.6320   38.5240   -7.4520 C.ar      1 0B4        -0.0601
     20 H1         17.1917   42.1784   -8.0061 H         1 0B4         0.0483
     21 H2         17.5599   41.7386   -6.3038 H         1 0B4         0.0483
     22 H3         15.8879   41.5609   -6.9359 H         1 0B4         0.0483
     23 H4         16.0442   38.4459   -5.1099 H         1 0B4         0.3199
     24 H5         15.7176   40.1264   -5.6120 H         1 0B4         0.3199
     25 H6         17.7356   37.3767   -6.0833 H         1 0B4         0.3231
     26 H7         18.5856   38.3669  -10.1172 H         1 0B4         0.0552
     27 H8         16.8775   38.0924   -9.6337 H         1 0B4         0.0552
     28 H9         18.5042   35.8172   -9.3577 H         1 0B4         0.0280
     29 H10        16.9189   36.0023   -8.5336 H         1 0B4         0.0280
     30 H11        18.3643   35.4928   -7.5965 H         1 0B4         0.0280
     31 H12        20.3644   37.7955   -8.9904 H         1 0B4         0.0377
     32 H13        21.4310   36.5687   -6.8516 H         1 0B4         0.0296
     33 H14        19.7727   36.3560   -6.1945 H         1 0B4         0.0296
     34 H15        19.5408   39.0366   -6.1082 H         1 0B4         0.0466
     35 H16        20.6437   41.1599   -6.6822 H         1 0B4         0.0557
     36 H17        22.7405   42.3778   -7.1726 H         1 0B4         0.0599
     37 H18        24.7660   41.1278   -7.8408 H         1 0B4         0.0559
     38 H19        24.6980   38.6634   -8.0143 H         1 0B4         0.0599
     39 H20        22.6002   37.4437   -7.5357 H         1 0B4         0.0557
@<TRIPOS>BOND
     1    1    2 2  
     2    2    3 am 
     3    2    8 1  
     4    3    4 1  
     5    3    5 ar 
     6    5    6 ar 
     7    5    7 ar 
     8    7    9 1  
     9    8    9 1  
    10    9   10 1  
    11    9   11 1  
    12   11   12 1  
    13   11   13 1  
    14   12   13 1  
    15   13   14 1  
    16   14   15 ar 
    17   14   19 ar 
    18   15   16 ar 
    19   16   17 ar 
    20   17   18 ar 
    21   18   19 ar 
    22    4   20 1  
    23    4   21 1  
    24    4   22 1  
    25    6   23 1  
    26    6   24 1  
    27    7   25 1  
    28    8   26 1  
    29    8   27 1  
    30   10   28 1  
    31   10   29 1  
    32   10   30 1  
    33   11   31 1  
    34   12   32 1  
    35   12   33 1  
    36   13   34 1  
    37   15   35 1  
    38   16   36 1  
    39   17   37 1  
    40   18   38 1  
    41   19   39 1  
@<TRIPOS>SUBSTRUCTURE
     1 0B4         1

