### 
### Created by X-TOOL on Mon Sep 10 21:13:14 2018
### 

@<TRIPOS>MOLECULE
3wbl_ligand
   54    57     1     0     0
SMALL
GAST_HUCK


@<TRIPOS>ATOM
      1 C25        25.1200   62.0390   11.0040 C.3       1 PDY        -0.0201
      2 C26        24.1410   62.0040   12.1770 C.3       1 PDY        -0.0103
      3 C23        24.7440   62.7200   13.3970 C.3       1 PDY        -0.0335
      4 N12        25.3240   64.0270   13.0680 N.4       1 PDY         0.2286
      5 C22        26.1520   64.2120   11.8850 C.3       1 PDY        -0.0102
      6 C15        25.5750   63.4660   10.6610 C.3       1 PDY         0.0793
      7 N10        26.5340   63.3840    9.5600 N.pl3     1 PDY        -0.2986
      8 C4         27.1090   64.4670    8.9410 C.2       1 PDY         0.0960
      9 C3         28.3350   64.2240    8.1050 C.2       1 PDY         0.0596
     10 C14        28.8800   62.8130    7.9940 C.3       1 PDY        -0.0357
     11 N6         26.6030   65.7400    9.0670 N.2       1 PDY        -0.2934
     12 C5         27.1960   66.7830    8.4110 C.2       1 PDY         0.1267
     13 C8         26.7740   68.1570    8.3730 C.2       1 PDY        -0.0551
     14 C11        27.7360   68.7580    7.5490 C.2       1 PDY        -0.0311
     15 N7         28.6870   67.8690    7.0620 N.2       1 PDY        -0.2261
     16 N2         28.3390   66.6440    7.6120 N.pl3     1 PDY        -0.1271
     17 C1         28.9880   65.3970    7.4270 C.2       1 PDY         0.2337
     18 N9         30.1030   65.3480    6.6500 N.pl3     1 PDY        -0.2364
     19 C13        31.0720   64.3900    6.6780 C.ar      1 PDY         0.0577
     20 C17        31.6300   63.8960    7.8770 C.ar      1 PDY        -0.0458
     21 C20        32.6150   62.8950    7.8240 C.ar      1 PDY        -0.0419
     22 C18        31.5080   63.8920    5.4460 C.ar      1 PDY        -0.0458
     23 C19        32.4890   62.9070    5.3950 C.ar      1 PDY        -0.0419
     24 C16        33.0570   62.4050    6.5810 C.ar      1 PDY         0.0797
     25 O21        34.0310   61.4180    6.5340 O.3       1 PDY        -0.3255
     26 C24        34.8230   61.1220    5.3720 C.3       1 PDY         0.0652
     27 C27        36.2150   61.7260    5.5020 C.3       1 PDY        -0.0375
     28 H1         24.6290   61.6034   10.1213 H         1 PDY         0.0291
     29 H2         26.0047   61.4396   11.2646 H         1 PDY         0.0291
     30 H3         23.9267   60.9576   12.4397 H         1 PDY         0.0318
     31 H4         23.2074   62.5075   11.8856 H         1 PDY         0.0318
     32 H5         25.5340   62.0832   13.8217 H         1 PDY         0.0814
     33 H6         23.9504   62.8672   14.1443 H         1 PDY         0.0814
     34 H7         25.8911   64.2941   13.8574 H         1 PDY         0.2014
     35 H8         24.5508   64.6674   12.9777 H         1 PDY         0.2014
     36 H9         27.1616   63.8281   12.0930 H         1 PDY         0.0837
     37 H10        26.2084   65.2859   11.6538 H         1 PDY         0.0837
     38 H11        24.6985   64.0325   10.3134 H         1 PDY         0.0609
     39 H12        26.7973   62.4464    9.2245 H         1 PDY         0.1832
     40 H13        28.2412   62.1269    8.5695 H         1 PDY         0.0310
     41 H14        29.9041   62.7829    8.3943 H         1 PDY         0.0310
     42 H15        28.8899   62.5057    6.9378 H         1 PDY         0.0310
     43 H16        25.9178   68.6175    8.8636 H         1 PDY         0.0145
     44 H17        27.7379   69.8211    7.3128 H         1 PDY         0.0604
     45 H18        30.2279   66.1127    5.9713 H         1 PDY         0.2189
     46 H19        31.3006   64.2865    8.8330 H         1 PDY         0.0512
     47 H20        33.0349   62.4998    8.7419 H         1 PDY         0.0516
     48 H21        31.0797   64.2752    4.5269 H         1 PDY         0.0512
     49 H22        32.8180   62.5237    4.4359 H         1 PDY         0.0516
     50 H23        34.3295   61.5402    4.4823 H         1 PDY         0.0607
     51 H24        34.9114   60.0310    5.2634 H         1 PDY         0.0607
     52 H25        36.8033   61.4879    4.6036 H         1 PDY         0.0255
     53 H26        36.7145   61.3085    6.3887 H         1 PDY         0.0255
     54 H27        36.1326   62.8178    5.6076 H         1 PDY         0.0255
@<TRIPOS>BOND
     1    1    2 1  
     2    1    6 1  
     3    2    3 1  
     4    3    4 1  
     5    4    5 1  
     6    5    6 1  
     7    6    7 1  
     8    7    8 1  
     9    8    9 1  
    10    8   11 2  
    11    9   10 1  
    12    9   17 2  
    13   11   12 1  
    14   12   13 2  
    15   12   16 1  
    16   13   14 1  
    17   14   15 2  
    18   15   16 1  
    19   16   17 1  
    20   17   18 1  
    21   18   19 1  
    22   19   20 ar 
    23   19   22 ar 
    24   20   21 ar 
    25   21   24 ar 
    26   22   23 ar 
    27   23   24 ar 
    28   24   25 1  
    29   25   26 1  
    30   26   27 1  
    31    1   28 1  
    32    1   29 1  
    33    2   30 1  
    34    2   31 1  
    35    3   32 1  
    36    3   33 1  
    37    4   34 1  
    38    4   35 1  
    39    5   36 1  
    40    5   37 1  
    41    6   38 1  
    42    7   39 1  
    43   10   40 1  
    44   10   41 1  
    45   10   42 1  
    46   13   43 1  
    47   14   44 1  
    48   18   45 1  
    49   20   46 1  
    50   21   47 1  
    51   22   48 1  
    52   23   49 1  
    53   26   50 1  
    54   26   51 1  
    55   27   52 1  
    56   27   53 1  
    57   27   54 1  
@<TRIPOS>SUBSTRUCTURE
     1 PDY         1

