### 
### Created by X-TOOL on Mon Sep 10 21:13:14 2018
### 

@<TRIPOS>MOLECULE
3wd1_ligand
   94    98     1     0     0
SMALL
GAST_HUCK


@<TRIPOS>ATOM
      1 C9        -20.3200   -7.0560  -31.0620 C.3       1 ST7         0.0199
      2 N6        -20.8840   -5.9640  -30.2460 N.am      1 ST7        -0.2765
      3 C8        -20.2680   -4.8010  -30.0990 C.2       1 ST7         0.2581
      4 O3        -19.1700   -4.5550  -30.6080 O.2       1 ST7        -0.4011
      5 N4        -20.8510   -3.9450  -29.2160 N.am      1 ST7        -0.2102
      6 C7        -20.4890   -2.6710  -28.9630 C.cat     1 ST7         0.3281
      7 N5        -19.3120   -2.1350  -29.4270 N.pl3     1 ST7        -0.2545
      8 N3        -21.2470   -2.0340  -28.0480 N.pl3     1 ST7        -0.2420
      9 C6        -21.0750   -0.5940  -27.6280 C.3       1 ST7         0.0888
     10 C5        -21.7870    0.2050  -28.7310 C.3       1 ST7        -0.0071
     11 C4        -22.0960    1.6790  -28.4200 C.3       1 ST7        -0.0084
     12 C2        -22.3310    2.4290  -29.6860 C.3       1 ST7         0.1315
     13 C1        -23.5910    2.0260  -30.4470 C.2       1 ST7         0.2078
     14 O2        -24.6480    1.7430  -29.8810 O.2       1 ST7        -0.3940
     15 N1        -23.5840    2.2310  -31.7320 N.am      1 ST7        -0.2488
     16 C12       -24.9010    2.1660  -32.3970 C.3       1 ST7         0.0697
     17 C13       -24.9020    1.1350  -33.4850 C.ar      1 ST7        -0.0206
     18 C20       -24.9610   -0.1940  -33.0700 C.ar      1 ST7        -0.0584
     19 C21       -25.0230   -1.1320  -34.0810 C.ar      1 ST7        -0.0685
     20 C22       -24.9310   -0.7130  -35.4210 C.ar      1 ST7        -0.0687
     21 C23       -24.8350    0.6230  -35.8340 C.ar      1 ST7        -0.0685
     22 C24       -24.8240    1.5640  -34.8280 C.ar      1 ST7        -0.0584
     23 C11       -22.3810    2.5900  -32.5370 C.3       1 ST7         0.0697
     24 C14       -21.2210    1.6390  -32.4340 C.ar      1 ST7        -0.0206
     25 C15       -21.4100    0.2380  -32.4600 C.ar      1 ST7        -0.0584
     26 C16       -20.2540   -0.5420  -32.3470 C.ar      1 ST7        -0.0685
     27 C17       -18.9490   -0.0130  -32.2350 C.ar      1 ST7        -0.0687
     28 C18       -18.7880    1.3860  -32.2340 C.ar      1 ST7        -0.0685
     29 C19       -19.9270    2.1840  -32.3380 C.ar      1 ST7        -0.0584
     30 N2        -22.6070    3.9320  -29.4650 N.am      1 ST7        -0.2632
     31 C3        -21.7300    4.8790  -29.3350 C.2       1 ST7         0.2118
     32 O1        -20.5270    4.6120  -29.1930 O.2       1 ST7        -0.3936
     33 C10       -22.3190    6.3510  -29.3500 C.3       1 ST7         0.1651
     34 N7        -21.4070    7.1550  -28.5460 N.pl3     1 ST7        -0.1494
     35 N8        -20.2760    7.5320  -28.9490 N.2       1 ST7        -0.1072
     36 N9        -19.6720    8.0930  -28.0370 N.2       1 ST7        -0.2426
     37 C25       -20.4880    8.0920  -26.9340 C.2       1 ST7         0.0212
     38 C26       -21.6180    7.4700  -27.2720 C.2       1 ST7         0.1273
     39 C27       -22.8580    7.1490  -26.4130 C.3       1 ST7         0.1629
     40 O4        -22.8940    5.7280  -26.0970 O.3       1 ST7        -0.2058
     41 N11       -21.9360    5.1400  -25.2600 N.2       1 ST7        -0.1306
     42 C28       -21.9220    3.8070  -25.0780 C.2       1 ST7         0.0615
     43 C29       -20.9890    3.0910  -24.3040 C.ar      1 ST7         0.0135
     44 C30       -20.7180    3.3910  -22.9770 C.ar      1 ST7         0.0113
     45 C34       -21.3900    4.4600  -22.3690 C.ar      1 ST7        -0.0470
     46 C35       -21.1080    4.7070  -21.0520 C.ar      1 ST7        -0.0570
     47 C36       -20.1740    3.9460  -20.3570 C.ar      1 ST7        -0.0571
     48 C37       -19.4900    2.9020  -20.9500 C.ar      1 ST7        -0.0412
     49 C31       -19.7570    2.6050  -22.2830 C.ar      1 ST7         0.0417
     50 N10       -19.0810    1.5710  -22.8750 N.ar      1 ST7        -0.3031
     51 C32       -19.3350    1.2830  -24.1220 C.ar      1 ST7         0.0042
     52 C33       -20.2680    2.0330  -24.8320 C.ar      1 ST7        -0.0292
     53 H1        -21.0005   -7.9200  -31.0390 H         1 ST7         0.0481
     54 H2        -19.3409   -7.3495  -30.6555 H         1 ST7         0.0481
     55 H3        -20.1982   -6.7129  -32.1000 H         1 ST7         0.0481
     56 H4        -21.7615   -6.1069  -29.7882 H         1 ST7         0.1841
     57 H5        -21.6310   -4.2986  -28.6998 H         1 ST7         0.1851
     58 H6        -19.0715   -1.1568  -29.2119 H         1 ST7         0.3198
     59 H7        -18.6702   -2.7114  -29.9899 H         1 ST7         0.3198
     60 H8        -22.0028   -2.5719  -27.6003 H         1 ST7         0.3223
     61 H9        -20.0093   -0.3263  -27.5779 H         1 ST7         0.0797
     62 H10       -21.5448   -0.4136  -26.6499 H         1 ST7         0.0797
     63 H11       -22.7413   -0.2984  -28.9453 H         1 ST7         0.0310
     64 H12       -21.1494    0.1791  -29.6270 H         1 ST7         0.0310
     65 H13       -21.2442    2.1248  -27.8854 H         1 ST7         0.0314
     66 H14       -22.9957    1.7374  -27.7898 H         1 ST7         0.0314
     67 H15       -21.4449    2.2916  -30.3231 H         1 ST7         0.0800
     68 H16       -25.1332    3.1490  -32.8326 H         1 ST7         0.0688
     69 H17       -25.6675    1.9044  -31.6527 H         1 ST7         0.0688
     70 H18       -24.9584   -0.4729  -32.0225 H         1 ST7         0.0557
     71 H19       -25.1416   -2.1832  -33.8443 H         1 ST7         0.0599
     72 H20       -24.9346   -1.4781  -36.1889 H         1 ST7         0.0559
     73 H21       -24.7732    0.8987  -36.8805 H         1 ST7         0.0599
     74 H22       -24.7564    2.6198  -35.0643 H         1 ST7         0.0557
     75 H23       -22.0362    3.5808  -32.2063 H         1 ST7         0.0688
     76 H24       -22.6838    2.6408  -33.5933 H         1 ST7         0.0688
     77 H25       -22.3936   -0.2061  -32.5616 H         1 ST7         0.0557
     78 H26       -20.3669   -1.6201  -32.3453 H         1 ST7         0.0599
     79 H27       -18.0904   -0.6695  -32.1517 H         1 ST7         0.0559
     80 H28       -17.8030    1.8316  -32.1544 H         1 ST7         0.0599
     81 H29       -19.8116    3.2618  -32.3451 H         1 ST7         0.0557
     82 H30       -23.5676    4.2056  -29.4168 H         1 ST7         0.1884
     83 H31       -23.3279    6.3638  -28.9118 H         1 ST7         0.0891
     84 H32       -22.3615    6.7355  -30.3797 H         1 ST7         0.0891
     85 H33       -20.2553    8.5208  -25.9604 H         1 ST7         0.0437
     86 H34       -23.7667    7.4209  -26.9700 H         1 ST7         0.0872
     87 H35       -22.8134    7.7283  -25.4790 H         1 ST7         0.0872
     88 H36       -22.7018    3.2305  -25.5735 H         1 ST7         0.0810
     89 H37       -22.1024    5.0653  -22.9177 H         1 ST7         0.0650
     90 H38       -21.6232    5.5121  -20.5406 H         1 ST7         0.0633
     91 H39       -19.9763    4.1793  -19.3170 H         1 ST7         0.0648
     92 H40       -18.7617    2.3272  -20.3893 H         1 ST7         0.0634
     93 H41       -18.8198    0.4603  -24.6046 H         1 ST7         0.0840
     94 H42       -20.4423    1.7711  -25.8693 H         1 ST7         0.0664
@<TRIPOS>BOND
     1    1    2 1  
     2    2    3 am 
     3    3    4 2  
     4    3    5 am 
     5    5    6 ar 
     6    6    7 ar 
     7    6    8 ar 
     8    8    9 1  
     9    9   10 1  
    10   10   11 1  
    11   11   12 1  
    12   12   13 1  
    13   12   30 1  
    14   13   14 2  
    15   13   15 am 
    16   15   16 1  
    17   15   23 1  
    18   16   17 1  
    19   17   18 ar 
    20   17   22 ar 
    21   18   19 ar 
    22   19   20 ar 
    23   20   21 ar 
    24   21   22 ar 
    25   23   24 1  
    26   24   25 ar 
    27   24   29 ar 
    28   25   26 ar 
    29   26   27 ar 
    30   27   28 ar 
    31   28   29 ar 
    32   30   31 am 
    33   31   32 2  
    34   31   33 1  
    35   33   34 1  
    36   34   35 1  
    37   34   38 1  
    38   35   36 2  
    39   36   37 1  
    40   37   38 2  
    41   38   39 1  
    42   39   40 1  
    43   40   41 1  
    44   41   42 2  
    45   42   43 1  
    46   43   44 ar 
    47   43   52 ar 
    48   44   45 ar 
    49   44   49 ar 
    50   45   46 ar 
    51   46   47 ar 
    52   47   48 ar 
    53   48   49 ar 
    54   49   50 ar 
    55   50   51 ar 
    56   51   52 ar 
    57    1   53 1  
    58    1   54 1  
    59    1   55 1  
    60    2   56 1  
    61    5   57 1  
    62    7   58 1  
    63    7   59 1  
    64    8   60 1  
    65    9   61 1  
    66    9   62 1  
    67   10   63 1  
    68   10   64 1  
    69   11   65 1  
    70   11   66 1  
    71   12   67 1  
    72   16   68 1  
    73   16   69 1  
    74   18   70 1  
    75   19   71 1  
    76   20   72 1  
    77   21   73 1  
    78   22   74 1  
    79   23   75 1  
    80   23   76 1  
    81   25   77 1  
    82   26   78 1  
    83   27   79 1  
    84   28   80 1  
    85   29   81 1  
    86   30   82 1  
    87   33   83 1  
    88   33   84 1  
    89   37   85 1  
    90   39   86 1  
    91   39   87 1  
    92   42   88 1  
    93   45   89 1  
    94   46   90 1  
    95   47   91 1  
    96   48   92 1  
    97   51   93 1  
    98   52   94 1  
@<TRIPOS>SUBSTRUCTURE
     1 ST7         1

