### 
### Created by X-TOOL on Mon Sep 10 21:13:13 2018
### 

@<TRIPOS>MOLECULE
3wd2_ligand
   68    69     1     0     0
SMALL
GAST_HUCK


@<TRIPOS>ATOM
      1 C9        -20.5830   -7.0540  -31.3050 C.3       1 A1L         0.0199
      2 N6        -21.0110   -6.1550  -30.2030 N.am      1 A1L        -0.2765
      3 C8        -20.3360   -5.0190  -29.9600 C.2       1 A1L         0.2581
      4 O3        -19.3410   -4.6340  -30.5960 O.2       1 A1L        -0.4011
      5 N4        -20.8010   -4.2960  -28.9120 N.am      1 A1L        -0.2102
      6 C7        -20.3210   -3.1210  -28.4650 C.cat     1 A1L         0.3281
      7 N5        -19.2580   -2.4960  -29.0320 N.pl3     1 A1L        -0.2545
      8 N3        -20.9510   -2.6270  -27.3870 N.pl3     1 A1L        -0.2420
      9 C6        -20.5680   -1.4040  -26.6610 C.3       1 A1L         0.0888
     10 C5        -20.7970   -0.2260  -27.5600 C.3       1 A1L        -0.0071
     11 C4        -21.6240    0.8740  -26.9100 C.3       1 A1L        -0.0084
     12 C2        -21.8650    1.8750  -28.0350 C.3       1 A1L         0.1316
     13 N2        -20.9330    1.4300  -29.1110 N.am      1 A1L        -0.2613
     14 C3        -20.7810    1.9630  -30.3190 C.2       1 A1L         0.2397
     15 O1        -21.3870    2.9630  -30.6930 O.2       1 A1L        -0.3911
     16 C10       -19.7510    1.2290  -31.2310 C.3       1 A1L         0.2950
     17 N7        -19.4750    2.0530  -32.4260 N.2       1 A1L         0.1878
     18 N8        -19.2490    1.5140  -33.4150 N.1       1 A1L         0.1318
     19 N9        -18.9220    1.1750  -34.4680 N.1       1 A1L         0.2335
     20 C1        -21.5790    3.2950  -27.5460 C.2       1 A1L         0.2078
     21 O2        -20.4700    3.7920  -27.7460 O.2       1 A1L        -0.3940
     22 N1        -22.5810    3.9460  -26.9280 N.am      1 A1L        -0.2488
     23 C12       -22.3730    5.3460  -26.4530 C.3       1 A1L         0.0697
     24 C13       -21.7520    6.2110  -27.5890 C.ar      1 A1L        -0.0206
     25 C20       -21.0120    7.3600  -27.2970 C.ar      1 A1L        -0.0584
     26 C21       -20.4460    8.1030  -28.3490 C.ar      1 A1L        -0.0685
     27 C22       -20.6150    7.7320  -29.6870 C.ar      1 A1L        -0.0687
     28 C23       -21.3550    6.5920  -29.9900 C.ar      1 A1L        -0.0685
     29 C24       -21.9120    5.8470  -28.9380 C.ar      1 A1L        -0.0584
     30 C11       -23.8980    3.3130  -26.6770 C.3       1 A1L         0.0697
     31 C14       -24.9340    3.4760  -27.8270 C.ar      1 A1L        -0.0206
     32 C15       -24.5470    3.5420  -29.1720 C.ar      1 A1L        -0.0584
     33 C16       -25.5070    3.6770  -30.1840 C.ar      1 A1L        -0.0685
     34 C17       -26.8630    3.7410  -29.8630 C.ar      1 A1L        -0.0687
     35 C18       -27.2620    3.6710  -28.5290 C.ar      1 A1L        -0.0685
     36 C19       -26.3010    3.5370  -27.5200 C.ar      1 A1L        -0.0584
     37 H1        -21.2526   -7.9257  -31.3481 H         1 A1L         0.0481
     38 H2        -19.5522   -7.3921  -31.1230 H         1 A1L         0.0481
     39 H3        -20.6273   -6.5101  -32.2601 H         1 A1L         0.0481
     40 H4        -21.8025   -6.3955  -29.6412 H         1 A1L         0.1841
     41 H5        -21.5836   -4.6760  -28.4188 H         1 A1L         0.1851
     42 H6        -18.9272   -1.5969  -28.6536 H         1 A1L         0.3198
     43 H7        -18.7821   -2.9207  -29.8407 H         1 A1L         0.3198
     44 H8        -21.7697   -3.1462  -27.0390 H         1 A1L         0.3223
     45 H9        -19.5055   -1.4560  -26.3809 H         1 A1L         0.0797
     46 H10       -21.1819   -1.3033  -25.7538 H         1 A1L         0.0797
     47 H11       -21.3231   -0.5719  -28.4620 H         1 A1L         0.0310
     48 H12       -19.8200    0.1926  -27.8432 H         1 A1L         0.0310
     49 H13       -21.0696    1.3422  -26.0834 H         1 A1L         0.0314
     50 H14       -22.5768    0.4745  -26.5326 H         1 A1L         0.0314
     51 H15       -22.9054    1.8220  -28.3883 H         1 A1L         0.0800
     52 H16       -20.3568    0.6406  -28.8994 H         1 A1L         0.1884
     53 H17       -20.1638    0.2582  -31.5426 H         1 A1L         0.1210
     54 H18       -18.8168    1.0681  -30.6731 H         1 A1L         0.1210
     55 H19       -21.6933    5.3394  -25.5882 H         1 A1L         0.0688
     56 H20       -23.3405    5.7766  -26.1557 H         1 A1L         0.0688
     57 H21       -20.8754    7.6759  -26.2691 H         1 A1L         0.0557
     58 H22       -19.8632    8.9869  -28.1164 H         1 A1L         0.0599
     59 H23       -20.1745    8.3257  -30.4798 H         1 A1L         0.0559
     60 H24       -21.4986    6.2851  -31.0197 H         1 A1L         0.0599
     61 H25       -22.4864    4.9586  -29.1744 H         1 A1L         0.0557
     62 H26       -24.3244    3.7608  -25.7672 H         1 A1L         0.0688
     63 H27       -23.7346    2.2374  -26.5144 H         1 A1L         0.0688
     64 H28       -23.4960    3.4882  -29.4320 H         1 A1L         0.0557
     65 H29       -25.1945    3.7319  -31.2205 H         1 A1L         0.0599
     66 H30       -27.6036    3.8448  -30.6477 H         1 A1L         0.0559
     67 H31       -28.3143    3.7202  -28.2736 H         1 A1L         0.0599
     68 H32       -26.6185    3.4795  -26.4851 H         1 A1L         0.0557
@<TRIPOS>BOND
     1    1    2 1  
     2    2    3 am 
     3    3    4 2  
     4    3    5 am 
     5    5    6 ar 
     6    6    7 ar 
     7    6    8 ar 
     8    8    9 1  
     9    9   10 1  
    10   10   11 1  
    11   11   12 1  
    12   12   13 1  
    13   12   20 1  
    14   13   14 am 
    15   14   15 2  
    16   14   16 1  
    17   16   17 1  
    18   17   18 2  
    19   18   19 3  
    20   20   21 2  
    21   20   22 am 
    22   22   23 1  
    23   22   30 1  
    24   23   24 1  
    25   24   25 ar 
    26   24   29 ar 
    27   25   26 ar 
    28   26   27 ar 
    29   27   28 ar 
    30   28   29 ar 
    31   30   31 1  
    32   31   32 ar 
    33   31   36 ar 
    34   32   33 ar 
    35   33   34 ar 
    36   34   35 ar 
    37   35   36 ar 
    38    1   37 1  
    39    1   38 1  
    40    1   39 1  
    41    2   40 1  
    42    5   41 1  
    43    7   42 1  
    44    7   43 1  
    45    8   44 1  
    46    9   45 1  
    47    9   46 1  
    48   10   47 1  
    49   10   48 1  
    50   11   49 1  
    51   11   50 1  
    52   12   51 1  
    53   13   52 1  
    54   16   53 1  
    55   16   54 1  
    56   23   55 1  
    57   23   56 1  
    58   25   57 1  
    59   26   58 1  
    60   27   59 1  
    61   28   60 1  
    62   29   61 1  
    63   30   62 1  
    64   30   63 1  
    65   32   64 1  
    66   33   65 1  
    67   34   66 1  
    68   35   67 1  
    69   36   68 1  
@<TRIPOS>SUBSTRUCTURE
     1 A1L         1

