### 
### Created by X-TOOL on Mon Sep 10 21:13:13 2018
### 

@<TRIPOS>MOLECULE
3wd9_ligand
   58    60     1     0     0
SMALL
GAST_HUCK


@<TRIPOS>ATOM
      1 C1         27.8840   19.0800  -16.3670 C.ar      1 QPC         0.0330
      2 N1         27.8150   19.5120  -17.6410 N.ar      1 QPC        -0.2727
      3 C2         26.6090   19.4440  -18.2290 C.ar      1 QPC         0.1147
      4 N2         25.5110   18.9730  -17.6210 N.ar      1 QPC        -0.2401
      5 C3         25.5830   18.5420  -16.3490 C.ar      1 QPC         0.1656
      6 C4         26.7970   18.5830  -15.6680 C.ar      1 QPC         0.1201
      7 C5         26.4600   19.9230  -19.6170 C.ar      1 QPC         0.0200
      8 C6         27.4330   20.6960  -20.2310 C.ar      1 QPC        -0.0456
      9 C7         27.3200   21.1540  -21.5320 C.ar      1 QPC        -0.0565
     10 C8         26.1980   20.8510  -22.2770 C.ar      1 QPC        -0.0577
     11 C9         25.2080   20.0850  -21.6950 C.ar      1 QPC        -0.0565
     12 C10        25.3450   19.6320  -20.3910 C.ar      1 QPC        -0.0456
     13 N3         24.4020   18.0640  -15.7270 N.pl3     1 QPC        -0.2532
     14 C11        23.2270   17.7140  -16.4590 C.ar      1 QPC         0.0594
     15 C12        22.6100   16.4970  -16.2770 C.ar      1 QPC        -0.0435
     16 C13        21.4710   16.1360  -16.9720 C.ar      1 QPC        -0.0667
     17 C14        20.9240   17.0090  -17.8830 C.ar      1 QPC        -0.0350
     18 C15        21.5240   18.2310  -18.0630 C.ar      1 QPC        -0.0667
     19 C16        22.6500   18.5780  -17.3610 C.ar      1 QPC        -0.0435
     20 C17        19.7000   16.7060  -18.6780 C.3       1 QPC         0.0654
     21 C18        19.9260   15.7660  -19.8280 C.2       1 QPC         0.1858
     22 N4         21.1160   15.9760  -20.4980 N.am      1 QPC        -0.2850
     23 O1         19.1000   14.9080  -20.1150 O.2       1 QPC        -0.3945
     24 C19        26.9660   18.1420  -14.2570 C.2       1 QPC         0.2074
     25 O2         26.0250   18.1470  -13.4760 O.2       1 QPC        -0.3878
     26 N5         28.2290   17.7600  -13.9060 N.am      1 QPC        -0.3007
     27 C20        21.4120   15.3270  -21.7630 C.3       1 QPC         0.0359
     28 C21        21.8780   16.2590  -22.8780 C.3       1 QPC        -0.0176
     29 C22        20.8670   17.3420  -23.1700 C.3       1 QPC        -0.0582
     30 C23        23.1930   16.9150  -22.5360 C.3       1 QPC        -0.0582
     31 C24        22.0810   15.4450  -24.1300 C.3       1 QPC        -0.0582
     32 H1         28.8421   19.1238  -15.8618 H         1 QPC         0.0936
     33 H2         28.3222   20.9533  -19.6669 H         1 QPC         0.0664
     34 H3         28.1134   21.7513  -21.9665 H         1 QPC         0.0629
     35 H4         26.0967   21.2066  -23.2960 H         1 QPC         0.0651
     36 H5         24.3176   19.8358  -22.2607 H         1 QPC         0.0629
     37 H6         24.5531   19.0293  -19.9611 H         1 QPC         0.0664
     38 H7         24.3911   17.9648  -14.7018 H         1 QPC         0.2167
     39 H8         23.0318   15.7977  -15.5642 H         1 QPC         0.0523
     40 H9         21.0112   15.1696  -16.7998 H         1 QPC         0.0534
     41 H10        21.1005   18.9333  -18.7719 H         1 QPC         0.0534
     42 H11        23.0948   19.5537  -17.5202 H         1 QPC         0.0523
     43 H12        19.3066   17.6519  -19.0786 H         1 QPC         0.0639
     44 H13        18.9555   16.2547  -18.0056 H         1 QPC         0.0639
     45 H14        21.7941   16.5937  -20.0997 H         1 QPC         0.1852
     46 H15        28.4171   17.4515  -12.9735 H         1 QPC         0.1805
     47 H16        28.9659   17.7887  -14.5814 H         1 QPC         0.1805
     48 H17        20.4997   14.8165  -22.1053 H         1 QPC         0.0525
     49 H18        22.2040   14.5841  -21.5873 H         1 QPC         0.0525
     50 H19        21.2439   17.9874  -23.9771 H         1 QPC         0.0236
     51 H20        20.7036   17.9449  -22.2646 H         1 QPC         0.0236
     52 H21        19.9171   16.8827  -23.4811 H         1 QPC         0.0236
     53 H22        23.9437   16.1406  -22.3197 H         1 QPC         0.0236
     54 H23        23.0636   17.5571  -21.6523 H         1 QPC         0.0236
     55 H24        23.5305   17.5254  -23.3866 H         1 QPC         0.0236
     56 H25        21.1362   14.9533  -24.4048 H         1 QPC         0.0236
     57 H26        22.8527   14.6820  -23.9502 H         1 QPC         0.0236
     58 H27        22.4022   16.1056  -24.9488 H         1 QPC         0.0236
@<TRIPOS>BOND
     1    1    2 ar 
     2    1    6 ar 
     3    2    3 ar 
     4    3    4 ar 
     5    3    7 1  
     6    4    5 ar 
     7    5    6 ar 
     8    5   13 1  
     9    6   24 1  
    10    7    8 ar 
    11    7   12 ar 
    12    8    9 ar 
    13    9   10 ar 
    14   10   11 ar 
    15   11   12 ar 
    16   13   14 1  
    17   14   15 ar 
    18   14   19 ar 
    19   15   16 ar 
    20   16   17 ar 
    21   17   18 ar 
    22   17   20 1  
    23   18   19 ar 
    24   20   21 1  
    25   21   22 am 
    26   21   23 2  
    27   22   27 1  
    28   24   25 2  
    29   24   26 am 
    30   27   28 1  
    31   28   29 1  
    32   28   30 1  
    33   28   31 1  
    34    1   32 1  
    35    8   33 1  
    36    9   34 1  
    37   10   35 1  
    38   11   36 1  
    39   12   37 1  
    40   13   38 1  
    41   15   39 1  
    42   16   40 1  
    43   18   41 1  
    44   19   42 1  
    45   20   43 1  
    46   20   44 1  
    47   22   45 1  
    48   26   46 1  
    49   26   47 1  
    50   27   48 1  
    51   27   49 1  
    52   29   50 1  
    53   29   51 1  
    54   29   52 1  
    55   30   53 1  
    56   30   54 1  
    57   30   55 1  
    58   31   56 1  
    59   31   57 1  
    60   31   58 1  
@<TRIPOS>SUBSTRUCTURE
     1 QPC         1

