### 
### Created by X-TOOL on Mon Sep 10 21:13:17 2018
### 

@<TRIPOS>MOLECULE
3we4_ligand
   50    53     1     0     0
SMALL
GAST_HUCK


@<TRIPOS>ATOM
      1 C4        -14.4280   10.1030  -14.4140 C.ar      1 5FI         0.1354
      2 C5        -14.1710    8.8990  -13.6940 C.ar      1 5FI         0.0273
      3 C6        -14.4000    7.7260  -14.3850 C.ar      1 5FI         0.0149
      4 N1        -14.8110    7.6930  -15.6470 N.ar      1 5FI        -0.2915
      5 N3        -14.8550   10.0730  -15.6910 N.ar      1 5FI        -0.2586
      6 FAB        -6.5540   15.7550   -9.5750 F         1 5FI        -0.2331
      7 CBB        -7.5750   16.4120   -9.1030 C.3       1 5FI         0.3606
      8 FAC        -7.1320   17.6530   -8.8700 F         1 5FI        -0.2331
      9 FAD        -7.7720   15.9270   -7.8740 F         1 5FI        -0.2331
     10 CAU        -8.7790   16.3980  -10.0280 C.ar      1 5FI         0.0263
     11 CAE        -8.6520   17.1360  -11.2120 C.ar      1 5FI        -0.0521
     12 CAF        -9.6740   17.2310  -12.1190 C.ar      1 5FI        -0.0386
     13 CAI        -9.9320   15.7370   -9.6760 C.ar      1 5FI        -0.0087
     14 CAX       -10.9860   15.8260  -10.5990 C.ar      1 5FI         0.1125
     15 CAY       -10.8510   16.5700  -11.7960 C.ar      1 5FI         0.0540
     16 NAS       -12.0500   16.4460  -12.4490 N.2       1 5FI        -0.2841
     17 NAR       -12.2530   15.2630  -10.5310 N.pl3     1 5FI        -0.2279
     18 CAV       -12.8760   15.6490  -11.6250 C.2       1 5FI         0.1845
     19 CAO       -14.2550   15.3280  -12.0720 C.3       1 5FI         0.0572
     20 NAZ       -14.5450   14.1520  -12.8890 N.4       1 5FI         0.2593
     21 CAL       -14.4200   13.0090  -11.9580 C.3       1 5FI        -0.0085
     22 CAN       -14.9630   11.7490  -12.6220 C.3       1 5FI         0.0713
     23 CAK       -13.7000   13.8510  -14.0630 C.3       1 5FI        -0.0085
     24 CAM       -14.1990   12.5330  -14.7180 C.3       1 5FI         0.0713
     25 NBA       -14.2590   11.3870  -13.8570 N.pl3     1 5FI        -0.2790
     26 CAJ       -13.6960    8.8050  -12.2830 C.3       1 5FI        -0.0144
     27 CAA       -12.2930    9.3450  -12.0570 C.3       1 5FI        -0.0554
     28 C2        -15.0260    8.8770  -16.2350 C.ar      1 5FI         0.0645
     29 H         -14.2361    6.7853  -13.8718 H         1 5FI         0.0812
     30 H          -7.7179   17.6466  -11.4163 H         1 5FI         0.0701
     31 H          -9.5692   17.7926  -13.0402 H         1 5FI         0.0618
     32 H         -10.0212   15.1841   -8.7479 H         1 5FI         0.0813
     33 H         -12.6283   14.6665   -9.7799 H         1 5FI         0.2364
     34 H         -14.6034   16.1979  -12.6481 H         1 5FI         0.1122
     35 H         -14.8600   15.2266  -11.1590 H         1 5FI         0.1122
     36 H         -15.4946   14.2334  -13.2173 H         1 5FI         0.2060
     37 H         -14.9939   13.2173  -11.0430 H         1 5FI         0.0835
     38 H         -13.3609   12.8601  -11.7007 H         1 5FI         0.0835
     39 H         -16.0242   11.9116  -12.8614 H         1 5FI         0.0576
     40 H         -14.8711   10.9141  -11.9117 H         1 5FI         0.0576
     41 H         -12.6540   13.7318  -13.7442 H         1 5FI         0.0835
     42 H         -13.7705   14.6740  -14.7894 H         1 5FI         0.0835
     43 H         -13.5214   12.2933  -15.5507 H         1 5FI         0.0576
     44 H         -15.2111   12.7136  -15.1091 H         1 5FI         0.0576
     45 H         -13.7096    7.7463  -11.9849 H         1 5FI         0.0422
     46 H         -14.3904    9.3739  -11.6473 H         1 5FI         0.0422
     47 H         -12.0251    9.2369  -10.9956 H         1 5FI         0.0251
     48 H         -12.2598   10.4082  -12.3371 H         1 5FI         0.0251
     49 H         -11.5789    8.7806  -12.6747 H         1 5FI         0.0251
     50 H         -15.3757    8.8545  -17.2608 H         1 5FI         0.1021
@<TRIPOS>BOND
     1    1    2 ar 
     2    1    5 ar 
     3   25    1 1  
     4    2    3 ar 
     5    2   26 1  
     6    3    4 ar 
     7   28    4 ar 
     8    5   28 ar 
     9    7    6 1  
    10    7    8 1  
    11    7    9 1  
    12   10    7 1  
    13   10   11 ar 
    14   13   10 ar 
    15   12   11 ar 
    16   15   12 ar 
    17   14   13 ar 
    18   14   15 ar 
    19   17   14 1  
    20   16   15 1  
    21   18   16 2  
    22   18   17 1  
    23   19   18 1  
    24   20   19 1  
    25   21   20 1  
    26   20   23 1  
    27   22   21 1  
    28   22   25 1  
    29   23   24 1  
    30   24   25 1  
    31   26   27 1  
    32    3   29 1  
    33   11   30 1  
    34   12   31 1  
    35   13   32 1  
    36   17   33 1  
    37   19   34 1  
    38   19   35 1  
    39   20   36 1  
    40   21   37 1  
    41   21   38 1  
    42   22   39 1  
    43   22   40 1  
    44   23   41 1  
    45   23   42 1  
    46   24   43 1  
    47   24   44 1  
    48   26   45 1  
    49   26   46 1  
    50   27   47 1  
    51   27   48 1  
    52   27   49 1  
    53   28   50 1  
@<TRIPOS>SUBSTRUCTURE
     1 5FI         1

