### 
### Created by X-TOOL on Mon Sep 10 21:13:17 2018
### 

@<TRIPOS>MOLECULE
3wf5_ligand
   41    45     1     0     0
SMALL
GAST_HUCK


@<TRIPOS>ATOM
      1 N01       -13.1510    7.1800  -14.8580 N.ar      1 FZ8        -0.2790
      2 C02       -13.4170    8.3490  -15.4210 C.ar      1 FZ8         0.0726
      3 N03       -13.4410    9.5790  -14.8610 N.ar      1 FZ8        -0.2496
      4 C04       -13.1640    9.6770  -13.5500 C.ar      1 FZ8         0.1475
      5 N05       -13.2170   10.9450  -12.9280 N.pl3     1 FZ8        -0.2853
      6 C06       -13.0560   12.1910  -13.7480 C.3       1 FZ8         0.0352
      7 C07       -12.0490   13.1250  -13.0700 C.3       1 FZ8        -0.0115
      8 C08       -12.1570   13.3600  -11.5430 C.3       1 FZ8         0.0450
      9 C09       -11.0440   14.1540  -11.0110 C.2       1 FZ8         0.1238
     10 N10       -10.8190   15.4340  -11.5810 N.pl3     1 FZ8        -0.2462
     11 C11        -9.6880   15.9640  -10.9210 C.ar      1 FZ8         0.0783
     12 C12        -9.0210   17.1960  -11.0570 C.ar      1 FZ8        -0.0422
     13 C13        -7.9260   17.3810  -10.2380 C.ar      1 FZ8        -0.0766
     14 C14        -7.5010   16.4070   -9.3180 C.ar      1 FZ8        -0.0786
     15 C15        -8.1630   15.2130   -9.1790 C.ar      1 FZ8        -0.0656
     16 C16        -9.2840   14.9780   -9.9940 C.ar      1 FZ8         0.0207
     17 N17       -10.1440   13.8650  -10.0770 N.2       1 FZ8        -0.3179
     18 C18       -12.5060   12.0390  -10.8840 C.3       1 FZ8        -0.0115
     19 C19       -13.5360   11.1140  -11.4980 C.3       1 FZ8         0.0352
     20 C20       -12.8730    8.5180  -12.8120 C.ar      1 FZ8         0.1025
     21 C21       -12.5200    8.1550  -11.4620 C.2       1 FZ8         0.1164
     22 N22       -12.3430    6.8160  -11.3730 N.pl3     1 FZ8        -0.2423
     23 N23       -12.5570    6.2930  -12.6130 N.2       1 FZ8        -0.3132
     24 C24       -12.8820    7.2910  -13.5180 C.ar      1 FZ8         0.0638
     25 H         -13.6479    8.3145  -16.4796 H         1 FZ8         0.1084
     26 H         -14.0271   12.7004  -13.8346 H         1 FZ8         0.0527
     27 H         -12.6908   11.9248  -14.7509 H         1 FZ8         0.0527
     28 H         -12.1426   14.1077  -13.5553 H         1 FZ8         0.0319
     29 H         -11.0470   12.7145  -13.2634 H         1 FZ8         0.0319
     30 H         -13.0402   13.9975  -11.3897 H         1 FZ8         0.0569
     31 H         -11.3692   15.8854  -12.3256 H         1 FZ8         0.2322
     32 H          -9.3473   17.9525  -11.7614 H         1 FZ8         0.0541
     33 H          -7.3736   18.3111  -10.3066 H         1 FZ8         0.0528
     34 H          -6.6297   16.6037   -8.7038 H         1 FZ8         0.0516
     35 H          -7.8309   14.4719   -8.4610 H         1 FZ8         0.0535
     36 H         -12.8634   12.2783   -9.8716 H         1 FZ8         0.0319
     37 H         -11.5699   11.4652  -10.8164 H         1 FZ8         0.0319
     38 H         -13.5061   10.1373  -10.9928 H         1 FZ8         0.0527
     39 H         -14.5393   11.5519  -11.3905 H         1 FZ8         0.0527
     40 H         -12.4117    8.8554  -10.6352 H         1 FZ8         0.1367
     41 H         -12.0926    6.2892  -10.5241 H         1 FZ8         0.2936
@<TRIPOS>BOND
     1    1    2 ar 
     2    1   24 ar 
     3    2    3 ar 
     4    3    4 ar 
     5    4    5 1  
     6    4   20 ar 
     7    5    6 1  
     8    5   19 1  
     9    6    7 1  
    10    7    8 1  
    11    8    9 1  
    12    8   18 1  
    13    9   10 1  
    14    9   17 2  
    15   10   11 1  
    16   11   12 ar 
    17   11   16 ar 
    18   12   13 ar 
    19   13   14 ar 
    20   14   15 ar 
    21   15   16 ar 
    22   16   17 1  
    23   18   19 1  
    24   20   21 2  
    25   20   24 ar 
    26   21   22 1  
    27   22   23 1  
    28   23   24 2  
    29    2   25 1  
    30    6   26 1  
    31    6   27 1  
    32    7   28 1  
    33    7   29 1  
    34    8   30 1  
    35   10   31 1  
    36   12   32 1  
    37   13   33 1  
    38   14   34 1  
    39   15   35 1  
    40   18   36 1  
    41   18   37 1  
    42   19   38 1  
    43   19   39 1  
    44   21   40 1  
    45   22   41 1  
@<TRIPOS>SUBSTRUCTURE
     1 FZ8         1

