### 
### Created by X-TOOL on Mon Sep 10 21:13:18 2018
### 

@<TRIPOS>MOLECULE
3wf6_ligand
   40    44     1     0     0
SMALL
GAST_HUCK


@<TRIPOS>ATOM
      1 N01         7.2240  -13.3080   15.0940 N.ar      1 FZ9        -0.2790
      2 C02         8.4280  -13.4240   15.6520 C.ar      1 FZ9         0.0726
      3 N03         9.6410  -13.2620   15.1040 N.ar      1 FZ9        -0.2495
      4 C04         9.7020  -12.9480   13.8060 C.ar      1 FZ9         0.1492
      5 N05        10.9700  -12.7780   13.2230 N.pl3     1 FZ9        -0.2775
      6 C06        11.1550  -12.3820   11.7720 C.3       1 FZ9         0.0449
      7 C07        12.3560  -11.5960   11.4690 C.2       1 FZ9        -0.0806
      8 C08        13.4760  -11.7070   12.1810 C.2       1 FZ9        -0.0716
      9 C09        14.6630  -10.9260   11.8970 C.2       1 FZ9        -0.0259
     10 C10        14.8490   -9.8060   11.0080 C.ar      1 FZ9        -0.0175
     11 C11        14.0300   -9.0960   10.1160 C.ar      1 FZ9        -0.0733
     12 C12        14.5500   -8.0450    9.3920 C.ar      1 FZ9        -0.0782
     13 C13        15.8970   -7.6620    9.5170 C.ar      1 FZ9        -0.0757
     14 C14        16.7430   -8.3380   10.3610 C.ar      1 FZ9        -0.0423
     15 C15        16.2060   -9.4070   11.1010 C.ar      1 FZ9         0.0660
     16 N16        16.8290  -10.2400   12.0340 N.pl3     1 FZ9        -0.2781
     17 C17        15.8810  -11.1550   12.5050 C.2       1 FZ9         0.0312
     18 C18        13.5230  -12.6770   13.3100 C.3       1 FZ9        -0.0122
     19 C19        12.1980  -12.8870   14.0330 C.3       1 FZ9         0.0406
     20 C20         8.4990  -12.7930   13.0590 C.ar      1 FZ9         0.1026
     21 C21         8.0730  -12.5000   11.7280 C.2       1 FZ9         0.1164
     22 N22         6.7310  -12.5070   11.6450 N.pl3     1 FZ9        -0.2423
     23 N23         6.2540  -12.8070   12.8840 N.2       1 FZ9        -0.3132
     24 C24         7.2840  -12.9950   13.7740 C.ar      1 FZ9         0.0638
     25 H           8.4270  -13.6881   16.7033 H         1 FZ9         0.1084
     26 H          10.2793  -11.7885   11.4706 H         1 FZ9         0.0635
     27 H          11.1964  -13.3042   11.1739 H         1 FZ9         0.0635
     28 H          12.3309  -10.8980   10.6335 H         1 FZ9         0.0372
     29 H          12.9891   -9.3743    9.9967 H         1 FZ9         0.0544
     30 H          13.9058   -7.5012    8.7106 H         1 FZ9         0.0516
     31 H          16.2717   -6.8238    8.9407 H         1 FZ9         0.0536
     32 H          17.7862   -8.0583   10.4537 H         1 FZ9         0.0547
     33 H          17.8158  -10.1892   12.3248 H         1 FZ9         0.2281
     34 H          16.0753  -11.9327   13.2421 H         1 FZ9         0.0942
     35 H          14.2578  -12.3125   14.0429 H         1 FZ9         0.0405
     36 H          13.8525  -13.6482   12.9123 H         1 FZ9         0.0405
     37 H          12.2165  -13.8945   14.4742 H         1 FZ9         0.0546
     38 H          12.1347  -12.1366   14.8348 H         1 FZ9         0.0546
     39 H           8.7435  -12.2984   10.8939 H         1 FZ9         0.1367
     40 H           6.1693  -12.3204   10.8020 H         1 FZ9         0.2936
@<TRIPOS>BOND
     1    1    2 ar 
     2    1   24 ar 
     3    2    3 ar 
     4    3    4 ar 
     5    4    5 1  
     6    4   20 ar 
     7    5    6 1  
     8    5   19 1  
     9    6    7 1  
    10    7    8 2  
    11    8    9 1  
    12    8   18 1  
    13    9   10 1  
    14    9   17 2  
    15   10   11 ar 
    16   10   15 ar 
    17   11   12 ar 
    18   12   13 ar 
    19   13   14 ar 
    20   14   15 ar 
    21   15   16 1  
    22   16   17 1  
    23   18   19 1  
    24   20   21 2  
    25   20   24 ar 
    26   21   22 1  
    27   22   23 1  
    28   23   24 2  
    29    2   25 1  
    30    6   26 1  
    31    6   27 1  
    32    7   28 1  
    33   11   29 1  
    34   12   30 1  
    35   13   31 1  
    36   14   32 1  
    37   16   33 1  
    38   17   34 1  
    39   18   35 1  
    40   18   36 1  
    41   19   37 1  
    42   19   38 1  
    43   21   39 1  
    44   22   40 1  
@<TRIPOS>SUBSTRUCTURE
     1 FZ9         1

