### 
### Created by X-TOOL on Mon Sep 10 21:13:17 2018
### 

@<TRIPOS>MOLECULE
3wf7_ligand
   45    48     1     0     0
SMALL
GAST_HUCK


@<TRIPOS>ATOM
      1 N01         7.3580  -13.5180   15.3770 N.ar      1 FS9        -0.2948
      2 C02         8.6170  -13.5240   15.8540 C.ar      1 FS9         0.0502
      3 N03         9.7850  -13.4400   15.1660 N.ar      1 FS9        -0.2689
      4 C04         9.7160  -13.3610   13.8080 C.ar      1 FS9         0.1574
      5 N05        10.9120  -13.2820   13.1090 N.pl3     1 FS9        -0.2869
      6 C06        11.1260  -13.6990   11.7610 C.3       1 FS9         0.0342
      7 C07        11.5510  -12.5400   10.8970 C.3       1 FS9        -0.0120
      8 C08        12.8390  -11.8770   11.3500 C.3       1 FS9         0.0582
      9 C09        13.1230  -10.5720   10.6400 C.2       1 FS9         0.2070
     10 O10        12.2590  -10.0670    9.9280 O.2       1 FS9        -0.3847
     11 N11        14.3970   -9.9860   10.8190 N.am      1 FS9        -0.2279
     12 C12        14.8720   -8.7580   10.2490 C.ar      1 FS9         0.0950
     13 C13        14.0270   -7.8820    9.5700 C.ar      1 FS9        -0.0124
     14 C14        14.5290   -6.7040    9.0550 C.ar      1 FS9         0.0335
     15 C15        13.5900   -5.7890    8.3350 C.3       1 FS9         0.3727
     16 F16        12.6980   -5.2260    9.1570 F         1 FS9        -0.2209
     17 F17        14.1580   -4.7550    7.6960 F         1 FS9        -0.2209
     18 F18        12.8440   -6.4070    7.4070 F         1 FS9        -0.2209
     19 C19        15.8560   -6.3530    9.1760 C.ar      1 FS9        -0.0451
     20 C20        16.6980   -7.2220    9.8490 C.ar      1 FS9        -0.0433
     21 C21        16.2220   -8.3990   10.3810 C.ar      1 FS9        -0.0112
     22 C22        12.8540  -11.6630   12.9070 C.3       1 FS9        -0.0120
     23 C23        12.0830  -12.6980   13.7590 C.3       1 FS9         0.0342
     24 C24         8.4460  -13.3580   13.1740 C.ar      1 FS9         0.1547
     25 N25         8.0150  -13.2800   11.8300 N.pl3     1 FS9        -0.2409
     26 C26         6.6730  -13.3240   11.9020 C.2       1 FS9         0.1112
     27 N27         6.2020  -13.4120   13.2200 N.2       1 FS9        -0.2857
     28 C28         7.3260  -13.4400   14.0250 C.ar      1 FS9         0.1017
     29 H           8.7110  -13.6069   16.9307 H         1 FS9         0.0974
     30 H          10.1915  -14.1207   11.3625 H         1 FS9         0.0527
     31 H          11.9123  -14.4680   11.7431 H         1 FS9         0.0527
     32 H          10.7501  -11.7861   10.9097 H         1 FS9         0.0312
     33 H          11.6928  -12.9071    9.8698 H         1 FS9         0.0312
     34 H          13.6592  -12.5667   11.1019 H         1 FS9         0.0544
     35 H          15.0367  -10.4812   11.4068 H         1 FS9         0.2259
     36 H          12.9779   -8.1253    9.4467 H         1 FS9         0.0711
     37 H          16.2291   -5.4253    8.7573 H         1 FS9         0.0741
     38 H          17.7471   -6.9719    9.9585 H         1 FS9         0.0664
     39 H          16.9004   -9.0585   10.9100 H         1 FS9         0.0759
     40 H          12.4194  -10.6734   13.1114 H         1 FS9         0.0312
     41 H          13.9038  -11.6774   13.2351 H         1 FS9         0.0312
     42 H          12.7751  -13.5143   14.0132 H         1 FS9         0.0527
     43 H          11.7488  -12.2000   14.6811 H         1 FS9         0.0527
     44 H           8.5985  -13.2060   10.9845 H         1 FS9         0.2376
     45 H           6.0214  -13.2945   11.0299 H         1 FS9         0.1402
@<TRIPOS>BOND
     1    1    2 ar 
     2    1   28 ar 
     3    2    3 ar 
     4    3    4 ar 
     5    4    5 1  
     6    4   24 ar 
     7    5    6 1  
     8    5   23 1  
     9    6    7 1  
    10    7    8 1  
    11    8    9 1  
    12    8   22 1  
    13    9   10 2  
    14    9   11 am 
    15   11   12 1  
    16   12   13 ar 
    17   12   21 ar 
    18   13   14 ar 
    19   14   15 1  
    20   14   19 ar 
    21   15   16 1  
    22   15   17 1  
    23   15   18 1  
    24   19   20 ar 
    25   20   21 ar 
    26   22   23 1  
    27   24   25 1  
    28   24   28 ar 
    29   25   26 1  
    30   26   27 2  
    31   27   28 1  
    32    2   29 1  
    33    6   30 1  
    34    6   31 1  
    35    7   32 1  
    36    7   33 1  
    37    8   34 1  
    38   11   35 1  
    39   13   36 1  
    40   19   37 1  
    41   20   38 1  
    42   21   39 1  
    43   22   40 1  
    44   22   41 1  
    45   23   42 1  
    46   23   43 1  
    47   25   44 1  
    48   26   45 1  
@<TRIPOS>SUBSTRUCTURE
     1 FS9         1

