### 
### Created by X-TOOL on Mon Sep 10 21:13:19 2018
### 

@<TRIPOS>MOLECULE
3wf8_ligand
   55    58     1     0     0
SMALL
GAST_HUCK


@<TRIPOS>ATOM
      1 N01        -3.9230   14.6280  -30.6320 N.ar      1 F76        -0.2965
      2 C02        -3.6930   15.9200  -30.1150 C.ar      1 F76         0.0374
      3 C03        -4.6980   16.5640  -29.3350 C.ar      1 F76        -0.0446
      4 C04        -4.4580   17.8460  -28.8380 C.ar      1 F76        -0.0599
      5 C05        -3.2440   18.5000  -29.1050 C.ar      1 F76        -0.0601
      6 C06        -2.2610   17.8780  -29.8710 C.ar      1 F76        -0.0508
      7 C07        -2.5040   16.5620  -30.3710 C.ar      1 F76         0.0120
      8 C08        -1.5230   15.9210  -31.1430 C.ar      1 F76         0.0836
      9 C09        -0.2650   16.6720  -31.4220 C.2       1 F76         0.2679
     10 O10        -0.2230   17.3370  -32.4460 O.2       1 F76        -0.3567
     11 O11         0.8340   16.6530  -30.5920 O.3       1 F76        -0.2559
     12 C12         1.8960   17.4410  -31.0090 C.3       1 F76         0.1700
     13 C13         2.6160   16.9950  -32.2500 C.2       1 F76         0.2343
     14 O14         2.2610   15.9500  -32.7840 O.2       1 F76        -0.3819
     15 N15         3.6780   17.8090  -32.7850 N.am      1 F76        -0.2317
     16 C16         4.4400   17.4790  -33.9660 C.ar      1 F76         0.0664
     17 C17         5.6150   18.1740  -34.1790 C.ar      1 F76        -0.0394
     18 C18         6.3870   17.9090  -35.3000 C.ar      1 F76        -0.0490
     19 C19         5.9910   16.9550  -36.2240 C.ar      1 F76         0.0924
     20 S20         7.0140   16.6320  -37.6300 S.o2      1 F76         0.0591
     21 O21         7.7950   17.7830  -37.9860 O.2       1 F76        -0.1524
     22 O22         6.2110   16.3510  -38.7740 O.2       1 F76        -0.1524
     23 N23         7.9570   15.3460  -37.3060 N.am      1 F76        -0.2626
     24 C24         4.8100   16.2540  -36.0290 C.ar      1 F76        -0.0490
     25 C25         4.0360   16.5250  -34.9000 C.ar      1 F76        -0.0394
     26 C26        -1.7330   14.6270  -31.6620 C.ar      1 F76         0.0138
     27 C27        -0.6490   13.9800  -32.5050 C.3       1 F76        -0.0096
     28 C28        -0.1310   12.6620  -32.0150 C.3       1 F76        -0.0416
     29 C29        -1.0200   11.4920  -32.2720 C.3       1 F76        -0.0489
     30 C30        -2.3150   11.5190  -31.5250 C.3       1 F76        -0.0405
     31 C31        -3.2770   12.5930  -31.9000 C.3       1 F76        -0.0010
     32 C32        -2.9450   13.9820  -31.3970 C.ar      1 F76         0.0400
     33 H          -5.6376   16.0637  -29.1304 H         1 F76         0.0626
     34 H          -5.2151   18.3412  -28.2408 H         1 F76         0.0626
     35 H          -3.0710   19.4954  -28.7123 H         1 F76         0.0624
     36 H          -1.3266   18.3843  -30.0843 H         1 F76         0.0625
     37 H           2.6300   17.4729  -30.1903 H         1 F76         0.0862
     38 H           1.5083   18.4537  -31.1936 H         1 F76         0.0862
     39 H           3.9019   18.6582  -32.3068 H         1 F76         0.2257
     40 H           5.9340   18.9279  -33.4684 H         1 F76         0.0503
     41 H           7.3109   18.4543  -35.4554 H         1 F76         0.0596
     42 H           8.6055   15.0160  -37.9920 H         1 F76         0.1633
     43 H           7.8880   14.8857  -36.4209 H         1 F76         0.1633
     44 H           4.4922   15.5047  -36.7450 H         1 F76         0.0596
     45 H           3.1077   15.9866  -34.7466 H         1 F76         0.0503
     46 H           0.2001   14.6776  -32.5537 H         1 F76         0.0448
     47 H          -1.0558   13.8264  -33.5154 H         1 F76         0.0448
     48 H           0.0225   12.7399  -30.9286 H         1 F76         0.0290
     49 H           0.8332   12.4710  -32.5088 H         1 F76         0.0290
     50 H          -0.4774   10.5791  -31.9853 H         1 F76         0.0269
     51 H          -1.2452   11.4619  -33.3483 H         1 F76         0.0269
     52 H          -2.0820   11.6374  -30.4565 H         1 F76         0.0291
     53 H          -2.8141   10.5522  -31.6865 H         1 F76         0.0291
     54 H          -4.2638   12.3165  -31.5002 H         1 F76         0.0463
     55 H          -3.3248   12.6346  -32.9982 H         1 F76         0.0463
@<TRIPOS>BOND
     1    1    2 ar 
     2    1   32 ar 
     3    2    3 ar 
     4    2    7 ar 
     5    3    4 ar 
     6    4    5 ar 
     7    5    6 ar 
     8    6    7 ar 
     9    7    8 ar 
    10    8    9 1  
    11    8   26 ar 
    12    9   10 2  
    13    9   11 1  
    14   11   12 1  
    15   12   13 1  
    16   13   14 2  
    17   13   15 am 
    18   15   16 1  
    19   16   17 ar 
    20   16   25 ar 
    21   17   18 ar 
    22   18   19 ar 
    23   19   20 1  
    24   19   24 ar 
    25   20   21 2  
    26   20   22 2  
    27   20   23 am 
    28   24   25 ar 
    29   26   27 1  
    30   26   32 ar 
    31   27   28 1  
    32   28   29 1  
    33   29   30 1  
    34   30   31 1  
    35   31   32 1  
    36    3   33 1  
    37    4   34 1  
    38    5   35 1  
    39    6   36 1  
    40   12   37 1  
    41   12   38 1  
    42   15   39 1  
    43   17   40 1  
    44   18   41 1  
    45   23   42 1  
    46   23   43 1  
    47   24   44 1  
    48   25   45 1  
    49   27   46 1  
    50   27   47 1  
    51   28   48 1  
    52   28   49 1  
    53   29   50 1  
    54   29   51 1  
    55   30   52 1  
    56   30   53 1  
    57   31   54 1  
    58   31   55 1  
@<TRIPOS>SUBSTRUCTURE
     1 F76         1

