### 
### Created by X-TOOL on Mon Sep 10 21:13:19 2018
### 

@<TRIPOS>MOLECULE
3wf9_ligand
   58    61     1     0     0
SMALL
GAST_HUCK


@<TRIPOS>ATOM
      1 N01       -28.3420  -17.5330    0.9210 N.ar      1 FS7        -0.2965
      2 C02       -28.1500  -16.2170    1.3970 C.ar      1 FS7         0.0374
      3 C03       -29.1930  -15.5740    2.1350 C.ar      1 FS7        -0.0446
      4 C04       -28.9830  -14.2710    2.5990 C.ar      1 FS7        -0.0599
      5 C05       -27.7670  -13.6080    2.3490 C.ar      1 FS7        -0.0601
      6 C06       -26.7440  -14.2380    1.6270 C.ar      1 FS7        -0.0508
      7 C07       -26.9600  -15.5690    1.1530 C.ar      1 FS7         0.0120
      8 C08       -25.9630  -16.2330    0.4180 C.ar      1 FS7         0.0836
      9 C09       -24.6730  -15.5180    0.1420 C.2       1 FS7         0.2682
     10 O10       -24.5560  -14.8840   -0.8950 O.2       1 FS7        -0.3567
     11 O11       -23.5290  -15.9100    0.8260 O.3       1 FS7        -0.2529
     12 C12       -22.4230  -15.0930    0.6410 C.3       1 FS7         0.1775
     13 C13       -21.5130  -14.9930    1.8320 C.3       1 FS7        -0.0162
     14 C14       -21.7310  -15.4350   -0.6680 C.2       1 FS7         0.2372
     15 O15       -22.0840  -16.4470   -1.2540 O.2       1 FS7        -0.3816
     16 N16       -20.6860  -14.5590   -1.1730 N.am      1 FS7        -0.2315
     17 C17       -19.9580  -14.8490   -2.4010 C.ar      1 FS7         0.0664
     18 C18       -20.3800  -15.8250   -3.3070 C.ar      1 FS7        -0.0394
     19 C19       -19.6450  -16.0910   -4.4590 C.ar      1 FS7        -0.0490
     20 C20       -18.4850  -15.3680   -4.6770 C.ar      1 FS7         0.0924
     21 S21       -17.5180  -15.6770   -6.1110 S.o2      1 FS7         0.0591
     22 O22       -16.7270  -14.5350   -6.4280 O.2       1 FS7        -0.1524
     23 O23       -18.3720  -15.8720   -7.2540 O.2       1 FS7        -0.1524
     24 N24       -16.5750  -16.9840   -5.8450 N.am      1 FS7        -0.2626
     25 C25       -18.0580  -14.4110   -3.7760 C.ar      1 FS7        -0.0490
     26 C26       -18.7960  -14.1430   -2.6230 C.ar      1 FS7        -0.0394
     27 C27       -26.1560  -17.5570   -0.0660 C.ar      1 FS7         0.0140
     28 C28       -25.0640  -18.2070   -0.8230 C.3       1 FS7        -0.0068
     29 C29       -25.4210  -19.4410   -1.5560 C.3       1 FS7        -0.0305
     30 C30       -24.1780  -20.2360   -1.8370 C.3       1 FS7        -0.0602
     31 C31       -26.4440  -20.3270   -0.9260 C.3       1 FS7        -0.0360
     32 C32       -27.6410  -19.6200   -0.2870 C.3       1 FS7        -0.0006
     33 C33       -27.3440  -18.1910    0.1940 C.ar      1 FS7         0.0400
     34 H         -30.1280  -16.0864    2.3310 H         1 FS7         0.0626
     35 H         -29.7644  -13.7672    3.1564 H         1 FS7         0.0626
     36 H         -27.6200  -12.5996    2.7187 H         1 FS7         0.0624
     37 H         -25.8084  -13.7264    1.4322 H         1 FS7         0.0625
     38 H         -22.8228  -14.0770    0.5077 H         1 FS7         0.0895
     39 H         -20.6693  -14.3285    1.5940 H         1 FS7         0.0283
     40 H         -21.1316  -15.9927    2.0871 H         1 FS7         0.0283
     41 H         -22.0716  -14.5845    2.6870 H         1 FS7         0.0283
     42 H         -20.4597  -13.7306   -0.6607 H         1 FS7         0.2258
     43 H         -21.2895  -16.3812   -3.1109 H         1 FS7         0.0503
     44 H         -19.9724  -16.8443   -5.1664 H         1 FS7         0.0596
     45 H         -15.9544  -17.3066   -6.5597 H         1 FS7         0.1633
     46 H         -16.6183  -17.4616   -4.9675 H         1 FS7         0.1633
     47 H         -17.1418  -13.8640   -3.9669 H         1 FS7         0.0596
     48 H         -18.4615  -13.3934   -1.9150 H         1 FS7         0.0503
     49 H         -24.2656  -18.4597   -0.1098 H         1 FS7         0.0451
     50 H         -24.6845  -17.4796   -1.5557 H         1 FS7         0.0451
     51 H         -25.8407  -19.1186   -2.5203 H         1 FS7         0.0324
     52 H         -24.4449  -21.1534   -2.3821 H         1 FS7         0.0234
     53 H         -23.6906  -20.5024   -0.8875 H         1 FS7         0.0234
     54 H         -23.4882  -19.6345   -2.4472 H         1 FS7         0.0234
     55 H         -25.9434  -20.9155   -0.1430 H         1 FS7         0.0295
     56 H         -26.8284  -21.0033   -1.7037 H         1 FS7         0.0295
     57 H         -27.9711  -20.2137    0.5781 H         1 FS7         0.0463
     58 H         -28.4509  -19.5728   -1.0298 H         1 FS7         0.0463
@<TRIPOS>BOND
     1    1    2 ar 
     2    1   33 ar 
     3    2    3 ar 
     4    2    7 ar 
     5    3    4 ar 
     6    4    5 ar 
     7    5    6 ar 
     8    6    7 ar 
     9    7    8 ar 
    10    8    9 1  
    11    8   27 ar 
    12    9   10 2  
    13    9   11 1  
    14   11   12 1  
    15   12   13 1  
    16   12   14 1  
    17   14   15 2  
    18   14   16 am 
    19   16   17 1  
    20   17   18 ar 
    21   17   26 ar 
    22   18   19 ar 
    23   19   20 ar 
    24   20   21 1  
    25   20   25 ar 
    26   21   22 2  
    27   21   23 2  
    28   21   24 am 
    29   25   26 ar 
    30   27   28 1  
    31   27   33 ar 
    32   28   29 1  
    33   29   30 1  
    34   29   31 1  
    35   31   32 1  
    36   32   33 1  
    37    3   34 1  
    38    4   35 1  
    39    5   36 1  
    40    6   37 1  
    41   12   38 1  
    42   13   39 1  
    43   13   40 1  
    44   13   41 1  
    45   16   42 1  
    46   18   43 1  
    47   19   44 1  
    48   24   45 1  
    49   24   46 1  
    50   25   47 1  
    51   26   48 1  
    52   28   49 1  
    53   28   50 1  
    54   29   51 1  
    55   30   52 1  
    56   30   53 1  
    57   30   54 1  
    58   31   55 1  
    59   31   56 1  
    60   32   57 1  
    61   32   58 1  
@<TRIPOS>SUBSTRUCTURE
     1 FS7         1

