### 
### Created by X-TOOL on Mon Sep 10 21:13:14 2018
### 

@<TRIPOS>MOLECULE
3wff_ligand
   36    39     1     0     0
SMALL
GAST_HUCK


@<TRIPOS>ATOM
      1 C1          4.1330    6.0110   59.4660 C.ar      1 WFF        -0.0698
      2 C2          2.7020    9.7150   58.1390 C.ar      1 WFF        -0.0641
      3 C3          4.5280    5.1990   60.5090 C.ar      1 WFF        -0.0377
      4 C4          2.2180   10.5500   59.1300 C.ar      1 WFF        -0.0367
      5 C5          3.6730    4.0730   58.1490 C.ar      1 WFF        -0.0354
      6 C6          0.8740    8.7980   60.0430 C.ar      1 WFF         0.0011
      7 C7          3.6980    5.4510   58.2730 C.ar      1 WFF        -0.0269
      8 C8          2.2490    8.4070   58.1050 C.ar      1 WFF         0.0061
      9 C9          4.0650    3.2670   59.1960 C.ar      1 WFF         0.1027
     10 C10         4.4810    3.8280   60.3740 C.ar      1 WFF         0.1235
     11 C11         1.3220   10.0920   60.0690 C.ar      1 WFF         0.1262
     12 C12         1.3440    7.9800   59.0430 C.ar      1 WFF         0.1326
     13 C13         2.6950    7.4810   57.0840 C.2       1 WFF         0.0583
     14 C14         3.2730    6.2780   57.1390 C.2       1 WFF         0.0093
     15 C15         2.5250    7.7900   55.6580 C.2       1 WFF         0.2451
     16 C16         4.1830    1.0400   60.1270 C.2       1 WFF         0.2316
     17 C17         3.5120    5.7480   55.7660 C.3       1 WFF         0.1158
     18 C18         4.1520    1.7770   61.4460 C.3       1 WFF         0.1631
     19 N19         4.0590    1.8830   59.0580 N.am      1 WFF        -0.2334
     20 O20         2.0280    8.8120   55.2280 O.2       1 WFF        -0.3724
     21 O21         4.3070   -0.1800   60.0490 O.2       1 WFF        -0.3833
     22 O22         4.9080    3.0120   61.3930 O.3       1 WFF        -0.2981
     23 O23         3.0240    6.7740   54.9110 O.3       1 WFF        -0.2652
     24 F24         0.8310   10.8630   61.0530 F         1 WFF        -0.1878
     25 F25         0.9020    6.7210   58.9970 F         1 WFF        -0.1867
     26 H1          4.1625    7.0887   59.5785 H         1 WFF         0.0518
     27 H2          3.4171   10.0752   57.4083 H         1 WFF         0.0554
     28 H3          4.8759    5.6398   61.4362 H         1 WFF         0.0520
     29 H4          2.5497   11.5813   59.1676 H         1 WFF         0.0561
     30 H5          3.3421    3.6233   57.2198 H         1 WFF         0.0496
     31 H6          0.1735    8.4317   60.7848 H         1 WFF         0.0578
     32 H7          2.9588    4.8106   55.6070 H         1 WFF         0.0822
     33 H8          4.5847    5.5742   55.5953 H         1 WFF         0.0822
     34 H9          4.5819    1.1302   62.2250 H         1 WFF         0.0862
     35 H10         3.1071    2.0103   61.6985 H         1 WFF         0.0862
     36 H11         3.9604    1.4904   58.1436 H         1 WFF         0.2223
@<TRIPOS>BOND
     1    3    1 ar 
     2    7    1 ar 
     3    2    4 ar 
     4    8    2 ar 
     5   10    3 ar 
     6    4   11 ar 
     7    5    7 ar 
     8    9    5 ar 
     9    6   11 ar 
    10   12    6 ar 
    11    7   14 1  
    12    8   12 ar 
    13   13    8 1  
    14    9   10 ar 
    15   19    9 1  
    16   10   22 1  
    17   11   24 1  
    18   12   25 1  
    19   14   13 2  
    20   13   15 1  
    21   14   17 1  
    22   15   20 2  
    23   15   23 1  
    24   16   18 1  
    25   16   19 am 
    26   16   21 2  
    27   17   23 1  
    28   18   22 1  
    29    1   26 1  
    30    2   27 1  
    31    3   28 1  
    32    4   29 1  
    33    5   30 1  
    34    6   31 1  
    35   17   32 1  
    36   17   33 1  
    37   18   34 1  
    38   18   35 1  
    39   19   36 1  
@<TRIPOS>SUBSTRUCTURE
     1 WFF         1

