### 
### Created by X-TOOL on Mon Sep 10 21:13:12 2018
### 

@<TRIPOS>MOLECULE
3wfg_ligand
   39    42     1     0     0
SMALL
GAST_HUCK


@<TRIPOS>ATOM
      1 C1          1.5810   30.8420   42.2480 C.ar      1 WFG        -0.0691
      2 C2          0.7280   33.6720   40.6850 C.ar      1 WFG        -0.0631
      3 C3          1.7030   33.1140   38.5870 C.ar      1 WFG        -0.0631
      4 C4          2.0640   30.6480   43.5240 C.ar      1 WFG        -0.0371
      5 C5          1.4630   34.8340   40.7160 C.ar      1 WFG        -0.0330
      6 C6          2.4320   34.2870   38.6260 C.ar      1 WFG        -0.0330
      7 C7         -0.5290   29.9430   42.8980 C.ar      1 WFG        -0.0347
      8 C8          0.8410   32.7900   39.6310 C.ar      1 WFG        -0.0290
      9 C9          0.2770   30.5040   41.9120 C.ar      1 WFG        -0.0250
     10 C10        -0.0380   29.7500   44.1750 C.ar      1 WFG         0.1032
     11 C11         1.2420   30.1070   44.4980 C.ar      1 WFG         0.1241
     12 C12         2.2920   35.1370   39.6850 C.ar      1 WFG         0.1275
     13 C13         0.0430   31.5530   39.5980 C.2       1 WFG         0.0581
     14 C14        -0.2420   30.6540   40.5480 C.2       1 WFG         0.0138
     15 C15        -0.7510   31.1550   38.4010 C.2       1 WFG         0.2455
     16 C16        -0.5200   29.1930   46.4870 C.2       1 WFG         0.2317
     17 C17         0.7340   29.9610   46.7970 C.3       1 WFG         0.1632
     18 C18        -1.1680   29.6060   40.0370 C.3       1 WFG         0.1246
     19 C19        -0.5990   28.2150   40.0690 C.3       1 WFG        -0.0211
     20 N20        -0.8570   29.1790   45.1770 N.am      1 WFG        -0.2333
     21 O21        -0.8170   31.7190   37.3130 O.2       1 WFG        -0.3727
     22 O22        -1.1990   28.6880   47.3840 O.2       1 WFG        -0.3833
     23 O23         1.7440   29.8890   45.7790 O.3       1 WFG        -0.2977
     24 O24        -1.4140   30.0070   38.6890 O.3       1 WFG        -0.2619
     25 F25         3.0170   36.2960   39.7420 F         1 WFG        -0.1870
     26 H1          2.2317   31.2667   41.4921 H         1 WFG         0.0522
     27 H2          0.0504   33.4463   41.5005 H         1 WFG         0.0564
     28 H3          1.8026   32.4439   37.7408 H         1 WFG         0.0564
     29 H4          3.0857   30.9185   43.7647 H         1 WFG         0.0521
     30 H5          1.3804   35.5065   41.5622 H         1 WFG         0.0593
     31 H6          3.1127   34.5315   37.8186 H         1 WFG         0.0593
     32 H7         -1.5475   29.6559   42.6629 H         1 WFG         0.0500
     33 H8          1.1584   29.5632   47.7306 H         1 WFG         0.0863
     34 H9          0.4635   31.0178   46.9382 H         1 WFG         0.0863
     35 H10        -2.1004   29.6156   40.6205 H         1 WFG         0.0860
     36 H11        -1.3426   27.5056   39.6769 H         1 WFG         0.0287
     37 H12        -0.3463   27.9459   41.1052 H         1 WFG         0.0287
     38 H13         0.3082   28.1755   39.4482 H         1 WFG         0.0287
     39 H14        -1.7181   28.7485   44.9066 H         1 WFG         0.2223
@<TRIPOS>BOND
     1    4    1 ar 
     2    9    1 ar 
     3    2    5 ar 
     4    8    2 ar 
     5    3    6 ar 
     6    8    3 ar 
     7   11    4 ar 
     8    5   12 ar 
     9    6   12 ar 
    10    7    9 ar 
    11   10    7 ar 
    12   13    8 1  
    13    9   14 1  
    14   10   11 ar 
    15   20   10 1  
    16   11   23 1  
    17   12   25 1  
    18   14   13 2  
    19   13   15 1  
    20   14   18 1  
    21   15   21 2  
    22   15   24 1  
    23   16   17 1  
    24   16   20 am 
    25   16   22 2  
    26   17   23 1  
    27   18   19 1  
    28   18   24 1  
    29    1   26 1  
    30    2   27 1  
    31    3   28 1  
    32    4   29 1  
    33    5   30 1  
    34    6   31 1  
    35    7   32 1  
    36   17   33 1  
    37   17   34 1  
    38   18   35 1  
    39   19   36 1  
    40   19   37 1  
    41   19   38 1  
    42   20   39 1  
@<TRIPOS>SUBSTRUCTURE
     1 WFG         1

