### 
### Created by X-TOOL on Mon Sep 10 21:13:18 2018
### 

@<TRIPOS>MOLECULE
3wgw_ligand
   37    38     1     0     0
SMALL
GAST_HUCK


@<TRIPOS>ATOM
      1 O4        -47.9150   -3.3860   37.6960 O.3       1 T2B        -0.3893
      2 C17       -47.3460   -3.3980   39.0310 C.3       1 T2B         0.0884
      3 C15       -46.7230   -2.0980   39.6460 C.3       1 T2B         0.0074
      4 N1        -47.3580   -0.8640   39.1700 N.4       1 T2B         0.2237
      5 C13       -46.8850   -2.1470   41.1690 C.3       1 T2B         0.0224
      6 C1        -45.9260   -3.0090   42.0040 C.ar      1 T2B        -0.0419
      7 C11       -44.5410   -2.6940   42.1360 C.ar      1 T2B        -0.0542
      8 C9        -43.7590   -3.4000   42.9830 C.ar      1 T2B         0.0381
      9 I3        -41.7430   -2.9780   43.0810 I         1 T2B        -0.0570
     10 C7        -44.3220   -4.5340   43.7440 C.ar      1 T2B         0.1288
     11 C5        -45.7610   -4.9190   43.6190 C.ar      1 T2B         0.0381
     12 I1        -46.7250   -6.5280   44.7480 I         1 T2B        -0.0570
     13 C3        -46.4880   -4.0740   42.7390 C.ar      1 T2B        -0.0542
     14 O2        -43.5080   -5.2930   44.5100 O.3       1 T2B        -0.2651
     15 C2        -43.2400   -5.0190   45.8220 C.ar      1 T2B         0.1050
     16 C12       -42.4590   -5.8930   46.6110 C.ar      1 T2B        -0.0367
     17 C10       -42.1870   -5.6090   47.9580 C.ar      1 T2B        -0.0406
     18 C8        -42.7190   -4.4470   48.4920 C.ar      1 T2B         0.0771
     19 O1        -42.5130   -4.0880   49.7820 O.3       1 T2B        -0.3398
     20 C6        -43.4870   -3.6000   47.6960 C.ar      1 T2B        -0.0406
     21 C4        -43.7370   -3.8600   46.3620 C.ar      1 T2B        -0.0367
     22 H         -47.2445   -3.1402   37.0694 H         1 T2B         0.2097
     23 H         -46.5494   -4.1565   39.0264 H         1 T2B         0.0615
     24 H         -48.1495   -3.7142   39.7124 H         1 T2B         0.0615
     25 H         -45.6541   -2.0672   39.3881 H         1 T2B         0.0894
     26 H         -46.9130   -0.0691   39.6014 H         1 T2B         0.1999
     27 H         -48.3362   -0.8742   39.4129 H         1 T2B         0.1999
     28 H         -47.2610   -0.8008   38.1687 H         1 T2B         0.1999
     29 H         -47.9024   -2.5130   41.3710 H         1 T2B         0.0462
     30 H         -46.7875   -1.1141   41.5346 H         1 T2B         0.0462
     31 H         -44.1138   -1.8850   41.5546 H         1 T2B         0.0581
     32 H         -47.5496   -4.2605   42.6240 H         1 T2B         0.0581
     33 H         -42.0627   -6.7994   46.1677 H         1 T2B         0.0527
     34 H         -41.5811   -6.2763   48.5602 H         1 T2B         0.0518
     35 H         -42.8573   -4.7622   50.3560 H         1 T2B         0.2447
     36 H         -43.9042   -2.7033   48.1398 H         1 T2B         0.0518
     37 H         -44.3108   -3.1663   45.7581 H         1 T2B         0.0527
@<TRIPOS>BOND
     1    1    2 1  
     2    2    3 1  
     3    3    4 1  
     4    3    5 1  
     5    5    6 1  
     6    6    7 ar 
     7    6   13 ar 
     8    7    8 ar 
     9    8    9 1  
    10    8   10 ar 
    11   10   11 ar 
    12   10   14 1  
    13   11   12 1  
    14   11   13 ar 
    15   14   15 1  
    16   15   16 ar 
    17   15   21 ar 
    18   16   17 ar 
    19   17   18 ar 
    20   18   19 1  
    21   18   20 ar 
    22   20   21 ar 
    23    1   22 1  
    24    2   23 1  
    25    2   24 1  
    26    3   25 1  
    27    4   26 1  
    28    4   27 1  
    29    4   28 1  
    30    5   29 1  
    31    5   30 1  
    32    7   31 1  
    33   13   32 1  
    34   16   33 1  
    35   17   34 1  
    36   19   35 1  
    37   20   36 1  
    38   21   37 1  
@<TRIPOS>SUBSTRUCTURE
     1 T2B         1

