### 
### Created by X-TOOL on Mon Sep 10 21:13:18 2018
### 

@<TRIPOS>MOLECULE
3wha_ligand
   46    49     1     0     0
SMALL
GAST_HUCK


@<TRIPOS>ATOM
      1 C4        -26.5560   22.8700  -23.6750 C.ar      1 WHA        -0.0045
      2 C14       -26.7140   22.3110  -19.9670 C.ar      1 WHA         0.0308
      3 C5        -27.8930   22.6370  -24.0380 C.ar      1 WHA        -0.0579
      4 C6        -28.8560   22.3240  -23.0650 C.ar      1 WHA        -0.0704
      5 C11       -24.4550   23.0270  -20.6330 C.ar      1 WHA        -0.0359
      6 C7        -28.4670   22.2020  -21.7230 C.ar      1 WHA        -0.0628
      7 C8        -27.1300   22.4020  -21.3210 C.ar      1 WHA        -0.0138
      8 C9        -26.1750   22.7690  -22.3160 C.ar      1 WHA         0.0053
      9 C10       -24.8480   23.0950  -21.9580 C.ar      1 WHA         0.0012
     10 C12       -25.3670   22.6010  -19.6610 C.ar      1 WHA         0.0514
     11 C3        -25.5720   23.2950  -24.6420 C.3       1 WHA         0.0878
     12 C1        -23.9160   23.4620  -22.9880 C.3       1 WHA         0.0907
     13 O2        -24.5610   24.1490  -24.1120 O.3       1 WHA        -0.3509
     14 CL1       -24.7540   22.4130  -18.0400 Cl        1 WHA        -0.0629
     15 C15       -27.5970   21.9130  -18.9150 C.ar      1 WHA         0.1058
     16 N16       -28.2150   20.7170  -19.0070 N.ar      1 WHA        -0.2485
     17 N17       -27.8440   22.7130  -17.8470 N.ar      1 WHA        -0.2396
     18 C18       -28.6850   22.3220  -16.8960 C.ar      1 WHA         0.1868
     19 N19       -28.8510   23.1000  -15.8570 N.pl3     1 WHA        -0.2997
     20 N22       -29.2720   21.1190  -16.9520 N.ar      1 WHA        -0.2226
     21 C23       -29.0710   20.3470  -18.0360 C.ar      1 WHA         0.1553
     22 S24       -29.8560   18.8180  -18.0590 S.3       1 WHA        -0.0523
     23 C25       -29.6370   18.3000  -19.8080 C.3       1 WHA         0.0171
     24 C26       -30.5730   19.0360  -20.7620 C.3       1 WHA        -0.0240
     25 C27       -32.0290   18.5880  -20.5740 C.3       1 WHA         0.0380
     26 C28       -32.9830   19.3170  -21.4780 C.2       1 WHA         0.1735
     27 O29       -33.5080   18.7340  -22.4320 O.2       1 WHA        -0.3973
     28 N30       -33.2150   20.5730  -21.1370 N.am      1 WHA        -0.3009
     29 H         -28.1844   22.6995  -25.0802 H         1 WHA         0.0521
     30 H         -29.8919   22.1778  -23.3489 H         1 WHA         0.0609
     31 H         -23.4456   23.3024  -20.3494 H         1 WHA         0.0546
     32 H         -29.2115   21.9480  -20.9772 H         1 WHA         0.0532
     33 H         -26.0912   23.8344  -25.4479 H         1 WHA         0.0745
     34 H         -25.0850   22.3992  -25.0548 H         1 WHA         0.0745
     35 H         -23.4296   22.5501  -23.3645 H         1 WHA         0.0761
     36 H         -23.1572   24.1303  -22.5550 H         1 WHA         0.0761
     37 H         -28.3942   24.0226  -15.8263 H         1 WHA         0.1861
     38 H         -29.4385   22.7897  -15.0699 H         1 WHA         0.1861
     39 H         -29.8359   17.2207  -19.8829 H         1 WHA         0.0413
     40 H         -28.5983   18.5031  -20.1077 H         1 WHA         0.0413
     41 H         -30.2652   18.8276  -21.7973 H         1 WHA         0.0300
     42 H         -30.5033   20.1167  -20.5692 H         1 WHA         0.0300
     43 H         -32.3221   18.7739  -19.5302 H         1 WHA         0.0503
     44 H         -32.0959   17.5110  -20.7874 H         1 WHA         0.0503
     45 H         -33.8378   21.1326  -21.6837 H         1 WHA         0.1814
     46 H         -32.7676   20.9634  -20.3324 H         1 WHA         0.1814
@<TRIPOS>BOND
     1    3    1 ar 
     2    1    8 ar 
     3    1   11 1  
     4    7    2 ar 
     5    2   10 ar 
     6    2   15 1  
     7    4    3 ar 
     8    6    4 ar 
     9    5    9 ar 
    10   10    5 ar 
    11    6    7 ar 
    12    7    8 ar 
    13    8    9 ar 
    14    9   12 1  
    15   10   14 1  
    16   11   13 1  
    17   12   13 1  
    18   15   16 ar 
    19   15   17 ar 
    20   16   21 ar 
    21   17   18 ar 
    22   18   19 1  
    23   18   20 ar 
    24   20   21 ar 
    25   21   22 1  
    26   22   23 1  
    27   23   24 1  
    28   24   25 1  
    29   25   26 1  
    30   26   27 2  
    31   26   28 am 
    32    3   29 1  
    33    4   30 1  
    34    5   31 1  
    35    6   32 1  
    36   11   33 1  
    37   11   34 1  
    38   12   35 1  
    39   12   36 1  
    40   19   37 1  
    41   19   38 1  
    42   23   39 1  
    43   23   40 1  
    44   24   41 1  
    45   24   42 1  
    46   25   43 1  
    47   25   44 1  
    48   28   45 1  
    49   28   46 1  
@<TRIPOS>SUBSTRUCTURE
     1 WHA         1

