### 
### Created by X-TOOL on Mon Sep 10 21:13:16 2018
### 

@<TRIPOS>MOLECULE
3wi2_ligand
   53    57     1     0     0
SMALL
GAST_HUCK


@<TRIPOS>ATOM
      1 C25        19.4890    3.5550   63.0760 C.ar      1 P98        -0.0704
      2 C15        26.3060    5.3400   53.5370 C.ar      1 P98        -0.0581
      3 C14        26.5190    4.7150   54.7490 C.ar      1 P98        -0.0585
      4 C24        20.1450    2.8200   62.1160 C.ar      1 P98        -0.0679
      5 C26        18.2310    4.0390   62.8120 C.ar      1 P98        -0.0679
      6 C16        25.0810    5.8870   53.2120 C.ar      1 P98        -0.0488
      7 C9         22.8460    6.3230   53.8190 C.ar      1 P98        -0.0375
      8 C13        25.4850    4.6430   55.6540 C.ar      1 P98        -0.0435
      9 C4         16.7280    3.5370   56.1930 C.ar      1 P98        -0.0703
     10 C23        19.5430    2.5590   60.8970 C.ar      1 P98        -0.0300
     11 C27        17.6120    3.7730   61.6140 C.ar      1 P98        -0.0300
     12 C1         17.7650    4.3660   55.8240 C.ar      1 P98        -0.0466
     13 C10        21.8380    6.2210   54.7550 C.ar      1 P98        -0.0251
     14 C3         18.9160    4.1840   57.9520 C.ar      1 P98        -0.0111
     15 C11        24.0690    5.7880   54.1400 C.ar      1 P98         0.0021
     16 C12        24.2420    5.1740   55.3730 C.ar      1 P98         0.0363
     17 C17        16.7950    3.0380   57.4830 C.ar      1 P98         0.0156
     18 C18        17.8640    3.3650   58.2990 C.ar      1 P98         0.0888
     19 C22        18.2720    3.0290   60.6600 C.ar      1 P98         0.0943
     20 C2         18.8280    4.6780   56.6650 C.ar      1 P98         0.0811
     21 C7         22.0760    5.6050   55.9610 C.ar      1 P98         0.0570
     22 C20        16.4420    2.0260   59.3270 C.2       1 P98         0.1375
     23 C29        15.7970   -0.2270   59.7750 C.3       1 P98        -0.0449
     24 C30        14.5260    1.5690   60.9180 C.3       1 P98        -0.0449
     25 C6         20.9680    5.5080   56.9440 C.3       1 P98         0.1195
     26 C28        15.8810    1.1650   60.3890 C.3       1 P98         0.0367
     27 N8         23.2580    5.0830   56.2900 N.ar      1 P98        -0.2978
     28 N21        15.9210    2.1960   58.1310 N.2       1 P98        -0.3209
     29 N19        17.6230    2.7140   59.4620 N.pl3     1 P98        -0.1918
     30 O5         19.7940    5.5310   56.1500 O.3       1 P98        -0.3085
     31 H1         19.9606    3.7505   64.0323 H         1 P98         0.0544
     32 H2         27.1198    5.4028   52.8236 H         1 P98         0.0622
     33 H3         27.4867    4.2871   54.9845 H         1 P98         0.0645
     34 H4         21.1412    2.4422   62.3156 H         1 P98         0.0595
     35 H5         17.7203    4.6379   63.5573 H         1 P98         0.0595
     36 H6         24.9214    6.3777   52.2587 H         1 P98         0.0649
     37 H7         22.6786    6.8082   52.8642 H         1 P98         0.0764
     38 H8         25.6502    4.1583   56.6094 H         1 P98         0.0623
     39 H9         15.9149    3.2921   55.5192 H         1 P98         0.0522
     40 H10        20.0674    1.9905   60.1375 H         1 P98         0.0568
     41 H11        16.6125    4.1455   61.4211 H         1 P98         0.0568
     42 H12        17.7517    4.7962   54.8291 H         1 P98         0.0466
     43 H13        20.8564    6.6272   54.5394 H         1 P98         0.0661
     44 H14        19.7338    4.4181   58.6239 H         1 P98         0.0459
     45 H15        15.3843   -0.9294   60.5141 H         1 P98         0.0263
     46 H16        16.8029   -0.5576   59.4769 H         1 P98         0.0263
     47 H17        15.1432   -0.1990   58.8909 H         1 P98         0.0263
     48 H18        14.5899    2.5740   61.3605 H         1 P98         0.0263
     49 H19        14.2028    0.8504   61.6855 H         1 P98         0.0263
     50 H20        13.7979    1.5771   60.0935 H         1 P98         0.0263
     51 H21        20.9863    6.3615   57.6376 H         1 P98         0.0821
     52 H22        21.0342    4.5701   57.5149 H         1 P98         0.0821
     53 H23        16.5813    1.1561   61.2373 H         1 P98         0.0557
@<TRIPOS>BOND
     1    4    1 ar 
     2    5    1 ar 
     3    3    2 ar 
     4    6    2 ar 
     5    8    3 ar 
     6   10    4 ar 
     7   11    5 ar 
     8   15    6 ar 
     9   13    7 ar 
    10    7   15 ar 
    11   16    8 ar 
    12   12    9 ar 
    13    9   17 ar 
    14   19   10 ar 
    15   19   11 ar 
    16   20   12 ar 
    17   21   13 ar 
    18   14   18 ar 
    19   20   14 ar 
    20   16   15 ar 
    21   27   16 ar 
    22   18   17 ar 
    23   17   28 1  
    24   18   29 1  
    25   29   19 1  
    26   30   20 1  
    27   25   21 1  
    28   21   27 ar 
    29   22   26 1  
    30   22   28 2  
    31   29   22 1  
    32   26   23 1  
    33   26   24 1  
    34   25   30 1  
    35    1   31 1  
    36    2   32 1  
    37    3   33 1  
    38    4   34 1  
    39    5   35 1  
    40    6   36 1  
    41    7   37 1  
    42    8   38 1  
    43    9   39 1  
    44   10   40 1  
    45   11   41 1  
    46   12   42 1  
    47   13   43 1  
    48   14   44 1  
    49   23   45 1  
    50   23   46 1  
    51   23   47 1  
    52   24   48 1  
    53   24   49 1  
    54   24   50 1  
    55   25   51 1  
    56   25   52 1  
    57   26   53 1  
@<TRIPOS>SUBSTRUCTURE
     1 P98         1

