### 
### Created by X-TOOL on Mon Sep 10 21:13:16 2018
### 

@<TRIPOS>MOLECULE
3wi6_ligand
   36    39     1     0     0
SMALL
GAST_HUCK


@<TRIPOS>ATOM
      1 N19       -36.1510  -16.8720  -15.3710 N.pl3     1 YRZ        -0.2924
      2 C6        -34.8540  -17.2160  -15.9080 C.3       1 YRZ         0.0816
      3 C11       -34.8750  -17.4700  -17.3970 C.3       1 YRZ        -0.0197
      4 C10       -33.5100  -17.9500  -17.8170 C.3       1 YRZ        -0.0103
      5 C9        -32.4320  -16.9660  -17.3810 C.3       1 YRZ        -0.0335
      6 N8        -32.5690  -16.4980  -16.0290 N.4       1 YRZ         0.2286
      7 C7        -33.8850  -16.0710  -15.6390 C.3       1 YRZ        -0.0097
      8 C17       -36.5520  -17.3180  -14.1720 C.2       1 YRZ         0.1054
      9 C1        -37.7120  -16.7020  -13.5200 C.2       1 YRZ         0.0655
     10 C5        -38.5630  -15.5510  -13.9600 C.2       1 YRZ        -0.0645
     11 C4        -39.4830  -15.3890  -12.7440 C.2       1 YRZ         0.0188
     12 N3        -39.1680  -16.4630  -11.8140 N.pl3     1 YRZ        -0.2453
     13 N18       -35.9750  -18.3600  -13.5280 N.2       1 YRZ        -0.2832
     14 C13       -36.4740  -18.7560  -12.3190 C.2       1 YRZ         0.1294
     15 C14       -36.0430  -19.7860  -11.4400 C.2       1 YRZ        -0.0523
     16 C15       -36.8440  -19.8120  -10.3090 C.2       1 YRZ        -0.0280
     17 N16       -37.7690  -18.8290  -10.4090 N.2       1 YRZ        -0.2246
     18 N12       -37.4930  -18.2300  -11.6660 N.pl3     1 YRZ        -0.1299
     19 C2        -38.1410  -17.2070  -12.2370 C.2       1 YRZ         0.2353
     20 H1        -36.7809  -16.2711  -15.9215 H         1 YRZ         0.1871
     21 H2        -34.4975  -18.1249  -15.4013 H         1 YRZ         0.0615
     22 H3        -35.1215  -16.5394  -17.9292 H         1 YRZ         0.0292
     23 H4        -35.6272  -18.2373  -17.6324 H         1 YRZ         0.0292
     24 H5        -33.4844  -18.0508  -18.9121 H         1 YRZ         0.0318
     25 H6        -33.3136  -18.9283  -17.3540 H         1 YRZ         0.0318
     26 H7        -32.4688  -16.0952  -18.0521 H         1 YRZ         0.0814
     27 H8        -31.4546  -17.4615  -17.4764 H         1 YRZ         0.0814
     28 H9        -31.9433  -15.7170  -15.9083 H         1 YRZ         0.2014
     29 H10       -32.2934  -17.2476  -15.4140 H         1 YRZ         0.2014
     30 H11       -33.8932  -15.8195  -14.5682 H         1 YRZ         0.0837
     31 H12       -34.1793  -15.1880  -16.2253 H         1 YRZ         0.0837
     32 H13       -38.5359  -14.9841  -14.8894 H         1 YRZ         0.0287
     33 H14       -40.2339  -14.6131  -12.6024 H         1 YRZ         0.0804
     34 H15       -39.6762  -16.6302  -10.9339 H         1 YRZ         0.2382
     35 H16       -35.2059  -20.4568  -11.6275 H         1 YRZ         0.0172
     36 H17       -36.7453  -20.5082   -9.4775 H         1 YRZ         0.0607
@<TRIPOS>BOND
     1    1    2 1  
     2    1    8 1  
     3    2    3 1  
     4    2    7 1  
     5    3    4 1  
     6    4    5 1  
     7    5    6 1  
     8    6    7 1  
     9    8    9 1  
    10    8   13 2  
    11    9   10 1  
    12    9   19 2  
    13   10   11 2  
    14   11   12 1  
    15   12   19 1  
    16   13   14 1  
    17   14   15 2  
    18   14   18 1  
    19   15   16 1  
    20   16   17 2  
    21   17   18 1  
    22   18   19 1  
    23    1   20 1  
    24    2   21 1  
    25    3   22 1  
    26    3   23 1  
    27    4   24 1  
    28    4   25 1  
    29    5   26 1  
    30    5   27 1  
    31    6   28 1  
    32    6   29 1  
    33    7   30 1  
    34    7   31 1  
    35   10   32 1  
    36   11   33 1  
    37   12   34 1  
    38   15   35 1  
    39   16   36 1  
@<TRIPOS>SUBSTRUCTURE
     1 YRZ         1

