### 
### Created by X-TOOL on Mon Sep 10 21:13:16 2018
### 

@<TRIPOS>MOLECULE
3wix_ligand
   55    59     1     0     0
SMALL
GAST_HUCK


@<TRIPOS>ATOM
      1 C1         -7.9480    9.0820  -62.6290 C.ar      1 LC3         0.0099
      2 C2         -8.5610   10.0160  -61.8110 C.ar      1 LC3        -0.0470
      3 C3         -7.7450    7.8050  -62.1510 C.ar      1 LC3        -0.0470
      4 C4         -7.4960    9.3870  -64.0110 C.2       1 LC3         0.0626
      5 C5         -8.9440    9.6720  -60.5230 C.ar      1 LC3        -0.0467
      6 C6         -8.1290    7.4610  -60.8760 C.ar      1 LC3        -0.0467
      7 O7         -7.9130   10.4420  -64.5580 O.co2     1 LC3        -0.5609
      8 O8         -6.6860    8.5680  -64.5350 O.co2     1 LC3        -0.5609
      9 C9         -8.7180    8.3900  -60.0520 C.ar      1 LC3         0.0243
     10 C10        -8.6890    8.1250  -56.3170 C.2       1 LC3        -0.0616
     11 C11        -8.4020    8.5490  -57.6640 C.2       1 LC3        -0.0203
     12 C12        -9.0440    7.9710  -58.6890 C.2       1 LC3         0.1310
     13 N13        -9.9570    6.9740  -58.4260 N.pl3     1 LC3        -0.1582
     14 C14       -10.2560    6.5370  -57.1560 C.2       1 LC3         0.1021
     15 C15        -9.5800    7.1530  -56.0700 C.2       1 LC3        -0.0298
     16 N16       -10.6730    6.3060  -59.3500 N.2       1 LC3        -0.2063
     17 C17       -11.4330    5.4470  -58.6610 C.2       1 LC3         0.0560
     18 C18       -11.2150    5.5470  -57.2560 C.2       1 LC3        -0.0160
     19 C19       -12.4000    4.5250  -59.4210 C.2       1 LC3         0.0621
     20 C20       -11.8330    4.7890  -56.1450 C.3       1 LC3        -0.0330
     21 C21       -13.2340    5.2760  -55.8220 C.3       1 LC3        -0.0207
     22 C22       -13.3100    6.4200  -54.8390 C.3       1 LC3         0.0734
     23 O23       -12.1740    6.3520  -53.9750 O.3       1 LC3        -0.3129
     24 O24       -12.0280    4.1490  -60.5540 O.co2     1 LC3        -0.5625
     25 O25       -13.5140    4.2750  -58.8890 O.co2     1 LC3        -0.5625
     26 C26       -12.0970    7.4380  -53.1170 C.ar      1 LC3         0.1043
     27 C27       -12.5250    8.6920  -53.4660 C.ar      1 LC3        -0.0340
     28 C28       -12.4220    9.7440  -52.5790 C.ar      1 LC3        -0.0744
     29 C29       -11.8600    9.5150  -51.3370 C.ar      1 LC3        -0.0685
     30 C30       -11.4160    8.2490  -50.9930 C.ar      1 LC3        -0.0261
     31 C31       -11.5230    7.2000  -51.8830 C.ar      1 LC3         0.0178
     32 C32       -10.8480    8.0260  -49.7590 C.ar      1 LC3        -0.0587
     33 C33       -10.3980    6.7590  -49.4380 C.ar      1 LC3        -0.0640
     34 C34       -10.5120    5.7050  -50.3220 C.ar      1 LC3        -0.0633
     35 C35       -11.0760    5.9310  -51.5620 C.ar      1 LC3        -0.0532
     36 H1         -8.7422   11.0196  -62.1785 H         1 LC3         0.0650
     37 H2         -7.2770    7.0630  -62.7878 H         1 LC3         0.0650
     38 H3         -9.4205   10.4074  -59.8849 H         1 LC3         0.0635
     39 H4         -7.9661    6.4506  -60.5186 H         1 LC3         0.0635
     40 H5         -8.1735    8.6021  -55.4848 H         1 LC3         0.0595
     41 H6         -7.6690    9.3331  -57.8479 H         1 LC3         0.0589
     42 H7         -9.7827    6.8396  -55.0469 H         1 LC3         0.0614
     43 H8        -11.2049    4.9003  -55.2489 H         1 LC3         0.0345
     44 H9        -11.8844    3.7271  -56.4273 H         1 LC3         0.0345
     45 H10       -13.7995    4.4304  -55.4034 H         1 LC3         0.0305
     46 H11       -13.7048    5.6031  -56.7608 H         1 LC3         0.0305
     47 H12       -14.2327    6.3387  -54.2457 H         1 LC3         0.0620
     48 H13       -13.3063    7.3766  -55.3820 H         1 LC3         0.0620
     49 H14       -12.9491    8.8594  -54.4495 H         1 LC3         0.0499
     50 H15       -12.7754   10.7320  -52.8512 H         1 LC3         0.0581
     51 H16       -11.7663   10.3303  -50.6288 H         1 LC3         0.0493
     52 H17       -10.7545    8.8367  -49.0455 H         1 LC3         0.0599
     53 H18        -9.9444    6.5890  -48.4682 H         1 LC3         0.0614
     54 H19       -10.1643    4.7157  -50.0472 H         1 LC3         0.0591
     55 H20       -11.1676    5.1215  -52.2771 H         1 LC3         0.0631
@<TRIPOS>BOND
     1    2    1 ar 
     2    3    1 ar 
     3    1    4 1  
     4    5    2 ar 
     5    6    3 ar 
     6    4    7 ar 
     7    4    8 ar 
     8    9    5 ar 
     9    9    6 ar 
    10   12    9 1  
    11   11   10 1  
    12   10   15 2  
    13   11   12 2  
    14   12   13 1  
    15   13   14 1  
    16   13   16 1  
    17   14   15 1  
    18   14   18 2  
    19   16   17 2  
    20   17   18 1  
    21   17   19 1  
    22   18   20 1  
    23   19   24 ar 
    24   19   25 ar 
    25   20   21 1  
    26   21   22 1  
    27   22   23 1  
    28   23   26 1  
    29   26   27 ar 
    30   26   31 ar 
    31   27   28 ar 
    32   28   29 ar 
    33   29   30 ar 
    34   30   31 ar 
    35   30   32 ar 
    36   31   35 ar 
    37   32   33 ar 
    38   33   34 ar 
    39   34   35 ar 
    40    2   36 1  
    41    3   37 1  
    42    5   38 1  
    43    6   39 1  
    44   10   40 1  
    45   11   41 1  
    46   15   42 1  
    47   20   43 1  
    48   20   44 1  
    49   21   45 1  
    50   21   46 1  
    51   22   47 1  
    52   22   48 1  
    53   27   49 1  
    54   28   50 1  
    55   29   51 1  
    56   32   52 1  
    57   33   53 1  
    58   34   54 1  
    59   35   55 1  
@<TRIPOS>SUBSTRUCTURE
     1 LC3         1

