### 
### Created by X-TOOL on Mon Sep 10 21:13:15 2018
### 

@<TRIPOS>MOLECULE
3wiy_ligand
  109   115     1     0     0
SMALL
GAST_HUCK


@<TRIPOS>ATOM
      1 C1        -20.9120    6.4200   16.7790 C.ar      1 LC6        -0.0687
      2 C2        -14.6830   -4.3420   22.8960 C.ar      1 LC6        -0.0640
      3 C3        -14.4100   -3.4350   23.8930 C.ar      1 LC6        -0.0633
      4 C4        -21.7520    6.9690   17.7230 C.ar      1 LC6        -0.0678
      5 C5        -21.4240    6.0550   15.5520 C.ar      1 LC6        -0.0678
      6 C6        -13.6370   -1.0630   19.6030 C.ar      1 LC6        -0.0744
      7 C7        -14.5600   -3.9840   21.5740 C.ar      1 LC6        -0.0587
      8 C8        -14.0100   -2.1550   23.5880 C.ar      1 LC6        -0.0532
      9 C9        -14.0380   -2.3350   19.9330 C.ar      1 LC6        -0.0685
     10 C10       -17.9720    6.2740   20.5820 C.ar      1 LC6        -0.0504
     11 C11       -18.4530    7.4670   20.1140 C.ar      1 LC6        -0.0480
     12 C12       -22.7610   10.3820   16.7560 C.ar      1 LC6        -0.0333
     13 C13       -13.3670   -0.1500   20.6030 C.ar      1 LC6        -0.0340
     14 C14       -23.0930    7.1420   17.4460 C.ar      1 LC6        -0.0498
     15 C15       -22.7620    6.2280   15.2720 C.ar      1 LC6        -0.0498
     16 C16       -21.9150   10.7800   17.7750 C.ar      1 LC6        -0.0409
     17 C17       -18.9580    8.1690   22.3790 C.ar      1 LC6        -0.0394
     18 C18       -23.7800   11.0300   19.2560 C.ar      1 LC6        -0.0029
     19 C19       -14.1540   -2.7070   21.2560 C.ar      1 LC6        -0.0261
     20 C20       -13.8820   -1.8010   22.2600 C.ar      1 LC6         0.0178
     21 C21       -17.9790    6.0140   21.9410 C.ar      1 LC6         0.0292
     22 C22       -18.9330    8.3990   21.0090 C.ar      1 LC6         0.0445
     23 C23       -18.4700    6.9510   22.8410 C.ar      1 LC6        -0.0268
     24 C24       -14.5360    3.6960   24.0680 C.2       1 LC6        -0.0167
     25 C25       -24.1260   10.2890   16.9600 C.ar      1 LC6         0.0839
     26 C26       -24.5950   10.6310   18.2160 C.ar      1 LC6         0.2184
     27 C27       -13.4900   -0.5290   21.9250 C.ar      1 LC6         0.1043
     28 C28       -23.6070    6.7740   16.2190 C.ar      1 LC6         0.0154
     29 C29       -22.4250   11.0930   19.0180 C.ar      1 LC6         0.1081
     30 C30       -15.6980    3.4240   23.3690 C.2       1 LC6         0.1009
     31 C31       -14.4610    5.1090   24.0970 C.2       1 LC6         0.0555
     32 C32       -16.3730    2.2390   22.9850 C.2       1 LC6        -0.0312
     33 C33       -17.5130    2.3290   22.2850 C.2       1 LC6        -0.0633
     34 C34       -18.0670    3.6080   21.9220 C.2       1 LC6        -0.0221
     35 C35       -17.4330    4.7210   22.3110 C.2       1 LC6         0.1289
     36 C36       -19.4210    9.6360   20.3790 C.2       1 LC6         0.2228
     37 C37       -13.4510    5.9560   24.7080 C.2       1 LC6         0.0620
     38 C38       -18.4980    6.6710   24.3050 C.3       1 LC6        -0.0280
     39 C39       -23.8580   11.7570   10.7650 C.3       1 LC6        -0.0433
     40 C40       -23.9210   13.4590   12.3560 C.3       1 LC6        -0.0433
     41 C41       -13.5950    2.7250   24.6650 C.3       1 LC6        -0.0332
     42 C42       -12.4320    2.3910   23.7640 C.3       1 LC6        -0.0208
     43 C43       -25.0960   10.4100   13.6460 C.3       1 LC6         0.0111
     44 C44       -23.9530   11.2070   13.0610 C.3       1 LC6        -0.0303
     45 C45       -12.8250    1.6030   22.5370 C.3       1 LC6         0.0734
     46 C46       -25.1420    8.0740   14.3990 C.3       1 LC6         0.0299
     47 C47       -24.5830    9.4590   14.7000 C.3       1 LC6         0.0528
     48 N48       -15.5100    5.6470   23.4590 N.2       1 LC6        -0.2070
     49 N49       -16.2580    4.6220   23.0130 N.pl3     1 LC6        -0.1591
     50 N50       -25.0760    9.8780   15.9960 N.pl3     1 LC6        -0.3121
     51 N51       -20.6650   10.1100   20.8580 N.am      1 LC6        -0.1547
     52 N52       -24.4430   12.1290   12.0450 N.4       1 LC6         0.2310
     53 N53       -26.0190   10.5330   18.4530 N.2       1 LC6         0.3063
     54 O54       -26.7560   10.4450   17.4670 O.2       1 LC6         0.1710
     55 O55       -18.7910   10.1640   19.4770 O.2       1 LC6        -0.3835
     56 O56       -12.6310    5.5430   25.5070 O.co2     1 LC6        -0.5625
     57 O57       -26.4090   10.5310   19.6200 O.2       1 LC6         0.1710
     58 O58       -20.3130   12.4140   19.6840 O.2       1 LC6        -0.1471
     59 O59       -22.1130   12.0970   21.4360 O.2       1 LC6        -0.1471
     60 O60       -13.4940    7.2660   24.3410 O.co2     1 LC6        -0.5625
     61 O61       -13.2390    0.3200   22.9830 O.3       1 LC6        -0.3129
     62 S62       -25.3290    7.0010   15.8610 S.3       1 LC6        -0.0994
     63 S63       -21.3170   11.5980   20.3320 S.o2      1 LC6         0.0859
     64 H1        -19.8602    6.2766   16.9985 H         1 LC6         0.0559
     65 H2        -14.9975   -5.3467   23.1542 H         1 LC6         0.0614
     66 H3        -14.5112   -3.7322   24.9306 H         1 LC6         0.0591
     67 H4        -21.3578    7.2665   18.6880 H         1 LC6         0.0600
     68 H5        -20.7685    5.6284   14.8014 H         1 LC6         0.0600
     69 H6        -13.5331   -0.7775   18.5624 H         1 LC6         0.0581
     70 H7        -14.7804   -4.6996   20.7902 H         1 LC6         0.0599
     71 H8        -13.7996   -1.4390   24.3742 H         1 LC6         0.0631
     72 H9        -14.2643   -3.0495   19.1499 H         1 LC6         0.0493
     73 H10       -17.5864    5.5345   19.8895 H         1 LC6         0.0621
     74 H11       -18.4564    7.6767   19.0505 H         1 LC6         0.0612
     75 H12       -22.3485   10.1394   15.7833 H         1 LC6         0.0533
     76 H13       -13.0601    0.8588   20.3516 H         1 LC6         0.0499
     77 H14       -23.7470    7.5698   18.1972 H         1 LC6         0.0565
     78 H15       -23.1533    5.9345   14.3046 H         1 LC6         0.0565
     79 H16       -20.8479   10.8462   17.5965 H         1 LC6         0.0647
     80 H17       -19.3449    8.9139   23.0650 H         1 LC6         0.0603
     81 H18       -24.1919   11.2848   20.2258 H         1 LC6         0.0677
     82 H19       -15.9697    1.2643   23.2558 H         1 LC6         0.0601
     83 H20       -18.0296    1.4183   21.9854 H         1 LC6         0.0592
     84 H21       -18.9860    3.6686   21.3409 H         1 LC6         0.0574
     85 H22       -18.9212    7.5365   24.8358 H         1 LC6         0.0402
     86 H23       -17.4743    6.4863   24.6627 H         1 LC6         0.0402
     87 H24       -19.1192    5.7837   24.4968 H         1 LC6         0.0402
     88 H25       -24.2173   12.4436    9.9843 H         1 LC6         0.0777
     89 H26       -24.1529   10.7279   10.5123 H         1 LC6         0.0777
     90 H27       -22.7617   11.8186   10.8311 H         1 LC6         0.0777
     91 H28       -24.3301   13.7973   13.3194 H         1 LC6         0.0777
     92 H29       -24.2167   14.1633   11.5645 H         1 LC6         0.0777
     93 H30       -22.8236   13.4169   12.4181 H         1 LC6         0.0777
     94 H31       -14.1435    1.7974   24.8857 H         1 LC6         0.0344
     95 H32       -13.2015    3.1497   25.6003 H         1 LC6         0.0344
     96 H33       -11.7050    1.7990   24.3394 H         1 LC6         0.0305
     97 H34       -11.9633    3.3312   23.4381 H         1 LC6         0.0305
     98 H35       -25.5854    9.8356   12.8457 H         1 LC6         0.0339
     99 H36       -25.8235   11.0983   14.1009 H         1 LC6         0.0339
    100 H37       -23.2270   10.5179   12.6049 H         1 LC6         0.0815
    101 H38       -23.4624   11.7787   13.8625 H         1 LC6         0.0815
    102 H39       -11.9650    1.5075   21.8578 H         1 LC6         0.0620
    103 H40       -13.6515    2.1059   22.0137 H         1 LC6         0.0620
    104 H41       -24.4630    7.5756   13.6915 H         1 LC6         0.0424
    105 H42       -26.1312    8.1963   13.9337 H         1 LC6         0.0424
    106 H43       -23.4832    9.4404   14.6971 H         1 LC6         0.0564
    107 H44       -26.0839    9.8767   16.2083 H         1 LC6         0.1792
    108 H45       -21.1745    9.5606   21.5203 H         1 LC6         0.2136
    109 H46       -25.4502   12.1250   12.0062 H         1 LC6         0.2028
@<TRIPOS>BOND
     1    4    1 ar 
     2    5    1 ar 
     3    3    2 ar 
     4    7    2 ar 
     5    8    3 ar 
     6   14    4 ar 
     7   15    5 ar 
     8    6    9 ar 
     9   13    6 ar 
    10   19    7 ar 
    11   20    8 ar 
    12   19    9 ar 
    13   11   10 ar 
    14   10   21 ar 
    15   22   11 ar 
    16   16   12 ar 
    17   12   25 ar 
    18   27   13 ar 
    19   28   14 ar 
    20   28   15 ar 
    21   29   16 ar 
    22   22   17 ar 
    23   17   23 ar 
    24   18   26 ar 
    25   29   18 ar 
    26   20   19 ar 
    27   27   20 ar 
    28   23   21 ar 
    29   21   35 1  
    30   36   22 1  
    31   23   38 1  
    32   30   24 2  
    33   31   24 1  
    34   24   41 1  
    35   26   25 ar 
    36   25   50 1  
    37   26   53 1  
    38   61   27 1  
    39   62   28 1  
    40   63   29 1  
    41   30   32 1  
    42   49   30 1  
    43   31   37 1  
    44   48   31 2  
    45   33   32 2  
    46   34   33 1  
    47   35   34 2  
    48   35   49 1  
    49   51   36 am 
    50   36   55 2  
    51   37   56 ar 
    52   37   60 ar 
    53   52   39 1  
    54   52   40 1  
    55   41   42 1  
    56   42   45 1  
    57   43   44 1  
    58   47   43 1  
    59   44   52 1  
    60   45   61 1  
    61   47   46 1  
    62   46   62 1  
    63   50   47 1  
    64   49   48 1  
    65   51   63 am 
    66   53   54 2  
    67   53   57 2  
    68   63   58 2  
    69   63   59 2  
    70    1   64 1  
    71    2   65 1  
    72    3   66 1  
    73    4   67 1  
    74    5   68 1  
    75    6   69 1  
    76    7   70 1  
    77    8   71 1  
    78    9   72 1  
    79   10   73 1  
    80   11   74 1  
    81   12   75 1  
    82   13   76 1  
    83   14   77 1  
    84   15   78 1  
    85   16   79 1  
    86   17   80 1  
    87   18   81 1  
    88   32   82 1  
    89   33   83 1  
    90   34   84 1  
    91   38   85 1  
    92   38   86 1  
    93   38   87 1  
    94   39   88 1  
    95   39   89 1  
    96   39   90 1  
    97   40   91 1  
    98   40   92 1  
    99   40   93 1  
   100   41   94 1  
   101   41   95 1  
   102   42   96 1  
   103   42   97 1  
   104   43   98 1  
   105   43   99 1  
   106   44  100 1  
   107   44  101 1  
   108   45  102 1  
   109   45  103 1  
   110   46  104 1  
   111   46  105 1  
   112   47  106 1  
   113   50  107 1  
   114   51  108 1  
   115   52  109 1  
@<TRIPOS>SUBSTRUCTURE
     1 LC6         1

