### 
### Created by X-TOOL on Mon Sep 10 21:13:14 2018
### 

@<TRIPOS>MOLECULE
3wiz_ligand
  109   115     1     0     0
SMALL
GAST_HUCK


@<TRIPOS>ATOM
      1 C1         34.2320   10.6560  -45.5370 C.ar      1 LC6        -0.0687
      2 C2         46.4070   15.0630  -41.7730 C.ar      1 LC6        -0.0640
      3 C3         45.3430   15.4540  -42.5530 C.ar      1 LC6        -0.0633
      4 C4         34.2080    9.6830  -46.5210 C.ar      1 LC6        -0.0678
      5 C5         33.4140   10.5400  -44.4300 C.ar      1 LC6        -0.0678
      6 C6         49.3610   15.5030  -45.5210 C.ar      1 LC6        -0.0744
      7 C7         47.6690   14.9800  -42.3240 C.ar      1 LC6        -0.0587
      8 C8         45.5510   15.7580  -43.8810 C.ar      1 LC6        -0.0532
      9 C9         49.1440   15.1990  -44.1940 C.ar      1 LC6        -0.0685
     10 C10        37.8220   10.5670  -49.0750 C.ar      1 LC6        -0.0504
     11 C11        36.5070   10.7690  -49.4360 C.ar      1 LC6        -0.0480
     12 C12        30.3640   10.0300  -47.9590 C.ar      1 LC6        -0.0333
     13 C13        48.3050   15.8960  -46.3120 C.ar      1 LC6        -0.0340
     14 C14        33.3650    8.5960  -46.3950 C.ar      1 LC6        -0.0498
     15 C15        32.5650    9.4550  -44.3130 C.ar      1 LC6        -0.0498
     16 C16        30.9980   10.9670  -48.7520 C.ar      1 LC6        -0.0409
     17 C17        36.3450   12.5830  -47.8600 C.ar      1 LC6        -0.0394
     18 C18        30.9870   12.5040  -46.9130 C.ar      1 LC6        -0.0029
     19 C19        47.8780   15.2850  -43.6520 C.ar      1 LC6        -0.0261
     20 C20        46.8130   15.6760  -44.4390 C.ar      1 LC6         0.0178
     21 C21        38.3990   11.3670  -48.1080 C.ar      1 LC6         0.0292
     22 C22        35.7840   11.7730  -48.8270 C.ar      1 LC6         0.0445
     23 C23        37.6650   12.3710  -47.5050 C.ar      1 LC6        -0.0268
     24 C24        42.7160   13.1220  -47.9860 C.2       1 LC6        -0.0167
     25 C25        30.0350   10.2990  -46.6420 C.ar      1 LC6         0.0839
     26 C26        30.3570   11.5530  -46.1430 C.ar      1 LC6         0.2184
     27 C27        47.0380   15.9770  -45.7690 C.ar      1 LC6         0.1043
     28 C28        32.5400    8.4790  -45.2940 C.ar      1 LC6         0.0154
     29 C29        31.3060   12.1950  -48.2140 C.ar      1 LC6         0.1081
     30 C30        42.0430   11.9960  -47.5760 C.2       1 LC6         0.1009
     31 C31        41.7250   13.9060  -48.6300 C.2       1 LC6         0.0555
     32 C32        42.4220   10.8140  -46.8840 C.2       1 LC6        -0.0312
     33 C33        41.5020    9.8730  -46.6300 C.2       1 LC6        -0.0633
     34 C34        40.1340   10.0570  -47.0470 C.2       1 LC6        -0.0221
     35 C35        39.7860   11.1730  -47.7040 C.2       1 LC6         0.1289
     36 C36        34.3880   11.9400  -49.2370 C.2       1 LC6         0.2228
     37 C37        41.8430   15.1970  -49.2540 C.2       1 LC6         0.0620
     38 C38        38.3110   13.2240  -46.4670 C.3       1 LC6        -0.0280
     39 C39        26.0100    4.6270  -45.5260 C.3       1 LC6        -0.0433
     40 C40        25.1650    6.5610  -44.4860 C.3       1 LC6        -0.0433
     41 C41        44.1470   13.4060  -47.7870 C.3       1 LC6        -0.0332
     42 C42        44.3880   14.6410  -46.9570 C.3       1 LC6        -0.0208
     43 C43        28.2330    7.3450  -45.3990 C.3       1 LC6         0.0111
     44 C44        26.9850    6.7270  -45.9860 C.3       1 LC6        -0.0303
     45 C45        45.6820   15.2660  -47.4130 C.3       1 LC6         0.0734
     46 C46        30.3960    7.2220  -46.6190 C.3       1 LC6         0.0299
     47 C47        29.1190    8.0420  -46.4060 C.3       1 LC6         0.0528
     48 N48        40.5390   13.2940  -48.6100 N.2       1 LC6        -0.2070
     49 N49        40.7350   12.1320  -47.9680 N.pl3     1 LC6        -0.1591
     50 N50        29.3950    9.3490  -45.8180 N.pl3     1 LC6        -0.3121
     51 N51        33.7870   13.1720  -48.8790 N.am      1 LC6        -0.1547
     52 N52        26.3800    5.9070  -44.9430 N.4       1 LC6         0.2310
     53 N53        30.0700   11.9520  -44.7810 N.2       1 LC6         0.3063
     54 O54        29.4100   11.2120  -44.0500 O.2       1 LC6         0.1710
     55 O55        33.8050   11.0430  -49.8210 O.2       1 LC6        -0.3835
     56 O56        42.8450   15.5970  -49.8250 O.co2     1 LC6        -0.5625
     57 O57        30.5310   13.0390  -44.4250 O.2       1 LC6         0.1710
     58 O58        31.7420   14.7010  -48.6230 O.2       1 LC6        -0.1471
     59 O59        31.8560   13.0630  -50.5770 O.2       1 LC6        -0.1471
     60 O60        40.7080   15.9330  -49.1260 O.co2     1 LC6        -0.5625
     61 O61        45.9830   16.3760  -46.5740 O.3       1 LC6        -0.3129
     62 S62        31.4520    7.0970  -45.1260 S.3       1 LC6        -0.0994
     63 S63        32.1240   13.4250  -49.1980 S.o2      1 LC6         0.0859
     64 H1         34.8930   11.5095  -45.6351 H         1 LC6         0.0559
     65 H2         46.2539   14.8207  -40.7276 H         1 LC6         0.0614
     66 H3         44.3489   15.5224  -42.1262 H         1 LC6         0.0591
     67 H4         34.8501    9.7739  -47.3897 H         1 LC6         0.0600
     68 H5         33.4376   11.2976  -43.6551 H         1 LC6         0.0600
     69 H6         50.3584   15.4329  -45.9397 H         1 LC6         0.0581
     70 H7         48.5048   14.6718  -41.7064 H         1 LC6         0.0599
     71 H8         44.7134   16.0657  -44.4965 H         1 LC6         0.0631
     72 H9         49.9753   14.8897  -43.5708 H         1 LC6         0.0493
     73 H10        38.4015    9.7828  -49.5485 H         1 LC6         0.0621
     74 H11        36.0454   10.1441  -50.1919 H         1 LC6         0.0612
     75 H12        30.1184    9.0611  -48.3784 H         1 LC6         0.0533
     76 H13        48.4673   16.1406  -47.3555 H         1 LC6         0.0499
     77 H14        33.3511    7.8317  -47.1636 H         1 LC6         0.0565
     78 H15        31.9160    9.3684  -43.4490 H         1 LC6         0.0565
     79 H16        31.2487   10.7382  -49.7815 H         1 LC6         0.0647
     80 H17        35.7639   13.3678  -47.3893 H         1 LC6         0.0603
     81 H18        31.2270   13.4778  -46.5016 H         1 LC6         0.0677
     82 H19        43.4529   10.6738  -46.5623 H         1 LC6         0.0601
     83 H20        41.7896    8.9632  -46.1051 H         1 LC6         0.0592
     84 H21        39.3878    9.2942  -46.8297 H         1 LC6         0.0574
     85 H22        37.5862   13.9647  -46.0980 H         1 LC6         0.0402
     86 H23        39.1755   13.7439  -46.9056 H         1 LC6         0.0402
     87 H24        38.6479   12.5929  -45.6314 H         1 LC6         0.0402
     88 H25        25.5507    3.9917  -44.7543 H         1 LC6         0.0777
     89 H26        26.9084    4.1311  -45.9222 H         1 LC6         0.0777
     90 H27        25.2910    4.7900  -46.3423 H         1 LC6         0.0777
     91 H28        25.4180    7.5340  -44.0396 H         1 LC6         0.0777
     92 H29        24.6698    5.9300  -43.7333 H         1 LC6         0.0777
     93 H30        24.4878    6.7140  -45.3392 H         1 LC6         0.0777
     94 H31        44.6175   13.5469  -48.7713 H         1 LC6         0.0344
     95 H32        44.6086   12.5461  -47.2796 H         1 LC6         0.0344
     96 H33        44.4602   14.3677  -45.8940 H         1 LC6         0.0305
     97 H34        43.5606   15.3521  -47.0975 H         1 LC6         0.0305
     98 H35        28.8191    6.5470  -44.9197 H         1 LC6         0.0339
     99 H36        27.9281    8.0818  -44.6413 H         1 LC6         0.0339
    100 H37        27.2455    6.1024  -46.8532 H         1 LC6         0.0815
    101 H38        26.2850    7.5157  -46.2992 H         1 LC6         0.0815
    102 H39        45.5797   15.6076  -48.4536 H         1 LC6         0.0620
    103 H40        46.4922   14.5248  -47.3483 H         1 LC6         0.0620
    104 H41        30.9826    7.6954  -47.4201 H         1 LC6         0.0424
    105 H42        30.1085    6.2058  -46.9265 H         1 LC6         0.0424
    106 H43        28.5984    8.1602  -47.3677 H         1 LC6         0.0564
    107 H44        29.1345    9.5679  -44.8458 H         1 LC6         0.1792
    108 H45        34.3306   13.8892  -48.4428 H         1 LC6         0.2136
    109 H46        27.0227    5.7770  -44.1774 H         1 LC6         0.2028
@<TRIPOS>BOND
     1    4    1 ar 
     2    5    1 ar 
     3    3    2 ar 
     4    7    2 ar 
     5    8    3 ar 
     6   14    4 ar 
     7   15    5 ar 
     8    6    9 ar 
     9   13    6 ar 
    10   19    7 ar 
    11   20    8 ar 
    12   19    9 ar 
    13   11   10 ar 
    14   10   21 ar 
    15   22   11 ar 
    16   16   12 ar 
    17   12   25 ar 
    18   27   13 ar 
    19   28   14 ar 
    20   28   15 ar 
    21   29   16 ar 
    22   22   17 ar 
    23   17   23 ar 
    24   18   26 ar 
    25   29   18 ar 
    26   20   19 ar 
    27   27   20 ar 
    28   23   21 ar 
    29   21   35 1  
    30   36   22 1  
    31   23   38 1  
    32   30   24 2  
    33   31   24 1  
    34   24   41 1  
    35   26   25 ar 
    36   25   50 1  
    37   26   53 1  
    38   61   27 1  
    39   62   28 1  
    40   63   29 1  
    41   30   32 1  
    42   49   30 1  
    43   31   37 1  
    44   48   31 2  
    45   33   32 2  
    46   34   33 1  
    47   35   34 2  
    48   35   49 1  
    49   51   36 am 
    50   36   55 2  
    51   37   56 ar 
    52   37   60 ar 
    53   52   39 1  
    54   52   40 1  
    55   41   42 1  
    56   42   45 1  
    57   43   44 1  
    58   47   43 1  
    59   44   52 1  
    60   45   61 1  
    61   47   46 1  
    62   46   62 1  
    63   50   47 1  
    64   49   48 1  
    65   51   63 am 
    66   53   54 2  
    67   53   57 2  
    68   63   58 2  
    69   63   59 2  
    70    1   64 1  
    71    2   65 1  
    72    3   66 1  
    73    4   67 1  
    74    5   68 1  
    75    6   69 1  
    76    7   70 1  
    77    8   71 1  
    78    9   72 1  
    79   10   73 1  
    80   11   74 1  
    81   12   75 1  
    82   13   76 1  
    83   14   77 1  
    84   15   78 1  
    85   16   79 1  
    86   17   80 1  
    87   18   81 1  
    88   32   82 1  
    89   33   83 1  
    90   34   84 1  
    91   38   85 1  
    92   38   86 1  
    93   38   87 1  
    94   39   88 1  
    95   39   89 1  
    96   39   90 1  
    97   40   91 1  
    98   40   92 1  
    99   40   93 1  
   100   41   94 1  
   101   41   95 1  
   102   42   96 1  
   103   42   97 1  
   104   43   98 1  
   105   43   99 1  
   106   44  100 1  
   107   44  101 1  
   108   45  102 1  
   109   45  103 1  
   110   46  104 1  
   111   46  105 1  
   112   47  106 1  
   113   50  107 1  
   114   51  108 1  
   115   52  109 1  
@<TRIPOS>SUBSTRUCTURE
     1 LC6         1

