### 
### Created by X-TOOL on Mon Sep 10 21:13:19 2018
### 

@<TRIPOS>MOLECULE
3wk4_ligand
   31    32     1     0     0
SMALL
GAST_HUCK


@<TRIPOS>ATOM
      1 C15       -18.1070  -12.3080   68.8770 C.ar      1 S0A        -0.0773
      2 C14       -19.2770  -11.6000   68.7810 C.ar      1 S0A        -0.0757
      3 C13       -16.9930  -11.8760   68.1840 C.ar      1 S0A        -0.0757
      4 C11       -19.3140  -10.4780   67.9910 C.ar      1 S0A        -0.0416
      5 C12       -17.0250  -10.7490   67.3850 C.ar      1 S0A        -0.0416
      6 C9        -18.2070  -10.0430   67.2900 C.ar      1 S0A         0.0665
      7 C1        -17.7200   -8.8660   65.2730 C.2       1 S0A         0.2874
      8 C4        -18.0830   -5.8910   61.3600 C.3       1 S0A        -0.0478
      9 C5        -18.7510   -5.3370   62.6120 C.3       1 S0A        -0.0478
     10 C2        -18.6090   -6.8200   62.4420 C.3       1 S0A        -0.0184
     11 C10       -16.1820   -7.0150   63.1200 C.3       1 S0A        -0.0419
     12 C7        -17.6170   -7.6050   63.2150 C.3       1 S0A         0.0429
     13 N6        -18.3090   -8.8810   66.4930 N.am      1 S0A        -0.2196
     14 N3        -18.0310   -7.7160   64.6020 N.am      1 S0A        -0.2648
     15 O8        -17.0280   -9.8000   64.8650 O.2       1 S0A        -0.3904
     16 H         -18.0565  -13.1995   69.4917 H         1 S0A         0.0486
     17 H         -20.1601  -11.9215   69.3211 H         1 S0A         0.0577
     18 H         -16.0688  -12.4361   68.2692 H         1 S0A         0.0577
     19 H         -20.2388   -9.9175   67.9154 H         1 S0A         0.0501
     20 H         -16.1419  -10.4268   66.8452 H         1 S0A         0.0501
     21 H         -16.9994   -5.7717   61.2129 H         1 S0A         0.0269
     22 H         -18.5940   -5.8298   60.3878 H         1 S0A         0.0269
     23 H         -19.7442   -4.8692   62.5431 H         1 S0A         0.0269
     24 H         -18.1496   -4.8111   63.3681 H         1 S0A         0.0269
     25 H         -19.5074   -7.4306   62.2689 H         1 S0A         0.0323
     26 H         -15.4909   -7.6350   63.7099 H         1 S0A         0.0252
     27 H         -16.1809   -5.9881   63.5143 H         1 S0A         0.0252
     28 H         -15.8587   -7.0045   62.0686 H         1 S0A         0.0252
     29 H         -17.5882   -8.6178   62.7868 H         1 S0A         0.0553
     30 H         -18.8089   -8.0809   66.8246 H         1 S0A         0.2255
     31 H         -18.5281   -6.9745   65.0526 H         1 S0A         0.1855
@<TRIPOS>BOND
     1    2    1 ar 
     2    3    1 ar 
     3    4    2 ar 
     4    5    3 ar 
     5    6    4 ar 
     6    6    5 ar 
     7   13    6 1  
     8    7   13 am 
     9   14    7 am 
    10    7   15 2  
    11    9    8 1  
    12   10    8 1  
    13   10    9 1  
    14   12   10 1  
    15   12   11 1  
    16   12   14 1  
    17    1   16 1  
    18    2   17 1  
    19    3   18 1  
    20    4   19 1  
    21    5   20 1  
    22    8   21 1  
    23    8   22 1  
    24    9   23 1  
    25    9   24 1  
    26   10   25 1  
    27   11   26 1  
    28   11   27 1  
    29   11   28 1  
    30   12   29 1  
    31   13   30 1  
    32   14   31 1  
@<TRIPOS>SUBSTRUCTURE
     1 S0A         1

