### 
### Created by X-TOOL on Mon Sep 10 21:13:18 2018
### 

@<TRIPOS>MOLECULE
3wk5_ligand
   28    29     1     0     0
SMALL
GAST_HUCK


@<TRIPOS>ATOM
      1 C7        -16.6890   -7.1060   61.4080 C.2       1 S0C        -0.0467
      2 C6        -17.5290   -6.0210   61.3370 C.2       1 S0C        -0.0079
      3 C4        -17.2760   -7.0040   63.5440 C.2       1 S0C         0.2058
      4 C1        -17.4110   -8.5460   65.3930 C.2       1 S0C         0.2153
      5 C14       -17.3490  -10.4930   69.8750 C.3       1 S0C        -0.0527
      6 C13       -17.9080  -11.5960   69.0150 C.3       1 S0C        -0.0527
      7 C11       -16.8320   -9.4150   68.9520 C.3       1 S0C        -0.0481
      8 C12       -18.1450  -11.0150   67.6510 C.3       1 S0C        -0.0481
      9 C10       -17.2270   -9.8210   67.5490 C.3       1 S0C        -0.0235
     10 C9        -17.8990   -8.6750   66.8120 C.3       1 S0C         0.0481
     11 N8        -16.5490   -7.6560   62.6570 N.2       1 S0C        -0.3233
     12 N3        -17.4010   -7.2460   64.9180 N.am      1 S0C        -0.1943
     13 O2        -17.0700   -9.5260   64.7530 O.2       1 S0C        -0.3800
     14 S5        -18.1650   -5.6810   62.8930 S.3       1 S0C         0.0111
     15 H         -16.1713   -7.5011   60.5352 H         1 S0C         0.0497
     16 H         -17.7563   -5.4619   60.4305 H         1 S0C         0.0573
     17 H         -16.5283  -10.8806   70.4964 H         1 S0C         0.0265
     18 H         -18.1387  -10.0853   70.5232 H         1 S0C         0.0265
     19 H         -18.8547  -11.9620   69.4389 H         1 S0C         0.0265
     20 H         -17.1892  -12.4263   68.9518 H         1 S0C         0.0265
     21 H         -15.7374   -9.3402   69.0314 H         1 S0C         0.0269
     22 H         -17.2854   -8.4462   69.2085 H         1 S0C         0.0269
     23 H         -19.1941  -10.7020   67.5447 H         1 S0C         0.0269
     24 H         -17.9018  -11.7530   66.8724 H         1 S0C         0.0269
     25 H         -16.3236  -10.1095   66.9917 H         1 S0C         0.0325
     26 H         -18.9847   -8.8511   66.7984 H         1 S0C         0.0513
     27 H         -17.6862   -7.7373   67.3463 H         1 S0C         0.0513
     28 H         -17.4830   -6.4799   65.5554 H         1 S0C         0.2411
@<TRIPOS>BOND
     1    2    1 2  
     2   11    1 1  
     3   14    2 1  
     4    3   11 2  
     5   12    3 1  
     6    3   14 1  
     7   10    4 1  
     8    4   12 am 
     9    4   13 2  
    10    6    5 1  
    11    7    5 1  
    12    8    6 1  
    13    9    7 1  
    14    9    8 1  
    15    9   10 1  
    16    1   15 1  
    17    2   16 1  
    18    5   17 1  
    19    5   18 1  
    20    6   19 1  
    21    6   20 1  
    22    7   21 1  
    23    7   22 1  
    24    8   23 1  
    25    8   24 1  
    26    9   25 1  
    27   10   26 1  
    28   10   27 1  
    29   12   28 1  
@<TRIPOS>SUBSTRUCTURE
     1 S0C         1

