### 
### Created by X-TOOL on Mon Sep 10 21:13:18 2018
### 

@<TRIPOS>MOLECULE
3wk6_ligand
   31    32     1     0     0
SMALL
GAST_HUCK


@<TRIPOS>ATOM
      1 C15       -17.7760  -13.6400   68.9160 C.ar      1 S0B        -0.0687
      2 C13       -18.9120  -12.8660   69.0940 C.ar      1 S0B        -0.0686
      3 C14       -16.7370  -13.0990   68.2200 C.ar      1 S0B        -0.0686
      4 C11       -19.0390  -11.5810   68.6150 C.ar      1 S0B        -0.0603
      5 C12       -16.8720  -11.8050   67.7360 C.ar      1 S0B        -0.0603
      6 C10       -18.0040  -11.0390   67.9150 C.ar      1 S0B        -0.0410
      7 C1        -17.8300   -7.9850   64.1450 C.2       1 S0B         0.1570
      8 C7        -17.4190   -7.9760   61.9090 C.3       1 S0B        -0.0097
      9 C5        -17.4240   -6.5120   62.1620 C.3       1 S0B         0.0304
     10 C8        -17.9720   -5.8550   60.9440 C.3       1 S0B        -0.0498
     11 C9        -18.1150   -9.6390   67.3890 C.3       1 S0B         0.0022
     12 C6        -18.2530   -9.5980   65.8860 C.3       1 S0B         0.0452
     13 N4        -17.2340   -8.6550   63.2300 N.2       1 S0B        -0.3638
     14 N3        -17.8990   -8.2650   65.4760 N.pl3     1 S0B        -0.2780
     15 S2        -18.6120   -6.5550   63.5300 S.3       1 S0B        -0.0282
     16 H         -17.7160  -14.6449   69.3182 H         1 S0B         0.0559
     17 H         -19.7449  -13.2950   69.6393 H         1 S0B         0.0599
     18 H         -15.8283  -13.6646   68.0486 H         1 S0B         0.0599
     19 H         -19.9448  -11.0123   68.7916 H         1 S0B         0.0557
     20 H         -16.0424  -11.3735   67.1876 H         1 S0B         0.0557
     21 H         -16.5927   -8.2383   61.2319 H         1 S0B         0.0313
     22 H         -18.3741   -8.2835   61.4582 H         1 S0B         0.0313
     23 H         -16.4476   -6.0892   62.4411 H         1 S0B         0.0450
     24 H         -17.9919   -4.7653   61.0927 H         1 S0B         0.0243
     25 H         -18.9936   -6.2186   60.7594 H         1 S0B         0.0243
     26 H         -17.3354   -6.0955   60.0798 H         1 S0B         0.0243
     27 H         -17.2115   -9.0811   67.6761 H         1 S0B         0.0447
     28 H         -18.9987   -9.1620   67.8380 H         1 S0B         0.0447
     29 H         -19.2896   -9.8220   65.5939 H         1 S0B         0.0556
     30 H         -17.5751  -10.3300   65.4227 H         1 S0B         0.0556
     31 H         -17.7014   -7.5360   66.1763 H         1 S0B         0.1941
@<TRIPOS>BOND
     1    2    1 ar 
     2    3    1 ar 
     3    4    2 ar 
     4    5    3 ar 
     5    6    4 ar 
     6    6    5 ar 
     7   11    6 1  
     8    7   13 2  
     9   14    7 1  
    10    7   15 1  
    11    9    8 1  
    12   13    8 1  
    13    9   10 1  
    14   15    9 1  
    15   12   11 1  
    16   12   14 1  
    17    1   16 1  
    18    2   17 1  
    19    3   18 1  
    20    4   19 1  
    21    5   20 1  
    22    8   21 1  
    23    8   22 1  
    24    9   23 1  
    25   10   24 1  
    26   10   25 1  
    27   10   26 1  
    28   11   27 1  
    29   11   28 1  
    30   12   29 1  
    31   12   30 1  
    32   14   31 1  
@<TRIPOS>SUBSTRUCTURE
     1 S0B         1

