### 
### Created by X-TOOL on Mon Sep 10 21:13:19 2018
### 

@<TRIPOS>MOLECULE
3wk7_ligand
   25    27     1     0     0
SMALL
GAST_HUCK


@<TRIPOS>ATOM
      1 C15       -18.6530  -11.6440   69.2250 C.ar      1 S0D        -0.0760
      2 C14       -17.4350  -12.2240   68.9590 C.ar      1 S0D        -0.0779
      3 C12       -19.1180  -10.5870   68.4740 C.ar      1 S0D        -0.0414
      4 C13       -16.6190  -11.7920   67.9240 C.ar      1 S0D        -0.0641
      5 C8        -16.1080   -7.7670   63.9850 C.2       1 S0D         0.0156
      6 C6        -18.3270   -7.5400   63.8670 C.2       1 S0D         0.0773
      7 C2        -17.3300   -8.1670   64.5910 C.2       1 S0D         0.0552
      8 C9        -18.3180  -10.1490   67.4260 C.ar      1 S0D         0.0780
      9 C10       -17.0950  -10.7500   67.1570 C.ar      1 S0D         0.0238
     10 C1        -17.4870   -9.1030   65.7040 C.2       1 S0D         0.1228
     11 C11       -18.2610   -5.9820   61.8570 C.3       1 S0D         0.0632
     12 N5        -16.3310   -6.9550   62.9430 N.2       1 S0D        -0.2095
     13 N3        -18.5400   -9.1230   66.5090 N.pl3     1 S0D        -0.2538
     14 N4        -16.5780  -10.0780   66.0560 N.2       1 S0D        -0.3196
     15 N7        -17.6830   -6.8140   62.8920 N.pl3     1 S0D        -0.1999
     16 H         -19.2578  -12.0252   70.0399 H         1 S0D         0.0533
     17 H         -17.1009  -13.0475   69.5798 H         1 S0D         0.0518
     18 H         -20.0697  -10.1160   68.6919 H         1 S0D         0.0541
     19 H         -15.6563  -12.2502   67.7282 H         1 S0D         0.0539
     20 H         -15.1210   -8.0793   64.3230 H         1 S0D         0.0698
     21 H         -19.4010   -7.6070   64.0341 H         1 S0D         0.1115
     22 H         -17.4572   -5.5461   61.2455 H         1 S0D         0.0611
     23 H         -18.8479   -5.1752   62.3202 H         1 S0D         0.0611
     24 H         -18.9168   -6.5928   61.2191 H         1 S0D         0.0611
     25 H         -19.3609   -8.5024   66.4654 H         1 S0D         0.2288
@<TRIPOS>BOND
     1    1    2 ar 
     2    3    1 ar 
     3    4    2 ar 
     4    8    3 ar 
     5    9    4 ar 
     6    7    5 1  
     7    5   12 2  
     8    7    6 2  
     9    6   15 1  
    10   10    7 1  
    11    8    9 ar 
    12   13    8 1  
    13    9   14 1  
    14   10   13 1  
    15   10   14 2  
    16   15   11 1  
    17   12   15 1  
    18    1   16 1  
    19    2   17 1  
    20    3   18 1  
    21    4   19 1  
    22    5   20 1  
    23    6   21 1  
    24   11   22 1  
    25   11   23 1  
    26   11   24 1  
    27   13   25 1  
@<TRIPOS>SUBSTRUCTURE
     1 S0D         1

