### 
### Created by X-TOOL on Mon Sep 10 21:13:19 2018
### 

@<TRIPOS>MOLECULE
3wk8_ligand
   19    20     1     0     0
SMALL
GAST_HUCK


@<TRIPOS>ATOM
      1 C10       -17.3380  -12.3710   70.8450 C.ar      1 S0E        -0.0479
      2 C9        -16.8620  -11.4770   71.7690 C.ar      1 S0E        -0.0333
      3 C8        -17.2270  -10.7550   69.0340 C.ar      1 S0E        -0.0225
      4 C7        -17.5220  -12.0150   69.5330 C.ar      1 S0E         0.0253
      5 C6        -16.5570  -10.2060   71.2950 C.ar      1 S0E         0.0467
      6 C5        -16.7340   -9.8560   69.9590 C.ar      1 S0E         0.0826
      7 C1        -15.8350   -8.0690   71.4020 C.2       1 S0E         0.2033
      8 C4        -18.0770  -13.0430   68.6200 C.3       1 S0E         0.3575
      9 N2        -16.0530   -9.1940   72.0640 N.2       1 S0E        -0.2740
     10 N11       -15.3490   -6.9170   71.8940 N.pl3     1 S0E        -0.2841
     11 F12       -17.4910  -14.2410   68.7310 F         1 S0E        -0.2368
     12 F13       -19.3960  -13.2510   68.8750 F         1 S0E        -0.2368
     13 F14       -18.0500  -12.6560   67.3170 F         1 S0E        -0.2368
     14 S3        -16.2440   -8.2050   69.7420 S.3       1 S0E         0.0476
     15 H         -17.5742  -13.3816   71.1581 H         1 S0E         0.0750
     16 H         -16.7308  -11.7460   72.8109 H         1 S0E         0.0629
     17 H         -17.3731  -10.4945   67.9920 H         1 S0E         0.0796
     18 H         -15.1063   -6.8451   72.8924 H         1 S0E         0.1958
     19 H         -15.2192   -6.1058   71.2727 H         1 S0E         0.1958
@<TRIPOS>BOND
     1    1    2 ar 
     2    1    4 ar 
     3    2    5 ar 
     4    4    3 ar 
     5    3    6 ar 
     6    4    8 1  
     7    5    6 ar 
     8    5    9 1  
     9    6   14 1  
    10    9    7 2  
    11    7   10 1  
    12    7   14 1  
    13    8   11 1  
    14    8   12 1  
    15    8   13 1  
    16    1   15 1  
    17    2   16 1  
    18    3   17 1  
    19   10   18 1  
    20   10   19 1  
@<TRIPOS>SUBSTRUCTURE
     1 S0E         1

