### 
### Created by X-TOOL on Mon Sep 10 21:13:19 2018
### 

@<TRIPOS>MOLECULE
3wk9_ligand
   23    24     1     0     0
SMALL
GAST_HUCK


@<TRIPOS>ATOM
      1 C13       -16.4680  -12.0910   68.4970 C.ar      1 S0F        -0.0558
      2 C14       -18.8400  -11.8210   68.7410 C.ar      1 S0F        -0.0558
      3 C11       -16.5780  -13.4530   68.6630 C.ar      1 S0F        -0.0588
      4 C12       -18.9310  -13.1710   68.9020 C.ar      1 S0F        -0.0588
      5 C5        -16.3680   -7.8500   68.9390 C.2       1 S0F        -0.0454
      6 C8        -17.5950  -11.3100   68.5370 C.ar      1 S0F        -0.0298
      7 C9        -17.8280  -14.0090   68.8570 C.ar      1 S0F         0.0057
      8 C4        -16.8730   -9.0600   69.3130 C.2       1 S0F         0.0267
      9 C1        -15.8860   -7.8170   71.0650 C.2       1 S0F         0.1695
     10 C7        -17.5290   -9.8890   68.3310 C.3       1 S0F         0.0204
     11 N2        -15.8080   -7.1530   69.9430 N.2       1 S0F        -0.3366
     12 N6        -15.3660   -7.2200   72.1560 N.pl3     1 S0F        -0.3029
     13 S3        -16.6480   -9.3840   70.9950 S.3       1 S0F         0.0186
     14 BR1       -18.0780  -15.9460   69.0700 Br        1 S0F        -0.0561
     15 H         -15.4964  -11.6382   68.3356 H         1 S0F         0.0567
     16 H         -19.7169  -11.1846   68.7738 H         1 S0F         0.0567
     17 H         -15.6951  -14.0815   68.6418 H         1 S0F         0.0626
     18 H         -19.9081  -13.6083   69.0726 H         1 S0F         0.0626
     19 H         -16.4143   -7.4802   67.9157 H         1 S0F         0.0363
     20 H         -18.5651   -9.5288   68.2486 H         1 S0F         0.0584
     21 H         -17.0076   -9.7277   67.3760 H         1 S0F         0.0584
     22 H         -14.9380   -6.2864   72.0775 H         1 S0F         0.1837
     23 H         -15.3967   -7.6974   73.0682 H         1 S0F         0.1837
@<TRIPOS>BOND
     1    1    3 ar 
     2    6    1 ar 
     3    2    4 ar 
     4    6    2 ar 
     5    3    7 ar 
     6    4    7 ar 
     7    8    5 2  
     8    5   11 1  
     9   10    6 1  
    10    7   14 1  
    11    8   10 1  
    12    8   13 1  
    13   11    9 2  
    14    9   12 1  
    15    9   13 1  
    16    1   15 1  
    17    2   16 1  
    18    3   17 1  
    19    4   18 1  
    20    5   19 1  
    21   10   20 1  
    22   10   21 1  
    23   12   22 1  
    24   12   23 1  
@<TRIPOS>SUBSTRUCTURE
     1 S0F         1

