### 
### Created by X-TOOL on Mon Sep 10 21:13:20 2018
### 

@<TRIPOS>MOLECULE
3wka_ligand
   32    33     1     0     0
SMALL
GAST_HUCK


@<TRIPOS>ATOM
      1 C3        -16.4540   -9.4940   70.6780 C.2       1 S0G         0.1114
      2 C1        -16.2550   -9.8590   71.9530 C.2       1 S0G         0.1621
      3 C6        -16.1090   -8.0940   70.2770 C.2       1 S0G         0.1926
      4 C4        -15.3900   -7.6630   72.5630 C.2       1 S0G         0.3204
      5 C16       -17.9050  -12.1560   67.5970 C.3       1 S0G        -0.0498
      6 C15       -16.5450  -12.3550   68.2540 C.3       1 S0G        -0.0356
      7 C14       -18.8610  -11.3940   68.4850 C.3       1 S0G        -0.0356
      8 C12       -15.9660  -11.0830   68.8860 C.3       1 S0G         0.0120
      9 C13       -18.2530  -10.1230   69.0680 C.3       1 S0G         0.0120
     10 C11       -15.5220   -9.4520   74.2800 C.3       1 S0G         0.0501
     11 N5        -15.6140   -7.2810   71.2640 N.am      1 S0G        -0.1907
     12 N7        -16.9600  -10.3710   69.7210 N.pl3     1 S0G        -0.3454
     13 N2        -15.7270   -8.9850   72.9020 N.am      1 S0G        -0.1839
     14 N10       -16.5840  -11.1420   72.2950 N.pl3     1 S0G        -0.3153
     15 O9        -16.2610   -7.6490   69.1470 O.2       1 S0G        -0.4221
     16 O8        -14.9200   -6.8420   73.3330 O.2       1 S0G        -0.3866
     17 H         -18.3384  -13.1420   67.3736 H         1 S0G         0.0266
     18 H         -17.7676  -11.5952   66.6607 H         1 S0G         0.0266
     19 H         -15.8402  -12.7129   67.4890 H         1 S0G         0.0282
     20 H         -16.6491  -13.1160   69.0414 H         1 S0G         0.0282
     21 H         -19.1653  -12.0488   69.3148 H         1 S0G         0.0282
     22 H         -19.7455  -11.1186   67.8919 H         1 S0G         0.0282
     23 H         -15.6304  -10.4098   68.0834 H         1 S0G         0.0485
     24 H         -15.1075  -11.3595   69.5157 H         1 S0G         0.0485
     25 H         -18.9496   -9.7059   69.8101 H         1 S0G         0.0485
     26 H         -18.1050   -9.3967   68.2552 H         1 S0G         0.0485
     27 H         -15.8380  -10.5024   74.3620 H         1 S0G         0.0559
     28 H         -16.1178   -8.8351   74.9687 H         1 S0G         0.0559
     29 H         -14.4567   -9.3682   74.5409 H         1 S0G         0.0559
     30 H         -15.3994   -6.3358   71.0181 H         1 S0G         0.2244
     31 H         -16.9735  -11.7801   71.5865 H         1 S0G         0.1760
     32 H         -16.4422  -11.4700   73.2610 H         1 S0G         0.1760
@<TRIPOS>BOND
     1    1    2 2  
     2    1    3 1  
     3   12    1 1  
     4    2   13 1  
     5    2   14 1  
     6    3   11 am 
     7    3   15 2  
     8   11    4 am 
     9   13    4 am 
    10    4   16 2  
    11    6    5 1  
    12    5    7 1  
    13    8    6 1  
    14    7    9 1  
    15    8   12 1  
    16    9   12 1  
    17   13   10 1  
    18    5   17 1  
    19    5   18 1  
    20    6   19 1  
    21    6   20 1  
    22    7   21 1  
    23    7   22 1  
    24    8   23 1  
    25    8   24 1  
    26    9   25 1  
    27    9   26 1  
    28   10   27 1  
    29   10   28 1  
    30   10   29 1  
    31   11   30 1  
    32   14   31 1  
    33   14   32 1  
@<TRIPOS>SUBSTRUCTURE
     1 S0G         1

