### 
### Created by X-TOOL on Mon Sep 10 21:13:19 2018
### 

@<TRIPOS>MOLECULE
3wkb_ligand
   32    34     1     0     0
SMALL
GAST_HUCK


@<TRIPOS>ATOM
      1 C18       -18.5290   -3.7500   53.8850 C.ar      1 S0I        -0.0687
      2 C16       -17.3040   -3.3290   53.3710 C.ar      1 S0I        -0.0685
      3 C17       -18.5970   -4.9460   54.5750 C.ar      1 S0I        -0.0685
      4 C15       -13.3450   -5.3240   59.1270 C.ar      1 S0I        -0.0891
      5 C11       -13.3780   -4.5940   57.9480 C.ar      1 S0I        -0.0893
      6 C12       -16.1380   -4.0660   53.5160 C.ar      1 S0I        -0.0585
      7 C13       -17.4360   -5.6860   54.7360 C.ar      1 S0I        -0.0585
      8 C10       -13.8300   -6.6230   59.0920 C.ar      1 S0I        -0.0522
      9 C6        -13.8800   -5.1400   56.7650 C.ar      1 S0I        -0.0568
     10 C7        -16.2150   -5.2730   54.2100 C.ar      1 S0I        -0.0218
     11 C5        -14.3280   -7.1460   57.8910 C.ar      1 S0I         0.0861
     12 C2        -14.3840   -6.4420   56.6980 C.ar      1 S0I         0.0674
     13 C8        -15.5600   -8.9860   56.8250 C.2       1 S0I         0.2221
     14 C4        -15.8610   -8.1590   55.5670 C.3       1 S0I         0.1209
     15 C3        -14.9760   -6.1230   54.3450 C.3       1 S0I         0.0602
     16 N9        -14.8130   -8.4530   57.8620 N.am      1 S0I        -0.2367
     17 N1        -14.8820   -7.0710   55.4770 N.pl3     1 S0I        -0.2839
     18 O14       -15.9530  -10.1270   56.9960 O.2       1 S0I        -0.3843
     19 H         -19.4185   -3.1465   53.7453 H         1 S0I         0.0559
     20 H         -17.2606   -2.3872   52.8361 H         1 S0I         0.0599
     21 H         -19.5383   -5.2977   54.9815 H         1 S0I         0.0599
     22 H         -12.9543   -4.8948   60.0426 H         1 S0I         0.0466
     23 H         -13.0054   -3.5760   57.9450 H         1 S0I         0.0454
     24 H         -15.1987   -3.7156   53.1038 H         1 S0I         0.0557
     25 H         -17.4803   -6.6169   55.2897 H         1 S0I         0.0557
     26 H         -13.8239   -7.2309   59.9895 H         1 S0I         0.0459
     27 H         -13.8788   -4.5328   55.8670 H         1 S0I         0.0466
     28 H         -16.8758   -7.7398   55.6331 H         1 S0I         0.0758
     29 H         -15.7862   -8.7994   54.6758 H         1 S0I         0.0758
     30 H         -14.1203   -5.4366   54.4263 H         1 S0I         0.0674
     31 H         -14.8864   -6.7130   53.4210 H         1 S0I         0.0674
     32 H         -14.6078   -9.0446   58.6417 H         1 S0I         0.2218
@<TRIPOS>BOND
     1    2    1 ar 
     2    3    1 ar 
     3    6    2 ar 
     4    7    3 ar 
     5    5    4 ar 
     6    8    4 ar 
     7    9    5 ar 
     8   10    6 ar 
     9   10    7 ar 
    10   11    8 ar 
    11   12    9 ar 
    12   15   10 1  
    13   12   11 ar 
    14   11   16 1  
    15   17   12 1  
    16   14   13 1  
    17   13   16 am 
    18   13   18 2  
    19   17   14 1  
    20   15   17 1  
    21    1   19 1  
    22    2   20 1  
    23    3   21 1  
    24    4   22 1  
    25    5   23 1  
    26    6   24 1  
    27    7   25 1  
    28    8   26 1  
    29    9   27 1  
    30   14   28 1  
    31   14   29 1  
    32   15   30 1  
    33   15   31 1  
    34   16   32 1  
@<TRIPOS>SUBSTRUCTURE
     1 S0I         1

