### 
### Created by X-TOOL on Mon Sep 10 21:13:18 2018
### 

@<TRIPOS>MOLECULE
3wkc_ligand
   38    40     1     0     0
SMALL
GAST_HUCK


@<TRIPOS>ATOM
      1 C3        -13.6730   -3.5510   59.7680 C.2       1 S0J        -0.0904
      2 C15       -11.5370   -4.3000   57.7840 C.2       1 S0J        -0.0136
      3 C4        -13.7460   -4.6650   58.9070 C.2       1 S0J        -0.0555
      4 C14       -12.7610   -4.9140   57.9030 C.2       1 S0J        -0.0330
      5 C2        -14.8390   -3.5650   60.4850 C.2       1 S0J         0.0254
      6 C5        -14.9340   -5.3420   59.0840 C.2       1 S0J         0.0364
      7 C17       -12.1830   -5.8720   56.0100 C.2       1 S0J         0.1738
      8 C11       -18.5990   -6.9170   62.7270 C.3       1 S0J        -0.0270
      9 C10       -18.3580   -5.4800   62.5010 C.3       1 S0J        -0.0219
     10 C12       -17.7580   -7.5230   61.6440 C.3       1 S0J         0.0482
     11 C9        -16.9560   -5.4950   61.9390 C.3       1 S0J         0.0858
     12 C1        -15.2280   -2.5860   61.5170 C.3       1 S0J        -0.0166
     13 C6        -15.4940   -6.5530   58.4230 C.3       1 S0J        -0.0140
     14 C8        -16.9310   -5.0530   60.5050 C.3       1 S0J         0.0789
     15 N19       -13.1280   -5.7840   56.9100 N.2       1 S0J        -0.3229
     16 N7        -15.5820   -4.6620   60.0750 N.pl3     1 S0J        -0.2692
     17 N18       -12.2480   -6.6380   54.9160 N.pl3     1 S0J        -0.2983
     18 O13       -16.5310   -6.8190   61.8110 O.3       1 S0J        -0.3738
     19 S16       -10.8110   -4.8990   56.3500 S.3       1 S0J         0.0002
     20 H         -12.8599   -2.8308   59.8462 H         1 S0J         0.0138
     21 H         -11.1090   -3.5710   58.4705 H         1 S0J         0.0474
     22 H         -19.6618   -7.1725   62.6036 H         1 S0J         0.0288
     23 H         -18.2598   -7.2312   63.7251 H         1 S0J         0.0288
     24 H         -18.4080   -4.9113   63.4413 H         1 S0J         0.0292
     25 H         -19.0754   -5.0606   61.7803 H         1 S0J         0.0292
     26 H         -18.1924   -7.3432   60.6496 H         1 S0J         0.0560
     27 H         -17.6249   -8.6043   61.7959 H         1 S0J         0.0560
     28 H         -16.2834   -4.8939   62.5684 H         1 S0J         0.0624
     29 H         -14.4359   -1.8300   61.6223 H         1 S0J         0.0387
     30 H         -15.3714   -3.1029   62.4773 H         1 S0J         0.0387
     31 H         -16.1667   -2.0948   61.2212 H         1 S0J         0.0387
     32 H         -14.7871   -6.9153   57.6621 H         1 S0J         0.0398
     33 H         -16.4509   -6.2996   57.9434 H         1 S0J         0.0398
     34 H         -15.6576   -7.3388   59.1752 H         1 S0J         0.0398
     35 H         -17.6053   -4.1920   60.3866 H         1 S0J         0.0638
     36 H         -17.2797   -5.8818   59.8714 H         1 S0J         0.0638
     37 H         -13.0847   -7.2118   54.7380 H         1 S0J         0.1864
     38 H         -11.4614   -6.6543   54.2512 H         1 S0J         0.1864
@<TRIPOS>BOND
     1    3    1 1  
     2    5    1 2  
     3    4    2 2  
     4    2   19 1  
     5    3    4 1  
     6    6    3 2  
     7    4   15 1  
     8    5   12 1  
     9   16    5 1  
    10    6   13 1  
    11   16    6 1  
    12   15    7 2  
    13    7   17 1  
    14    7   19 1  
    15    9    8 1  
    16   10    8 1  
    17   11    9 1  
    18   18   10 1  
    19   14   11 1  
    20   11   18 1  
    21   14   16 1  
    22    1   20 1  
    23    2   21 1  
    24    8   22 1  
    25    8   23 1  
    26    9   24 1  
    27    9   25 1  
    28   10   26 1  
    29   10   27 1  
    30   11   28 1  
    31   12   29 1  
    32   12   30 1  
    33   12   31 1  
    34   13   32 1  
    35   13   33 1  
    36   13   34 1  
    37   14   35 1  
    38   14   36 1  
    39   17   37 1  
    40   17   38 1  
@<TRIPOS>SUBSTRUCTURE
     1 S0J         1

