### 
### Created by X-TOOL on Mon Sep 10 21:13:19 2018
### 

@<TRIPOS>MOLECULE
3wkd_ligand
   36    38     1     0     0
SMALL
GAST_HUCK


@<TRIPOS>ATOM
      1 C9        -18.5460   -3.7830   53.3940 C.ar      1 S0K        -0.0892
      2 C11       -19.0930   -4.7170   54.2460 C.ar      1 S0K        -0.0890
      3 C4        -17.1850   -3.6580   53.3050 C.ar      1 S0K        -0.0570
      4 C6        -18.2880   -5.5280   55.0060 C.ar      1 S0K        -0.0522
      5 C17       -14.8780   -7.6730   57.7660 C.2       1 S0K        -0.0604
      6 C19       -14.2700   -8.6030   58.6020 C.2       1 S0K        -0.0044
      7 C18       -15.4250   -9.6520   56.6840 C.2       1 S0K         0.0185
      8 C14       -15.5330   -8.2760   56.6500 C.2       1 S0K         0.0406
      9 C1        -16.3730   -4.4790   54.0660 C.ar      1 S0K         0.0637
     10 C2        -16.9140   -5.4190   54.9210 C.ar      1 S0K         0.0852
     11 C10       -16.2560   -7.6180   55.6150 C.2       1 S0K         0.2129
     12 C7        -14.6300   -2.9900   53.6720 C.3       1 S0K         0.0476
     13 C8        -14.3720   -5.4410   53.2270 C.3       1 S0K         0.0476
     14 C12       -13.1830   -2.9050   54.0220 C.3       1 S0K         0.0669
     15 C13       -12.8930   -5.2700   53.4930 C.3       1 S0K         0.0669
     16 N3        -14.9910   -4.3580   53.9670 N.pl3     1 S0K        -0.3095
     17 N5        -16.0890   -6.2580   55.6980 N.am      1 S0K        -0.2405
     18 O15       -16.9830   -8.2380   54.8220 O.2       1 S0K        -0.3839
     19 O16       -12.5260   -3.8980   53.2540 O.3       1 S0K        -0.3759
     20 S20       -14.5240  -10.2300   58.0470 S.3       1 S0K        -0.0351
     21 H         -19.1906   -3.1490   52.7959 H         1 S0K         0.0454
     22 H         -20.1705   -4.8124   54.3169 H         1 S0K         0.0466
     23 H         -16.7471   -2.9203   52.6423 H         1 S0K         0.0466
     24 H         -18.7320   -6.2563   55.6750 H         1 S0K         0.0459
     25 H         -14.8568   -6.5988   57.9437 H         1 S0K         0.0425
     26 H         -13.7039   -8.3435   59.4953 H         1 S0K         0.0717
     27 H         -15.8613  -10.3071   55.9314 H         1 S0K         0.0835
     28 H         -14.7865   -2.7673   52.6062 H         1 S0K         0.0531
     29 H         -15.2201   -2.2912   54.2832 H         1 S0K         0.0531
     30 H         -14.7247   -6.4163   53.5937 H         1 S0K         0.0531
     31 H         -14.5883   -5.3533   52.1521 H         1 S0K         0.0531
     32 H         -13.0394   -3.0976   55.0954 H         1 S0K         0.0579
     33 H         -12.7892   -1.9087   53.7723 H         1 S0K         0.0579
     34 H         -12.3198   -5.9267   52.8220 H         1 S0K         0.0579
     35 H         -12.6741   -5.5329   54.5384 H         1 S0K         0.0579
     36 H         -15.3926   -5.8681   56.3005 H         1 S0K         0.2209
@<TRIPOS>BOND
     1    1    2 ar 
     2    3    1 ar 
     3    4    2 ar 
     4    9    3 ar 
     5   10    4 ar 
     6    5    6 2  
     7    8    5 1  
     8   20    6 1  
     9    8    7 2  
    10    7   20 1  
    11   11    8 1  
    12    9   10 ar 
    13   16    9 1  
    14   10   17 1  
    15   17   11 am 
    16   11   18 2  
    17   12   14 1  
    18   16   12 1  
    19   13   15 1  
    20   13   16 1  
    21   14   19 1  
    22   15   19 1  
    23    1   21 1  
    24    2   22 1  
    25    3   23 1  
    26    4   24 1  
    27    5   25 1  
    28    6   26 1  
    29    7   27 1  
    30   12   28 1  
    31   12   29 1  
    32   13   30 1  
    33   13   31 1  
    34   14   32 1  
    35   14   33 1  
    36   15   34 1  
    37   15   35 1  
    38   17   36 1  
@<TRIPOS>SUBSTRUCTURE
     1 S0K         1

