### 
### Created by X-TOOL on Mon Sep 10 21:13:17 2018
### 

@<TRIPOS>MOLECULE
3wke_ligand
   61    65     1     0     0
SMALL
GAST_HUCK


@<TRIPOS>ATOM
      1 C22       -16.6670   -9.3110   73.4410 C.ar      1 AUB        -0.0562
      2 C24       -15.8340  -11.5260   73.8560 C.ar      1 AUB        -0.0562
      3 C21       -16.9020   -9.6390   72.1250 C.ar      1 AUB        -0.0292
      4 C25       -16.0810  -11.8400   72.5400 C.ar      1 AUB        -0.0292
      5 C23       -16.1360  -10.2550   74.2870 C.ar      1 AUB        -0.0010
      6 C20       -16.6120  -10.9070   71.6780 C.ar      1 AUB         0.0948
      7 C28       -15.9070   -9.8750   75.6790 C.2       1 AUB         0.0557
      8 C26       -17.2640   -8.0950   64.6590 C.2       1 AUB         0.2581
      9 C14       -18.3770  -10.2340   67.1550 C.3       1 AUB        -0.0274
     10 C12       -16.6450   -8.5750   67.9110 C.3       1 AUB        -0.0274
     11 C15       -18.0760  -11.0650   68.3860 C.3       1 AUB        -0.0200
     12 C17       -16.1680   -9.5730   68.9280 C.3       1 AUB        -0.0200
     13 C6        -17.3460   -5.5350   60.0040 C.3       1 AUB        -0.0472
     14 C9        -15.1610   -6.5300   60.6020 C.3       1 AUB        -0.0472
     15 C4        -15.7210   -4.2540   61.3890 C.3       1 AUB        -0.0472
     16 C2        -17.2850   -7.4250   61.6060 C.3       1 AUB        -0.0244
     17 C10       -17.8590   -5.1710   62.4020 C.3       1 AUB        -0.0244
     18 C8        -15.6550   -6.1510   62.9980 C.3       1 AUB        -0.0244
     19 C1        -16.6370   -6.8370   60.3480 C.3       1 AUB        -0.0382
     20 C5        -17.2010   -4.5660   61.1620 C.3       1 AUB        -0.0382
     21 C3        -15.0070   -5.5460   61.7530 C.3       1 AUB        -0.0382
     22 C13       -17.2640   -9.2950   66.7300 C.3       1 AUB         0.0426
     23 C16       -17.3420  -10.3250   69.5020 C.3       1 AUB         0.0822
     24 C7        -17.1440   -6.4560   62.7770 C.3       1 AUB         0.0542
     25 N18       -17.8250   -8.2860   65.8790 N.am      1 AUB        -0.2701
     26 N11       -17.7500   -6.9930   63.9800 N.am      1 AUB        -0.2671
     27 O29       -16.4410   -8.9120   76.2100 O.co2     1 AUB        -0.5636
     28 O27       -16.4160   -8.8640   64.2500 O.2       1 AUB        -0.4008
     29 O30       -15.0670  -10.7810   76.2380 O.co2     1 AUB        -0.5636
     30 O19       -16.8120  -11.3220   70.3730 O.3       1 AUB        -0.3127
     31 H         -16.8986   -8.3172   73.8068 H         1 AUB         0.0623
     32 H         -15.4132  -12.2593   74.5344 H         1 AUB         0.0623
     33 H         -17.3133   -8.9021   71.4447 H         1 AUB         0.0551
     34 H         -15.8545  -12.8358   72.1764 H         1 AUB         0.0551
     35 H         -19.2732   -9.6303   67.3611 H         1 AUB         0.0288
     36 H         -18.5815  -10.9210   66.3206 H         1 AUB         0.0288
     37 H         -15.7927   -7.9723   67.5643 H         1 AUB         0.0288
     38 H         -17.3966   -7.9167   68.3711 H         1 AUB         0.0288
     39 H         -17.4552  -11.9191   68.0775 H         1 AUB         0.0295
     40 H         -19.0304  -11.4327   68.7910 H         1 AUB         0.0295
     41 H         -15.6423   -9.0454   69.7375 H         1 AUB         0.0295
     42 H         -15.4804  -10.2837   68.4464 H         1 AUB         0.0295
     43 H         -18.4125   -5.7339   59.8223 H         1 AUB         0.0271
     44 H         -16.8953   -5.0984   59.1006 H         1 AUB         0.0271
     45 H         -14.7211   -6.0941   59.6929 H         1 AUB         0.0271
     46 H         -14.6358   -7.4635   60.8522 H         1 AUB         0.0271
     47 H         -15.6161   -3.5282   62.2089 H         1 AUB         0.0271
     48 H         -15.2848   -3.8350   60.4703 H         1 AUB         0.0271
     49 H         -16.7904   -8.3743   61.8591 H         1 AUB         0.0293
     50 H         -18.3524   -7.6077   61.4128 H         1 AUB         0.0293
     51 H         -18.9157   -5.3884   62.1874 H         1 AUB         0.0293
     52 H         -17.7936   -4.4578   63.2369 H         1 AUB         0.0293
     53 H         -15.5575   -5.4395   63.8312 H         1 AUB         0.0293
     54 H         -15.1342   -7.0861   63.2514 H         1 AUB         0.0293
     55 H         -16.7299   -7.5497   59.5153 H         1 AUB         0.0302
     56 H         -17.7197   -3.6285   60.9129 H         1 AUB         0.0302
     57 H         -13.9418   -5.3467   61.9418 H         1 AUB         0.0302
     58 H         -16.4899   -9.8639   66.1943 H         1 AUB         0.0553
     59 H         -18.0213   -9.6436   70.0351 H         1 AUB         0.0651
     60 H         -18.6074   -7.7389   66.1766 H         1 AUB         0.1848
     61 H         -18.5662   -6.5403   64.3391 H         1 AUB         0.1851
@<TRIPOS>BOND
     1    3    1 ar 
     2    1    5 ar 
     3    4    2 ar 
     4    2    5 ar 
     5    6    3 ar 
     6    6    4 ar 
     7    5    7 1  
     8   30    6 1  
     9    7   27 ar 
    10    7   29 ar 
    11    8   25 am 
    12   26    8 am 
    13    8   28 2  
    14    9   11 1  
    15   22    9 1  
    16   10   12 1  
    17   22   10 1  
    18   11   23 1  
    19   12   23 1  
    20   19   13 1  
    21   20   13 1  
    22   19   14 1  
    23   21   14 1  
    24   20   15 1  
    25   21   15 1  
    26   16   19 1  
    27   24   16 1  
    28   17   20 1  
    29   24   17 1  
    30   18   21 1  
    31   24   18 1  
    32   25   22 1  
    33   23   30 1  
    34   24   26 1  
    35    1   31 1  
    36    2   32 1  
    37    3   33 1  
    38    4   34 1  
    39    9   35 1  
    40    9   36 1  
    41   10   37 1  
    42   10   38 1  
    43   11   39 1  
    44   11   40 1  
    45   12   41 1  
    46   12   42 1  
    47   13   43 1  
    48   13   44 1  
    49   14   45 1  
    50   14   46 1  
    51   15   47 1  
    52   15   48 1  
    53   16   49 1  
    54   16   50 1  
    55   17   51 1  
    56   17   52 1  
    57   18   53 1  
    58   18   54 1  
    59   19   55 1  
    60   20   56 1  
    61   21   57 1  
    62   22   58 1  
    63   23   59 1  
    64   25   60 1  
    65   26   61 1  
@<TRIPOS>SUBSTRUCTURE
     1 AUB         1

