### 
### Created by X-TOOL on Mon Sep 10 21:13:17 2018
### 

@<TRIPOS>MOLECULE
3wmb_ligand
   47    50     1     0     0
SMALL
GAST_HUCK


@<TRIPOS>ATOM
      1 OAN        32.1420    1.6440   14.1680 O.3       1 NF1        -0.3396
      2 CAM        33.3680    2.2800   14.1380 C.3       1 NF1         0.1236
      3 CAE        33.5550    3.5480   14.9180 C.ar      1 NF1         0.0429
      4 CAD        34.8350    4.1760   14.8670 C.ar      1 NF1         0.0090
      5 CAF        32.4910    4.1420   15.7200 C.ar      1 NF1        -0.0542
      6 CAA        32.7310    5.3440   16.4420 C.ar      1 NF1        -0.0721
      7 CAB        34.0020    5.9680   16.3870 C.ar      1 NF1        -0.0659
      8 CAC        35.0710    5.3690   15.5830 C.ar      1 NF1        -0.0302
      9 CAG        36.3910    6.0130   15.5200 C.ar      1 NF1        -0.0659
     10 CAH        37.4270    5.4220   14.7380 C.ar      1 NF1        -0.0721
     11 CAI        37.1940    4.2150   14.0140 C.ar      1 NF1        -0.0542
     12 CAJ        35.8830    3.5750   14.0730 C.ar      1 NF1         0.0429
     13 CAK        35.6350    2.3170   13.3190 C.3       1 NF1         0.1236
     14 OAO        36.6550    1.7230   12.5400 O.3       1 NF1        -0.3396
     15 NAL        34.3840    1.7310   13.3970 N.4       1 NF1         0.3073
     16 CAP        34.1130    0.4780   12.6420 C.3       1 NF1         0.0178
     17 CAQ        34.9480   -0.7550   12.8730 C.3       1 NF1         0.0097
     18 NAR        35.5720   -1.3480   11.6590 N.4       1 NF1         0.2489
     19 CAS        35.5850   -2.7750   11.7340 C.3       1 NF1         0.0368
     20 CAT        36.8630   -3.4130   11.3270 C.2       1 NF1         0.1498
     21 SAX        37.2050   -4.2640    9.8780 S.3       1 NF1         0.0465
     22 NAU        38.0310   -3.4230   12.0370 N.2       1 NF1        -0.2668
     23 NAV        39.0860   -4.0570   11.4600 N.2       1 NF1        -0.2715
     24 CAW        38.8760   -4.6140   10.2520 C.2       1 NF1         0.1018
     25 CAY        39.8790   -5.3710    9.4160 C.3       1 NF1         0.0061
     26 H          31.5440    2.1372   14.7173 H         1 NF1         0.2188
     27 H          33.0508    2.8678   13.2640 H         1 NF1         0.1371
     28 H          31.5175    3.6674   15.7658 H         1 NF1         0.0517
     29 H          31.9386    5.7842   17.0365 H         1 NF1         0.0593
     30 H          34.1829    6.8843   16.9372 H         1 NF1         0.0528
     31 H          36.5759    6.9318   16.0648 H         1 NF1         0.0528
     32 H          38.4015    5.8948   14.6933 H         1 NF1         0.0593
     33 H          37.9879    3.7744   13.4219 H         1 NF1         0.0517
     34 H          35.3124    2.9013   12.4446 H         1 NF1         0.1371
     35 H          37.4430    2.2505   12.5966 H         1 NF1         0.2188
     36 H          34.6844    1.1979   14.1980 H         1 NF1         0.2129
     37 H          34.2090    0.7271   11.5749 H         1 NF1         0.0870
     38 H          33.0720    0.1980   12.8610 H         1 NF1         0.0870
     39 H          34.3024   -1.5199   13.3292 H         1 NF1         0.0867
     40 H          35.7545   -0.4909   13.5729 H         1 NF1         0.0867
     41 H          36.5195   -1.0137   11.5788 H         1 NF1         0.2037
     42 H          35.0461   -1.0656   10.8468 H         1 NF1         0.2037
     43 H          34.7885   -3.1585   11.0794 H         1 NF1         0.1072
     44 H          35.3755   -3.0640   12.7744 H         1 NF1         0.1072
     45 H          40.8422   -5.4107    9.9457 H         1 NF1         0.0479
     46 H          40.0121   -4.8601    8.4510 H         1 NF1         0.0479
     47 H          39.5138   -6.3939    9.2420 H         1 NF1         0.0479
@<TRIPOS>BOND
     1    1    2 1  
     2    2    3 1  
     3    2   15 1  
     4    3    4 ar 
     5    3    5 ar 
     6    4    8 ar 
     7    4   12 ar 
     8    5    6 ar 
     9    6    7 ar 
    10    7    8 ar 
    11    8    9 ar 
    12    9   10 ar 
    13   10   11 ar 
    14   11   12 ar 
    15   12   13 1  
    16   13   14 1  
    17   13   15 1  
    18   15   16 1  
    19   16   17 1  
    20   17   18 1  
    21   18   19 1  
    22   19   20 1  
    23   20   21 1  
    24   20   22 2  
    25   21   24 1  
    26   22   23 1  
    27   23   24 2  
    28   24   25 1  
    29    1   26 1  
    30    2   27 1  
    31    5   28 1  
    32    6   29 1  
    33    7   30 1  
    34    9   31 1  
    35   10   32 1  
    36   11   33 1  
    37   13   34 1  
    38   14   35 1  
    39   15   36 1  
    40   16   37 1  
    41   16   38 1  
    42   17   39 1  
    43   17   40 1  
    44   18   41 1  
    45   18   42 1  
    46   19   43 1  
    47   19   44 1  
    48   25   45 1  
    49   25   46 1  
    50   25   47 1  
@<TRIPOS>SUBSTRUCTURE
     1 NF1         1

