### 
### Created by X-TOOL on Mon Sep 10 21:13:17 2018
### 

@<TRIPOS>MOLECULE
3wmc_ligand
   55    58     1     0     0
SMALL
GAST_HUCK


@<TRIPOS>ATOM
      1 OAH       -34.5750   -2.3410  189.3930 O.3       1 NF6        -0.3401
      2 CAC       -33.9020   -1.1220  189.4290 C.3       1 NF6         0.1217
      3 CAD       -32.7530   -0.9530  190.3390 C.ar      1 NF6         0.0376
      4 CAE       -32.0690    0.2970  190.3730 C.ar      1 NF6        -0.0015
      5 CAF       -32.5140    1.3680  189.5170 C.ar      1 NF6         0.0261
      6 CAM       -31.8200    2.6470  189.5520 C.ar      1 NF6        -0.0705
      7 CAL       -30.7170    2.8280  190.4220 C.ar      1 NF6        -0.0558
      8 CAK       -30.2790    1.7540  191.2720 C.ar      1 NF6         0.0419
      9 NAZ       -29.1480    1.9100  192.1820 N.pl3     1 NF6        -0.3165
     10 CBA       -29.3860    2.3230  193.5540 C.3       1 NF6         0.0149
     11 CBB       -27.7890    1.6420  191.7230 C.3       1 NF6         0.0149
     12 CAJ       -30.9750    0.4800  191.2370 C.ar      1 NF6        -0.0040
     13 CAP       -30.5310   -0.5890  192.0910 C.ar      1 NF6        -0.0660
     14 CAO       -31.2150   -1.8380  192.0540 C.ar      1 NF6        -0.0745
     15 CAN       -32.3170   -2.0230  191.1850 C.ar      1 NF6        -0.0574
     16 CAG       -33.6620    1.1490  188.6330 C.3       1 NF6         0.1155
     17 OAI       -34.1160    2.1840  187.7870 O.3       1 NF6        -0.3423
     18 NAB       -34.3090   -0.0900  188.6280 N.4       1 NF6         0.3045
     19 CAA       -35.4290   -0.3000  187.7510 C.3       1 NF6         0.0174
     20 CAW       -36.8050    0.2560  188.1450 C.3       1 NF6         0.0097
     21 NAX       -37.9710   -0.0720  187.2050 N.4       1 NF6         0.2489
     22 CAY       -39.2060    0.5250  187.6880 C.3       1 NF6         0.0368
     23 CAQ       -39.5860    1.9070  187.1710 C.2       1 NF6         0.1498
     24 SAU       -39.8090    2.4360  185.5530 S.3       1 NF6         0.0465
     25 NAR       -39.8230    2.9880  187.9210 N.2       1 NF6        -0.2668
     26 NAS       -40.1450    4.1260  187.2750 N.2       1 NF6        -0.2715
     27 CAT       -40.1970    4.0640  185.9470 C.2       1 NF6         0.1018
     28 CAV       -40.5370    5.2070  185.0150 C.3       1 NF6         0.0061
     29 H         -34.1687   -2.9439  190.0044 H         1 NF6         0.2187
     30 H         -33.2242   -1.4695  188.6354 H         1 NF6         0.1364
     31 H         -32.1468    3.4596  188.9133 H         1 NF6         0.0477
     32 H         -30.2005    3.7807  190.4472 H         1 NF6         0.0442
     33 H         -28.4270    2.3878  194.0890 H         1 NF6         0.0479
     34 H         -30.0343    1.5866  194.0514 H         1 NF6         0.0479
     35 H         -29.8768    3.3074  193.5607 H         1 NF6         0.0479
     36 H         -27.8116    1.3442  190.6643 H         1 NF6         0.0479
     37 H         -27.3528    0.8298  192.3230 H         1 NF6         0.0479
     38 H         -27.1782    2.5499  191.8355 H         1 NF6         0.0479
     39 H         -29.6860   -0.4458  192.7548 H         1 NF6         0.0538
     40 H         -30.8902   -2.6503  192.6941 H         1 NF6         0.0562
     41 H         -32.8319   -2.9766  191.1599 H         1 NF6         0.0514
     42 H         -34.3391    1.5006  189.4254 H         1 NF6         0.1332
     43 H         -33.5731    2.9536  187.9107 H         1 NF6         0.2183
     44 H         -34.9271    0.2324  189.3560 H         1 NF6         0.2124
     45 H         -35.5442   -1.3874  187.6319 H         1 NF6         0.0870
     46 H         -35.1667    0.1493  186.7818 H         1 NF6         0.0870
     47 H         -36.7192    1.3512  188.2011 H         1 NF6         0.0867
     48 H         -37.0547   -0.1437  189.1389 H         1 NF6         0.0867
     49 H         -38.0846   -1.0724  187.1556 H         1 NF6         0.2037
     50 H         -37.7666    0.2888  186.2862 H         1 NF6         0.2037
     51 H         -39.1279    0.5962  188.7829 H         1 NF6         0.1072
     52 H         -40.0252   -0.1594  187.4225 H         1 NF6         0.1072
     53 H         -40.7327    6.1149  185.6044 H         1 NF6         0.0479
     54 H         -41.4324    4.9494  184.4303 H         1 NF6         0.0479
     55 H         -39.6930    5.3875  184.3330 H         1 NF6         0.0479
@<TRIPOS>BOND
     1    1    2 1  
     2    2    3 1  
     3    2   18 1  
     4    3    4 ar 
     5    3   15 ar 
     6    4    5 ar 
     7    4   12 ar 
     8    5    6 ar 
     9    5   16 1  
    10    6    7 ar 
    11    7    8 ar 
    12    8    9 1  
    13    8   12 ar 
    14    9   10 1  
    15    9   11 1  
    16   12   13 ar 
    17   13   14 ar 
    18   14   15 ar 
    19   16   17 1  
    20   16   18 1  
    21   18   19 1  
    22   19   20 1  
    23   20   21 1  
    24   21   22 1  
    25   22   23 1  
    26   23   24 1  
    27   23   25 2  
    28   24   27 1  
    29   25   26 1  
    30   26   27 2  
    31   27   28 1  
    32    1   29 1  
    33    2   30 1  
    34    6   31 1  
    35    7   32 1  
    36   10   33 1  
    37   10   34 1  
    38   10   35 1  
    39   11   36 1  
    40   11   37 1  
    41   11   38 1  
    42   13   39 1  
    43   14   40 1  
    44   15   41 1  
    45   16   42 1  
    46   17   43 1  
    47   18   44 1  
    48   19   45 1  
    49   19   46 1  
    50   20   47 1  
    51   20   48 1  
    52   21   49 1  
    53   21   50 1  
    54   22   51 1  
    55   22   52 1  
    56   28   53 1  
    57   28   54 1  
    58   28   55 1  
@<TRIPOS>SUBSTRUCTURE
     1 NF6         1

