### 
### Created by X-TOOL on Mon Sep 10 21:13:16 2018
### 

@<TRIPOS>MOLECULE
3wnr_ligand
   19    19     1     0     0
SMALL
GAST_HUCK


@<TRIPOS>ATOM
      1 S01        10.9110   -9.7310   -4.9110 S.2       1 9BE        -0.2517
      2 C02         9.8050   -8.9590   -3.9180 C.2       1 9BE         0.0458
      3 N03         9.1480   -9.6810   -2.8820 N.am      1 9BE        -0.2876
      4 C04         9.4430  -11.0840   -2.6570 C.3       1 9BE         0.0711
      5 C05         8.2130  -11.9270   -2.9880 C.ar      1 9BE        -0.0182
      6 C06         7.2380  -11.4350   -3.8570 C.ar      1 9BE        -0.0581
      7 C07         6.1160  -12.2140   -4.1690 C.ar      1 9BE        -0.0685
      8 C08         5.9780  -13.4780   -3.6230 C.ar      1 9BE        -0.0687
      9 C09         6.9560  -13.9690   -2.7510 C.ar      1 9BE        -0.0685
     10 C10         8.0690  -13.1970   -2.4350 C.ar      1 9BE        -0.0581
     11 H1          9.5880   -7.9021   -4.0653 H         1 9BE         0.1275
     12 H2          8.4768   -9.2171   -2.3038 H         1 9BE         0.2044
     13 H3          9.7175  -11.2357   -1.6027 H         1 9BE         0.0717
     14 H4         10.2803  -11.3898   -3.3015 H         1 9BE         0.0717
     15 H5          7.3490  -10.4481   -4.2915 H         1 9BE         0.0557
     16 H6          5.3561  -11.8266   -4.8380 H         1 9BE         0.0599
     17 H7          5.1151  -14.0858   -3.8700 H         1 9BE         0.0559
     18 H8          6.8456  -14.9571   -2.3191 H         1 9BE         0.0599
     19 H9          8.8233  -13.5834   -1.7592 H         1 9BE         0.0557
@<TRIPOS>BOND
     1    1    2 2  
     2    2    3 am 
     3    3    4 1  
     4    4    5 1  
     5    5    6 ar 
     6    5   10 ar 
     7    6    7 ar 
     8    7    8 ar 
     9    8    9 ar 
    10    9   10 ar 
    11    2   11 1  
    12    3   12 1  
    13    4   13 1  
    14    4   14 1  
    15    6   15 1  
    16    7   16 1  
    17    8   17 1  
    18    9   18 1  
    19   10   19 1  
@<TRIPOS>SUBSTRUCTURE
     1 9BE         1

