### 
### Created by X-TOOL on Mon Sep 10 21:13:20 2018
### 

@<TRIPOS>MOLECULE
3wns_ligand
   13    12     1     0     0
SMALL
GAST_HUCK


@<TRIPOS>ATOM
      1 C6         30.2600   17.2050  102.3970 C.3       1 9AI         0.0655
      2 C5         30.1220   15.7460  102.1740 C.2       1 9AI        -0.0646
      3 C4         29.0520   14.9700  102.6190 C.2       1 9AI        -0.1153
      4 C1         30.9290   18.9840  100.6830 C.2       1 9AI         0.0461
      5 N1         30.1710   17.8500  101.0880 N.am      1 9AI        -0.2867
      6 S6         31.9880   19.6580  101.7240 S.2       1 9AI        -0.2516
      7 H1         31.2327   17.4255  102.8609 H         1 9AI         0.0734
      8 H2         29.4519   17.5650  103.0507 H         1 9AI         0.0734
      9 H3         30.9146   15.2430  101.6220 H         1 9AI         0.0695
     10 H4         29.0306   13.9013  102.4106 H         1 9AI         0.0290
     11 H5         28.2379   15.4327  103.1749 H         1 9AI         0.0290
     12 H6         30.8028   19.3992   99.6842 H         1 9AI         0.1275
     13 H7         29.5279   17.4645  100.4263 H         1 9AI         0.2049
@<TRIPOS>BOND
     1    1    2 1  
     2    1    5 1  
     3    2    3 2  
     4    5    4 am 
     5    4    6 2  
     6    1    7 1  
     7    1    8 1  
     8    2    9 1  
     9    3   10 1  
    10    3   11 1  
    11    4   12 1  
    12    5   13 1  
@<TRIPOS>SUBSTRUCTURE
     1 9AI         1

