### 
### Created by X-TOOL on Mon Sep 10 21:13:20 2018
### 

@<TRIPOS>MOLECULE
3wnt_ligand
   19    19     1     0     0
SMALL
GAST_HUCK


@<TRIPOS>ATOM
      1 S01        38.6330  -14.9770   -9.0060 S.2       1 9BE        -0.2517
      2 C02        37.4470  -14.0730   -9.7600 C.2       1 9BE         0.0458
      3 N03        36.2320  -13.7560   -9.1080 N.am      1 9BE        -0.2876
      4 C04        35.8640  -14.1270   -7.7620 C.3       1 9BE         0.0711
      5 C05        34.8270  -13.0910   -7.4020 C.ar      1 9BE        -0.0182
      6 C06        35.2610  -11.7920   -7.2000 C.ar      1 9BE        -0.0581
      7 C07        34.3230  -10.8020   -6.8930 C.ar      1 9BE        -0.0685
      8 C08        32.9850  -11.1190   -6.8220 C.ar      1 9BE        -0.0687
      9 C09        32.5590  -12.4380   -7.0370 C.ar      1 9BE        -0.0685
     10 C10        33.4770  -13.4110   -7.3500 C.ar      1 9BE        -0.0581
     11 H1         37.6131  -13.7197  -10.7766 H         1 9BE         0.1275
     12 H2         35.5644  -13.2243   -9.6291 H         1 9BE         0.2044
     13 H3         36.7296  -14.0731   -7.0853 H         1 9BE         0.0717
     14 H4         35.4382  -15.1408   -7.7327 H         1 9BE         0.0717
     15 H5         36.3138  -11.5459   -7.2788 H         1 9BE         0.0557
     16 H6         34.6491   -9.7844   -6.7108 H         1 9BE         0.0599
     17 H7         32.2581  -10.3463   -6.5991 H         1 9BE         0.0559
     18 H8         31.5076  -12.6891   -6.9564 H         1 9BE         0.0599
     19 H9         33.1489  -14.4236   -7.5553 H         1 9BE         0.0557
@<TRIPOS>BOND
     1    1    2 2  
     2    2    3 am 
     3    3    4 1  
     4    4    5 1  
     5    5    6 ar 
     6    5   10 ar 
     7    6    7 ar 
     8    7    8 ar 
     9    8    9 ar 
    10    9   10 ar 
    11    2   11 1  
    12    3   12 1  
    13    4   13 1  
    14    4   14 1  
    15    6   15 1  
    16    7   16 1  
    17    8   17 1  
    18    9   18 1  
    19   10   19 1  
@<TRIPOS>SUBSTRUCTURE
     1 9BE         1

