### 
### Created by X-TOOL on Mon Sep 10 21:13:25 2018
### 

@<TRIPOS>MOLECULE
3wpn_ligand
   30    31     1     0     0
SMALL
GAST_HUCK


@<TRIPOS>ATOM
      1 O2          6.9940   11.6270   37.4170 O.2       1 B4S        -0.1498
      2 S           6.4270   10.3020   37.5000 S.o2      1 B4S         0.0682
      3 O1          6.7480    9.7530   38.8000 O.2       1 B4S        -0.1498
      4 N           7.0730    9.4120   36.3410 N.am      1 B4S        -0.2604
      5 C10         4.8270   10.3640   37.2830 C.ar      1 B4S         0.1132
      6 C9          4.1030   11.5340   37.5340 C.ar      1 B4S        -0.0286
      7 C8          2.7190   11.5710   37.3270 C.ar      1 B4S        -0.0438
      8 C11         4.1400    9.2370   36.8410 C.ar      1 B4S        -0.0286
      9 C12         2.7610    9.2650   36.6400 C.ar      1 B4S        -0.0438
     10 C7          2.0460   10.4360   36.8920 C.ar      1 B4S         0.0010
     11 C6          0.5830   10.4720   36.6700 C.ar      1 B4S         0.0080
     12 C13        -0.0020   11.6510   36.1740 C.ar      1 B4S         0.0088
     13 C1         -1.3690   11.6200   35.9560 C.ar      1 B4S         0.1670
     14 F1         -2.0590   12.6480   35.5080 F         1 B4S        -0.1566
     15 C5         -0.1810    9.3100   36.9190 C.ar      1 B4S        -0.0299
     16 C4         -1.5550    9.2650   36.7070 C.ar      1 B4S        -0.0349
     17 C2         -2.1680   10.4180   36.2310 C.ar      1 B4S         0.0755
     18 C3         -3.6350   10.5750   35.9680 C.3       1 B4S         0.3682
     19 F2         -4.2030    9.3650   35.8610 F         1 B4S        -0.2310
     20 F3         -3.7440   11.2490   34.8170 F         1 B4S        -0.2310
     21 F4         -4.1330   11.3300   36.9870 F         1 B4S        -0.2310
     22 H1          6.9390    9.6649   35.3828 H         1 B4S         0.1635
     23 H2          7.6114    8.6021   36.5738 H         1 B4S         0.1635
     24 H3          4.6174   12.4187   37.8915 H         1 B4S         0.0652
     25 H4          2.1704   12.4885   37.5067 H         1 B4S         0.0671
     26 H5          4.6873    8.3211   36.6497 H         1 B4S         0.0652
     27 H6          2.2452    8.3787   36.2886 H         1 B4S         0.0671
     28 H7          0.5871   12.5384   35.9727 H         1 B4S         0.0680
     29 H8          0.3209    8.4229   37.2880 H         1 B4S         0.0672
     30 H9         -2.1258    8.3651   36.9054 H         1 B4S         0.0821
@<TRIPOS>BOND
     1    1    2 2  
     2    2    3 2  
     3    2    4 am 
     4    2    5 1  
     5    5    6 ar 
     6    5    8 ar 
     7    6    7 ar 
     8    7   10 ar 
     9    8    9 ar 
    10    9   10 ar 
    11   10   11 1  
    12   11   12 ar 
    13   11   15 ar 
    14   12   13 ar 
    15   13   14 1  
    16   13   17 ar 
    17   15   16 ar 
    18   16   17 ar 
    19   17   18 1  
    20   18   19 1  
    21   18   20 1  
    22   18   21 1  
    23    4   22 1  
    24    4   23 1  
    25    6   24 1  
    26    7   25 1  
    27    8   26 1  
    28    9   27 1  
    29   12   28 1  
    30   15   29 1  
    31   16   30 1  
@<TRIPOS>SUBSTRUCTURE
     1 B4S         1

