### 
### Created by X-TOOL on Sun Nov 13 14:23:29 2016
### 

@<TRIPOS>MOLECULE
3wq5_ligand
   59    61     1     0     0
SMALL
GAST_HUCK


@<TRIPOS>ATOM
      1 C1        -29.2160   12.6310  -21.6010 C.cat     1 VPA         0.2198
      2 C2        -29.0250   12.3870  -20.0990 C.3       1 VPA         0.0533
      3 N2        -30.4000   12.4930  -22.1780 N.pl3     1 VPA        -0.2743
      4 C3        -29.8670   11.2040  -19.5670 C.ar      1 VPA        -0.0405
      5 C4        -30.1600   11.1540  -18.2060 C.ar      1 VPA        -0.0606
      6 C5        -30.9120   10.1090  -17.6760 C.ar      1 VPA        -0.0686
      7 C6        -31.3780    9.0980  -18.5070 C.ar      1 VPA        -0.0687
      8 C8        -30.3360   10.1800  -20.3920 C.ar      1 VPA        -0.0606
      9 C7        -31.0930    9.1370  -19.8670 C.ar      1 VPA        -0.0686
     10 N1        -28.1860   13.0460  -22.3220 N.pl3     1 VPA        -0.2341
     11 C1'       -28.3040   13.2750  -23.7750 C.3       1 VPA         0.2309
     12 O5'       -29.7050   13.5110  -24.0840 O.3       1 VPA        -0.3247
     13 C2'       -27.6140   12.0670  -24.4410 C.3       1 VPA         0.1532
     14 O2'       -26.2160   12.3480  -24.5870 O.3       1 VPA        -0.3818
     15 C3'       -28.2320   11.6960  -25.7930 C.3       1 VPA         0.1162
     16 O3'       -27.8120   10.3900  -26.2050 O.3       1 VPA        -0.3863
     17 C4'       -29.7410   11.7190  -25.6430 C.3       1 VPA         0.1121
     18 O4'       -30.3620   11.2080  -26.8180 O.3       1 VPA        -0.3865
     19 C5'       -30.1830   13.1470  -25.3800 C.3       1 VPA         0.1153
     20 C6'       -31.6890   13.2030  -25.2670 C.3       1 VPA         0.0796
     21 O6'       -31.9550   12.3800  -24.1160 O.3       1 VPA        -0.3461
     22 C1A       -33.3540   12.1350  -23.9520 C.3       1 VPA         0.1876
     23 O5A       -33.8470   13.0020  -22.8990 O.3       1 VPA        -0.3461
     24 C5A       -35.2480   12.7800  -22.6310 C.3       1 VPA         0.0792
     25 C4A       -35.4530   11.3370  -22.1710 C.3       1 VPA         0.1069
     26 O4A       -36.8260   11.1070  -21.8490 O.3       1 VPA        -0.3869
     27 C3A       -35.0110   10.4020  -23.2890 C.3       1 VPA         0.1137
     28 O3A       -35.2040    9.0470  -22.8960 O.3       1 VPA        -0.3864
     29 C2A       -33.5390   10.6630  -23.5750 C.3       1 VPA         0.1341
     30 O2A       -33.0660    9.8090  -24.6250 O.3       1 VPA        -0.3841
     31 H1        -29.3177   13.2977  -19.5559 H         1 VPA         0.0444
     32 H2        -27.9625   12.1734  -19.9109 H         1 VPA         0.0444
     33 H3        -30.5032   12.6625  -23.1887 H         1 VPA         0.3179
     34 H4        -31.2176   12.2162  -21.6161 H         1 VPA         0.3179
     35 H5        -29.7980   11.9385  -17.5514 H         1 VPA         0.0556
     36 H6        -31.1338   10.0843  -16.6152 H         1 VPA         0.0599
     37 H7        -31.9616    8.2819  -18.0965 H         1 VPA         0.0559
     38 H8        -30.1083   10.1976  -21.4517 H         1 VPA         0.0556
     39 H9        -31.4610    8.3536  -20.5197 H         1 VPA         0.0599
     40 H10       -27.2816   13.2128  -21.8581 H         1 VPA         0.3231
     41 H11       -27.7473   14.1807  -24.0577 H         1 VPA         0.1194
     42 H12       -27.7272   11.2005  -23.7729 H         1 VPA         0.0694
     43 H13       -26.1042   13.1199  -25.1294 H         1 VPA         0.2102
     44 H14       -27.9230   12.4307  -26.5511 H         1 VPA         0.0648
     45 H15       -28.2065   10.1816  -27.0437 H         1 VPA         0.2100
     46 H16       -30.0289   11.0899  -24.7879 H         1 VPA         0.0647
     47 H17       -31.3057   11.2282  -26.7104 H         1 VPA         0.2100
     48 H18       -29.8114   13.8254  -26.1621 H         1 VPA         0.0647
     49 H19       -32.1692   12.7918  -26.1672 H         1 VPA         0.0587
     50 H20       -32.0358   14.2342  -25.1050 H         1 VPA         0.0587
     51 H21       -33.8897   12.3482  -24.8888 H         1 VPA         0.0937
     52 H22       -35.8301   12.9596  -23.5469 H         1 VPA         0.0587
     53 H23       -35.5845   13.4683  -21.8417 H         1 VPA         0.0587
     54 H24       -34.8400   11.1503  -21.2769 H         1 VPA         0.0643
     55 H25       -37.3613   11.2663  -22.6175 H         1 VPA         0.2100
     56 H26       -35.6029   10.6037  -24.1940 H         1 VPA         0.0647
     57 H27       -36.1241    8.9002  -22.7106 H         1 VPA         0.2100
     58 H28       -32.9577   10.4532  -22.6650 H         1 VPA         0.0671
     59 H29       -33.5664    9.9740  -25.4155 H         1 VPA         0.2101
@<TRIPOS>BOND
     1    1    2 1  
     2    1    3 ar 
     3    1   10 ar 
     4    2    4 1  
     5    4    5 ar 
     6    4    8 ar 
     7    5    6 ar 
     8    6    7 ar 
     9    7    9 ar 
    10    8    9 ar 
    11   10   11 1  
    12   11   12 1  
    13   11   13 1  
    14   12   19 1  
    15   13   14 1  
    16   13   15 1  
    17   15   16 1  
    18   15   17 1  
    19   17   18 1  
    20   17   19 1  
    21   19   20 1  
    22   20   21 1  
    23   21   22 1  
    24   22   23 1  
    25   22   29 1  
    26   23   24 1  
    27   24   25 1  
    28   25   26 1  
    29   25   27 1  
    30   27   28 1  
    31   27   29 1  
    32   29   30 1  
    33    2   31 1  
    34    2   32 1  
    35    3   33 1  
    36    3   34 1  
    37    5   35 1  
    38    6   36 1  
    39    7   37 1  
    40    8   38 1  
    41    9   39 1  
    42   10   40 1  
    43   11   41 1  
    44   13   42 1  
    45   14   43 1  
    46   15   44 1  
    47   16   45 1  
    48   17   46 1  
    49   18   47 1  
    50   19   48 1  
    51   20   49 1  
    52   20   50 1  
    53   22   51 1  
    54   24   52 1  
    55   24   53 1  
    56   25   54 1  
    57   26   55 1  
    58   27   56 1  
    59   28   57 1  
    60   29   58 1  
    61   30   59 1  
@<TRIPOS>SUBSTRUCTURE
     1 VPA         1

