### 
### Created by X-TOOL on Sun Nov 13 14:23:29 2016
### 

@<TRIPOS>MOLECULE
3wq6_ligand
   79    82     1     0     0
SMALL
GAST_HUCK


@<TRIPOS>ATOM
      1 C13        -1.3230   31.5630   18.0160 C.ar      1 ZPA        -0.0580
      2 C14        -0.3400   30.8640   18.7110 C.ar      1 ZPA        -0.0685
      3 C15        -0.4520   30.6750   20.0840 C.ar      1 ZPA        -0.0687
      4 C16        -1.5540   31.1840   20.7640 C.ar      1 ZPA        -0.0685
      5 C17        -2.5290   31.8900   20.0660 C.ar      1 ZPA        -0.0580
      6 C12        -2.4160   32.0930   18.6920 C.ar      1 ZPA        -0.0161
      7 C11        -3.5210   32.8380   17.9200 C.3       1 ZPA         0.0922
      8 N8         -3.4350   34.3080   17.7560 N.am      1 ZPA        -0.1728
      9 C7         -2.6030   34.8260   16.7350 C.2       1 ZPA         0.2242
     10 O7         -2.2050   34.1960   15.7570 O.2       1 ZPA        -0.3845
     11 C9         -3.3220   35.1430   18.8860 C.2       1 ZPA         0.2122
     12 O9         -3.4260   34.8100   20.0670 O.2       1 ZPA        -0.3857
     13 C10        -3.0220   36.5600   18.3810 C.3       1 ZPA         0.0721
     14 C6         -2.3500   36.3260   17.0110 C.3       1 ZPA         0.1168
     15 S5         -0.5560   36.7420   17.0630 S.3       1 ZPA        -0.1328
     16 C4          0.1190   35.2900   17.9510 C.3       1 ZPA        -0.0038
     17 C3          0.0540   35.3420   19.4890 C.3       1 ZPA        -0.0412
     18 C2          0.5630   33.9950   20.0140 C.3       1 ZPA         0.0198
     19 C1          0.3320   33.7200   21.5080 C.cat     1 ZPA         0.2083
     20 N2         -0.7150   34.2240   22.1230 N.pl3     1 ZPA        -0.2761
     21 N1          1.1970   32.9280   22.1140 N.pl3     1 ZPA        -0.2359
     22 C1'         1.1500   32.5480   23.5140 C.3       1 ZPA         0.2307
     23 O5'        -0.2160   32.2660   23.8500 O.3       1 ZPA        -0.3247
     24 C2'         1.9070   33.6250   24.3380 C.3       1 ZPA         0.1532
     25 O2'         3.2920   33.2700   24.4530 O.3       1 ZPA        -0.3818
     26 C3'         1.3280   33.8220   25.7400 C.3       1 ZPA         0.1162
     27 O3'         1.8230   35.0470   26.2880 O.3       1 ZPA        -0.3863
     28 C4'        -0.1920   33.8490   25.6330 C.3       1 ZPA         0.1121
     29 O4'        -0.7880   34.2190   26.8770 O.3       1 ZPA        -0.3865
     30 C5'        -0.6370   32.4540   25.2150 C.3       1 ZPA         0.1153
     31 C6'        -2.1440   32.3740   25.2110 C.3       1 ZPA         0.0796
     32 O6'        -2.4870   33.3300   24.2070 O.3       1 ZPA        -0.3461
     33 C1A        -3.8910   33.4840   24.0620 C.3       1 ZPA         0.1876
     34 O5A        -4.3570   32.5700   23.0470 O.3       1 ZPA        -0.3461
     35 C5A        -5.7520   32.7760   22.7010 C.3       1 ZPA         0.0792
     36 C4A        -5.9980   34.2170   22.2320 C.3       1 ZPA         0.1069
     37 O4A        -7.3870   34.3900   21.9120 O.3       1 ZPA        -0.3869
     38 C3A        -5.5510   35.1910   23.3220 C.3       1 ZPA         0.1137
     39 O3A        -5.7090   36.5510   22.9110 O.3       1 ZPA        -0.3864
     40 C2A        -4.0780   34.9290   23.6050 C.3       1 ZPA         0.1341
     41 O2A        -3.5830   35.8350   24.5970 O.3       1 ZPA        -0.3841
     42 H1         -1.2358   31.6945   16.9435 H         1 ZPA         0.0557
     43 H2          0.5165   30.4653   18.1795 H         1 ZPA         0.0599
     44 H3          0.3167   30.1329   20.6228 H         1 ZPA         0.0559
     45 H4         -1.6526   31.0313   21.8327 H         1 ZPA         0.0599
     46 H5         -3.3865   32.2867   20.5973 H         1 ZPA         0.0557
     47 H6         -4.4688   32.6292   18.4377 H         1 ZPA         0.0741
     48 H7         -3.5521   32.4051   16.9093 H         1 ZPA         0.0741
     49 H8         -2.3412   37.0850   19.0672 H         1 ZPA         0.0544
     50 H9         -3.9493   37.1409   18.2688 H         1 ZPA         0.0544
     51 H10        -2.8317   36.9412   16.2367 H         1 ZPA         0.0683
     52 H11         1.1752   35.1820   17.6634 H         1 ZPA         0.0378
     53 H12        -0.4433   34.4039   17.6213 H         1 ZPA         0.0378
     54 H13        -0.9833   35.5056   19.8164 H         1 ZPA         0.0270
     55 H14         0.6900   36.1569   19.8651 H         1 ZPA         0.0270
     56 H15         1.6461   33.9494   19.8276 H         1 ZPA         0.0282
     57 H16         0.0591   33.2003   19.4444 H         1 ZPA         0.0282
     58 H17        -0.8639   34.0358   23.1246 H         1 ZPA         0.3177
     59 H18        -1.3863   34.8071   21.6032 H         1 ZPA         0.3177
     60 H19         1.9685   32.5486   21.5468 H         1 ZPA         0.3229
     61 H20         1.7060   31.6076   23.6422 H         1 ZPA         0.1194
     62 H21         1.8303   34.5804   23.7983 H         1 ZPA         0.0694
     63 H22         3.3672   32.4303   24.8909 H         1 ZPA         0.2102
     64 H23         1.6332   32.9869   26.3877 H         1 ZPA         0.0648
     65 H24         1.4642   35.1708   27.1589 H         1 ZPA         0.2100
     66 H25        -0.4932   34.5771   24.8655 H         1 ZPA         0.0647
     67 H26        -1.7334   34.2283   26.7836 H         1 ZPA         0.2100
     68 H27        -0.2048   31.6910   25.8791 H         1 ZPA         0.0647
     69 H28        -2.5621   32.6537   26.1892 H         1 ZPA         0.0587
     70 H29        -2.4905   31.3661   24.9387 H         1 ZPA         0.0587
     71 H30        -4.4153   33.2986   25.0111 H         1 ZPA         0.0937
     72 H31        -6.3750   32.5746   23.5849 H         1 ZPA         0.0587
     73 H32        -6.0278   32.0830   21.8925 H         1 ZPA         0.0587
     74 H33        -5.4029   34.4055   21.3263 H         1 ZPA         0.0643
     75 H34        -7.9128   34.2148   22.6836 H         1 ZPA         0.2100
     76 H35        -6.1442   35.0176   24.2320 H         1 ZPA         0.0647
     77 H36        -6.6238   36.7176   22.7165 H         1 ZPA         0.2100
     78 H37        -3.5084   35.0824   22.6765 H         1 ZPA         0.0671
     79 H38        -4.0752   35.7217   25.4016 H         1 ZPA         0.2101
@<TRIPOS>BOND
     1    1    2 ar 
     2    1    6 ar 
     3    2    3 ar 
     4    3    4 ar 
     5    4    5 ar 
     6    5    6 ar 
     7    6    7 1  
     8    7    8 1  
     9    8    9 am 
    10    8   11 am 
    11    9   10 2  
    12    9   14 1  
    13   11   12 2  
    14   11   13 1  
    15   13   14 1  
    16   14   15 1  
    17   15   16 1  
    18   16   17 1  
    19   17   18 1  
    20   18   19 1  
    21   19   20 ar 
    22   19   21 ar 
    23   21   22 1  
    24   22   23 1  
    25   22   24 1  
    26   23   30 1  
    27   24   25 1  
    28   24   26 1  
    29   26   27 1  
    30   26   28 1  
    31   28   29 1  
    32   28   30 1  
    33   30   31 1  
    34   31   32 1  
    35   32   33 1  
    36   33   34 1  
    37   33   40 1  
    38   34   35 1  
    39   35   36 1  
    40   36   37 1  
    41   36   38 1  
    42   38   39 1  
    43   38   40 1  
    44   40   41 1  
    45    1   42 1  
    46    2   43 1  
    47    3   44 1  
    48    4   45 1  
    49    5   46 1  
    50    7   47 1  
    51    7   48 1  
    52   13   49 1  
    53   13   50 1  
    54   14   51 1  
    55   16   52 1  
    56   16   53 1  
    57   17   54 1  
    58   17   55 1  
    59   18   56 1  
    60   18   57 1  
    61   20   58 1  
    62   20   59 1  
    63   21   60 1  
    64   22   61 1  
    65   24   62 1  
    66   25   63 1  
    67   26   64 1  
    68   27   65 1  
    69   28   66 1  
    70   29   67 1  
    71   30   68 1  
    72   31   69 1  
    73   31   70 1  
    74   33   71 1  
    75   35   72 1  
    76   35   73 1  
    77   36   74 1  
    78   37   75 1  
    79   38   76 1  
    80   39   77 1  
    81   40   78 1  
    82   41   79 1  
@<TRIPOS>SUBSTRUCTURE
     1 ZPA         1

