### 
### Created by X-TOOL on Mon Sep 10 21:13:25 2018
### 

@<TRIPOS>MOLECULE
3wqh_ligand
   54    56     1     0     0
SMALL
GAST_HUCK


@<TRIPOS>ATOM
      1 N1         50.3840   50.3090   36.6630 N.1       1 SKK        -0.3011
      2 N2         47.2120   50.6150   37.8760 N.am      1 SKK        -0.2421
      3 N3         45.4720   52.1400   34.9750 N.4       1 SKK         0.2493
      4 N4         45.3230   51.1640   31.3750 N.am      1 SKK        -0.2824
      5 N5         43.7290   49.1470   27.2580 N.2       1 SKK        -0.2679
      6 N6         45.9620   48.7400   28.0500 N.pl3     1 SKK        -0.1359
      7 N7         47.1110   48.0610   27.6630 N.2       1 SKK        -0.2157
      8 O8         47.7620   52.3970   36.5880 O.2       1 SKK        -0.3909
      9 O9         43.1130   51.2730   30.8430 O.2       1 SKK        -0.3921
     10 C10        49.5660   50.3910   37.4750 C.1       1 SKK         0.1184
     11 C11        48.5120   50.5140   38.4970 C.3       1 SKK         0.1685
     12 C12        48.3610   49.2870   39.4120 C.3       1 SKK        -0.0031
     13 C13        46.8620   49.1530   39.6460 C.3       1 SKK        -0.0283
     14 C14        46.2400   49.6450   38.3400 C.3       1 SKK         0.0366
     15 C15        46.9390   51.5510   36.9420 C.2       1 SKK         0.2258
     16 C16        45.5380   51.5360   36.3230 C.3       1 SKK         0.0569
     17 C17        45.8960   51.3210   33.8070 C.3       1 SKK         0.0046
     18 C18        47.4280   51.3780   33.6390 C.3       1 SKK        -0.0171
     19 C19        45.4570   49.8410   33.9370 C.3       1 SKK        -0.0171
     20 C20        45.2180   51.9720   32.5890 C.3       1 SKK         0.0751
     21 C21        44.2580   50.8850   30.5990 C.2       1 SKK         0.2049
     22 C22        44.5550   50.0580   29.3700 C.2       1 SKK         0.1177
     23 C23        45.7910   49.4740   29.1820 C.2       1 SKK         0.1334
     24 C24        43.5590   49.8580   28.3740 C.2       1 SKK         0.0309
     25 C25        44.9370   48.5720   27.0830 C.2       1 SKK         0.1596
     26 C26        45.4740   47.7880   26.1090 C.2       1 SKK        -0.0348
     27 C27        46.7980   47.5030   26.5080 C.2       1 SKK        -0.0057
     28 C28        47.7910   46.6690   25.7570 C.3       1 SKK        -0.0298
     29 H1         46.0548   52.9623   34.9888 H         1 SKK         0.2038
     30 H2         44.5138   52.4099   34.8167 H         1 SKK         0.2038
     31 H3         46.2184   50.8053   31.1111 H         1 SKK         0.1842
     32 H4         48.7219   51.4071   39.1038 H         1 SKK         0.0863
     33 H5         48.8882   49.4472   40.3640 H         1 SKK         0.0310
     34 H6         48.7576   48.3866   38.9202 H         1 SKK         0.0310
     35 H7         46.5407   49.7781   40.4922 H         1 SKK         0.0286
     36 H8         46.5883   48.1053   39.8393 H         1 SKK         0.0286
     37 H9         46.1248   48.8217   37.6196 H         1 SKK         0.0523
     38 H10        45.2620   50.1160   38.5181 H         1 SKK         0.0523
     39 H11        45.2024   50.4909   36.2511 H         1 SKK         0.1062
     40 H12        44.8605   52.0939   36.9861 H         1 SKK         0.1062
     41 H13        47.7248   50.7685   32.7727 H         1 SKK         0.0288
     42 H14        47.9112   50.9858   34.5460 H         1 SKK         0.0288
     43 H15        47.7407   52.4203   33.4783 H         1 SKK         0.0288
     44 H16        45.7928   49.2799   33.0525 H         1 SKK         0.0288
     45 H17        44.3607   49.7887   34.0098 H         1 SKK         0.0288
     46 H18        45.9058   49.4034   34.8409 H         1 SKK         0.0288
     47 H19        44.1528   52.1212   32.8194 H         1 SKK         0.0578
     48 H20        45.6930   52.9466   32.4032 H         1 SKK         0.0578
     49 H21        46.5938   49.5955   29.9078 H         1 SKK         0.1456
     50 H22        42.5857   50.3195   28.5344 H         1 SKK         0.1004
     51 H23        44.9797   47.4474   25.2004 H         1 SKK         0.0191
     52 H24        47.3323   46.3013   24.8273 H         1 SKK         0.0383
     53 H25        48.0963   45.8141   26.3783 H         1 SKK         0.0383
     54 H26        48.6733   47.2794   25.5141 H         1 SKK         0.0383
@<TRIPOS>BOND
     1   10    1 3  
     2    2   11 1  
     3    2   14 1  
     4   15    2 am 
     5    3   16 1  
     6   17    3 1  
     7    4   20 1  
     8   21    4 am 
     9    5   24 2  
    10   25    5 1  
    11    6    7 1  
    12   23    6 1  
    13    6   25 1  
    14    7   27 2  
    15   15    8 2  
    16   21    9 2  
    17   11   10 1  
    18   11   12 1  
    19   13   12 1  
    20   14   13 1  
    21   16   15 1  
    22   17   18 1  
    23   17   19 1  
    24   20   17 1  
    25   22   21 1  
    26   22   23 2  
    27   22   24 1  
    28   25   26 2  
    29   26   27 1  
    30   27   28 1  
    31    3   29 1  
    32    3   30 1  
    33    4   31 1  
    34   11   32 1  
    35   12   33 1  
    36   12   34 1  
    37   13   35 1  
    38   13   36 1  
    39   14   37 1  
    40   14   38 1  
    41   16   39 1  
    42   16   40 1  
    43   18   41 1  
    44   18   42 1  
    45   18   43 1  
    46   19   44 1  
    47   19   45 1  
    48   19   46 1  
    49   20   47 1  
    50   20   48 1  
    51   23   49 1  
    52   24   50 1  
    53   26   51 1  
    54   28   52 1  
    55   28   53 1  
    56   28   54 1  
@<TRIPOS>SUBSTRUCTURE
     1 SKK         1

