### 
### Created by X-TOOL on Mon Sep 10 21:13:16 2018
### 

@<TRIPOS>MOLECULE
3wqv_ligand
  118   122     1     0     0
SMALL
GAST_HUCK


@<TRIPOS>ATOM
      1 C1        -39.2160   21.9680    3.6960 C.3       1 GCS         0.2030
      2 C2        -37.8700   21.9270    2.9920 C.3       1 GCS         0.0566
      3 C3        -36.8400   22.6610    3.8430 C.3       1 GCS         0.1308
      4 C4        -37.3320   24.0630    4.2180 C.3       1 GCS         0.1214
      5 C5        -38.7820   24.0270    4.7040 C.3       1 GCS         0.1136
      6 C6        -39.3310   25.4340    4.9340 C.3       1 GCS         0.0730
      7 N2        -37.4600   20.5570    2.7480 N.4       1 GCS         0.2263
      8 O1        -40.1670   21.2260    2.9710 O.3       1 GCS        -0.3627
      9 O3        -35.6200   22.6950    3.1370 O.3       1 GCS        -0.3834
     10 O4        -36.5830   24.6090    5.2830 O.3       1 GCS        -0.3376
     11 O5        -39.6100   23.3190    3.8000 O.3       1 GCS        -0.3383
     12 O6        -39.4340   26.1190    3.7080 O.3       1 GCS        -0.3924
     13 C1        -35.3510   25.2340    4.8860 C.3       1 GCS         0.2058
     14 C2        -34.9860   26.2670    5.9480 C.3       1 GCS         0.0568
     15 C3        -33.6130   26.8940    5.7260 C.3       1 GCS         0.1308
     16 C4        -32.5540   25.8390    5.4160 C.3       1 GCS         0.1214
     17 C5        -33.0620   24.8540    4.3640 C.3       1 GCS         0.1136
     18 C6        -32.0870   23.7050    4.1600 C.3       1 GCS         0.0730
     19 N2        -36.0000   27.3030    6.0000 N.4       1 GCS         0.2263
     20 O3        -33.2680   27.6310    6.8790 O.3       1 GCS        -0.3834
     21 O4        -31.3720   26.4500    4.9330 O.3       1 GCS        -0.3376
     22 O5        -34.3070   24.3000    4.7360 O.3       1 GCS        -0.3381
     23 O6        -32.4880   22.9600    3.0330 O.3       1 GCS        -0.3924
     24 C1        -30.4090   26.7140    5.9720 C.3       1 GCS         0.2058
     25 C2        -29.0150   26.7950    5.3610 C.3       1 GCS         0.0568
     26 C3        -27.9440   27.0880    6.4110 C.3       1 GCS         0.1308
     27 C4        -28.3480   28.1910    7.3870 C.3       1 GCS         0.1214
     28 C5        -29.8260   28.1010    7.7820 C.3       1 GCS         0.1136
     29 C6        -30.3150   29.3490    8.5150 C.3       1 GCS         0.0730
     30 N2        -28.7000   25.5690    4.6540 N.4       1 GCS         0.2263
     31 O3        -26.7430   27.4470    5.7630 O.3       1 GCS        -0.3834
     32 O4        -27.5510   28.0220    8.5430 O.3       1 GCS        -0.3376
     33 O5        -30.6580   27.9170    6.6550 O.3       1 GCS        -0.3381
     34 O6        -31.0630   30.1620    7.6370 O.3       1 GCS        -0.3924
     35 C1        -26.9260   29.2410    9.0050 C.3       1 GCS         0.2058
     36 C2        -25.8160   28.9060    9.9810 C.3       1 GCS         0.0568
     37 C3        -25.4360   30.1590   10.7530 C.3       1 GCS         0.1308
     38 C4        -25.2120   31.3670    9.8240 C.3       1 GCS         0.1214
     39 C5        -26.0880   31.3720    8.5600 C.3       1 GCS         0.1136
     40 C6        -25.4430   32.2340    7.4770 C.3       1 GCS         0.0730
     41 N2        -26.2380   27.8550   10.8870 N.4       1 GCS         0.2263
     42 O3        -24.2710   29.8450   11.4900 O.3       1 GCS        -0.3834
     43 O4        -25.4630   32.5950   10.4940 O.3       1 GCS        -0.3376
     44 O5        -26.3650   30.0850    8.0280 O.3       1 GCS        -0.3381
     45 O6        -24.1300   31.7930    7.2070 O.3       1 GCS        -0.3924
     46 C1        -24.5130   32.8370   11.5520 C.3       1 GCS         0.2058
     47 C2        -24.0490   34.2980   11.5680 C.3       1 GCS         0.0567
     48 C3        -23.3340   34.7070   12.8620 C.3       1 GCS         0.1304
     49 C4        -23.8750   34.0140   14.1080 C.3       1 GCS         0.1147
     50 C5        -24.0080   32.5390   13.7840 C.3       1 GCS         0.1132
     51 C6        -24.3160   31.6730   14.9950 C.3       1 GCS         0.0730
     52 N2        -23.1670   34.5460   10.4430 N.4       1 GCS         0.2263
     53 O3        -23.4140   36.1070   13.0200 O.3       1 GCS        -0.3834
     54 O4        -22.9980   34.1900   15.1980 O.3       1 GCS        -0.3864
     55 O5        -25.0130   32.4370   12.8090 O.3       1 GCS        -0.3381
     56 O6        -23.1530   30.9250   15.2570 O.3       1 GCS        -0.3924
     57 H         -39.1179   21.5367    4.7032 H         1 GCS         0.0968
     58 H         -37.9602   22.4410    2.0237 H         1 GCS         0.0927
     59 H         -36.6867   22.0962    4.7744 H         1 GCS         0.0679
     60 H         -37.2504   24.7133    3.3346 H         1 GCS         0.0652
     61 H         -38.7991   23.4955    5.6669 H         1 GCS         0.0647
     62 H         -38.6528   25.9845    5.6026 H         1 GCS         0.0584
     63 H         -40.3264   25.3651    5.3971 H         1 GCS         0.0584
     64 H         -38.1555   20.0934    2.1846 H         1 GCS         0.2000
     65 H         -37.3631   20.0736    3.6272 H         1 GCS         0.2000
     66 H         -36.5766   20.5520    2.2626 H         1 GCS         0.2000
     67 H         -41.0056   21.2682    3.4153 H         1 GCS         0.2127
     68 H         -34.9550   23.1071    3.6759 H         1 GCS         0.2102
     69 H         -40.0206   25.6452    3.1301 H         1 GCS         0.2095
     70 H         -35.5039   25.7423    3.9226 H         1 GCS         0.0970
     71 H         -34.9659   25.7537    6.9207 H         1 GCS         0.0927
     72 H         -33.6738   27.5817    4.8697 H         1 GCS         0.0679
     73 H         -32.3230   25.2893    6.3404 H         1 GCS         0.0652
     74 H         -33.1806   25.3954    3.4139 H         1 GCS         0.0647
     75 H         -32.0877   23.0579    5.0495 H         1 GCS         0.0584
     76 H         -31.0749   24.1041    3.9976 H         1 GCS         0.0584
     77 H         -36.9038   26.8815    6.1468 H         1 GCS         0.2000
     78 H         -36.0043   27.8129    5.1305 H         1 GCS         0.2000
     79 H         -35.7966   27.9345    6.7589 H         1 GCS         0.2000
     80 H         -32.4352   28.0659    6.7381 H         1 GCS         0.2102
     81 H         -31.8830   22.2398    2.8992 H         1 GCS         0.2095
     82 H         -30.4424   25.8857    6.6951 H         1 GCS         0.0970
     83 H         -29.0122   27.6214    4.6351 H         1 GCS         0.0927
     84 H         -27.7727   26.1682    6.9894 H         1 GCS         0.0679
     85 H         -28.1555   29.1741    6.9327 H         1 GCS         0.0652
     86 H         -29.9414   27.2352    8.4507 H         1 GCS         0.0647
     87 H         -29.4489   29.9157    8.8874 H         1 GCS         0.0584
     88 H         -30.9487   29.0489    9.3625 H         1 GCS         0.0584
     89 H         -29.4125   25.3861    3.9648 H         1 GCS         0.2000
     90 H         -28.6618   24.8037    5.3090 H         1 GCS         0.2000
     91 H         -27.8069   25.6648    4.1967 H         1 GCS         0.2000
     92 H         -26.4939   26.7595    5.1566 H         1 GCS         0.2102
     93 H         -31.8119   29.6738    7.3158 H         1 GCS         0.2095
     94 H         -27.7015   29.8171    9.5310 H         1 GCS         0.0970
     95 H         -24.9390   28.5542    9.4180 H         1 GCS         0.0927
     96 H         -26.2478   30.4108   11.4512 H         1 GCS         0.0679
     97 H         -24.1579   31.3444    9.5103 H         1 GCS         0.0652
     98 H         -27.0509   31.8275    8.8344 H         1 GCS         0.0647
     99 H         -25.4101   33.2790    7.8187 H         1 GCS         0.0584
    100 H         -26.0428   32.1676    6.5573 H         1 GCS         0.0584
    101 H         -26.4854   27.0340   10.3571 H         1 GCS         0.2000
    102 H         -27.0376   28.1676   11.4151 H         1 GCS         0.2000
    103 H         -25.4843   27.6329   11.5184 H         1 GCS         0.2000
    104 H         -24.0239   30.5916   12.0229 H         1 GCS         0.2102
    105 H         -23.7458   32.3402    6.5322 H         1 GCS         0.2095
    106 H         -23.6289   32.2169   11.3425 H         1 GCS         0.0970
    107 H         -24.9411   34.9326   11.4614 H         1 GCS         0.0927
    108 H         -22.2748   34.4283   12.7603 H         1 GCS         0.0679
    109 H         -24.8600   34.4303   14.3657 H         1 GCS         0.0648
    110 H         -23.0574   32.1869   13.3570 H         1 GCS         0.0647
    111 H         -25.1591   31.0009   14.7771 H         1 GCS         0.0584
    112 H         -24.5647   32.3046   15.8606 H         1 GCS         0.0584
    113 H         -23.6299   34.2796    9.5881 H         1 GCS         0.2000
    114 H         -22.3238   34.0044   10.5513 H         1 GCS         0.2000
    115 H         -22.9346   35.5262   10.4079 H         1 GCS         0.2000
    116 H         -23.0756   36.5324   12.2408 H         1 GCS         0.2102
    117 H         -22.9204   35.1162   15.3942 H         1 GCS         0.2100
    118 H         -23.3005   30.3659   16.0107 H         1 GCS         0.2095
@<TRIPOS>BOND
     1    1    2 1  
     2    1    8 1  
     3    1   11 1  
     4    2    3 1  
     5    2    7 1  
     6    3    4 1  
     7    3    9 1  
     8    4    5 1  
     9    4   10 1  
    10    5    6 1  
    11    5   11 1  
    12    6   12 1  
    13   10   13 1  
    14   13   14 1  
    15   13   22 1  
    16   14   15 1  
    17   14   19 1  
    18   15   16 1  
    19   15   20 1  
    20   16   17 1  
    21   16   21 1  
    22   17   18 1  
    23   17   22 1  
    24   18   23 1  
    25   21   24 1  
    26   24   25 1  
    27   24   33 1  
    28   25   26 1  
    29   25   30 1  
    30   26   27 1  
    31   26   31 1  
    32   27   28 1  
    33   27   32 1  
    34   28   29 1  
    35   28   33 1  
    36   29   34 1  
    37   32   35 1  
    38   35   36 1  
    39   35   44 1  
    40   36   37 1  
    41   36   41 1  
    42   37   38 1  
    43   37   42 1  
    44   38   39 1  
    45   38   43 1  
    46   39   40 1  
    47   39   44 1  
    48   40   45 1  
    49   43   46 1  
    50   46   47 1  
    51   46   55 1  
    52   47   48 1  
    53   47   52 1  
    54   48   49 1  
    55   48   53 1  
    56   49   50 1  
    57   49   54 1  
    58   50   51 1  
    59   50   55 1  
    60   51   56 1  
    61    1   57 1  
    62    2   58 1  
    63    3   59 1  
    64    4   60 1  
    65    5   61 1  
    66    6   62 1  
    67    6   63 1  
    68    7   64 1  
    69    7   65 1  
    70    7   66 1  
    71    8   67 1  
    72    9   68 1  
    73   12   69 1  
    74   13   70 1  
    75   14   71 1  
    76   15   72 1  
    77   16   73 1  
    78   17   74 1  
    79   18   75 1  
    80   18   76 1  
    81   19   77 1  
    82   19   78 1  
    83   19   79 1  
    84   20   80 1  
    85   23   81 1  
    86   24   82 1  
    87   25   83 1  
    88   26   84 1  
    89   27   85 1  
    90   28   86 1  
    91   29   87 1  
    92   29   88 1  
    93   30   89 1  
    94   30   90 1  
    95   30   91 1  
    96   31   92 1  
    97   34   93 1  
    98   35   94 1  
    99   36   95 1  
   100   37   96 1  
   101   38   97 1  
   102   39   98 1  
   103   40   99 1  
   104   40  100 1  
   105   41  101 1  
   106   41  102 1  
   107   41  103 1  
   108   42  104 1  
   109   45  105 1  
   110   46  106 1  
   111   47  107 1  
   112   48  108 1  
   113   49  109 1  
   114   50  110 1  
   115   51  111 1  
   116   51  112 1  
   117   52  113 1  
   118   52  114 1  
   119   52  115 1  
   120   53  116 1  
   121   54  117 1  
   122   56  118 1  
@<TRIPOS>SUBSTRUCTURE
     1 GCS         1

