### 
### Created by X-TOOL on Mon Sep 10 21:13:16 2018
### 

@<TRIPOS>MOLECULE
3wqw_ligand
  116   120     1     0     0
SMALL
GAST_HUCK


@<TRIPOS>ATOM
      1 C1        -38.9660   22.0520    3.5140 C.2       1 GCS         0.2858
      2 C2        -37.7730   21.8970    2.5430 C.3       1 GCS         0.1052
      3 C3        -36.7490   22.6040    3.4850 C.3       1 GCS         0.1449
      4 C4        -37.3230   24.0230    3.8580 C.3       1 GCS         0.1279
      5 C5        -38.7890   24.0320    4.3890 C.3       1 GCS         0.1395
      6 C6        -39.3980   25.4210    4.7280 C.3       1 GCS         0.0774
      7 N2        -37.5340   20.4760    2.4060 N.4       1 GCS         0.2410
      8 O1        -39.7710   21.0120    3.7990 O.2       1 GCS        -0.3640
      9 O3        -35.4730   22.6040    2.8570 O.3       1 GCS        -0.3809
     10 O4        -36.5620   24.6490    4.8980 O.3       1 GCS        -0.3371
     11 O5        -39.6320   23.3140    3.4730 O.3       1 GCS        -0.2642
     12 O6        -39.3160   26.1200    3.5260 O.3       1 GCS        -0.3920
     13 C1        -35.3170   25.2290    4.5580 C.3       1 GCS         0.2058
     14 C2        -34.9800   26.2450    5.6710 C.3       1 GCS         0.0568
     15 C3        -33.6180   26.8910    5.4450 C.3       1 GCS         0.1308
     16 C4        -32.6000   25.7770    5.1910 C.3       1 GCS         0.1214
     17 C5        -33.0690   24.8250    4.0850 C.3       1 GCS         0.1136
     18 C6        -32.0570   23.6610    3.8690 C.3       1 GCS         0.0730
     19 N2        -35.9950   27.2950    5.7900 N.4       1 GCS         0.2263
     20 O3        -33.3360   27.6850    6.6330 O.3       1 GCS        -0.3834
     21 O4        -31.3470   26.3430    4.7630 O.3       1 GCS        -0.3376
     22 O5        -34.2990   24.2370    4.4470 O.3       1 GCS        -0.3381
     23 O6        -32.5190   22.9810    2.7070 O.3       1 GCS        -0.3924
     24 C1        -30.3580   26.5520    5.8140 C.3       1 GCS         0.2058
     25 C2        -28.9930   26.8000    5.1890 C.3       1 GCS         0.0568
     26 C3        -27.8770   27.0110    6.2010 C.3       1 GCS         0.1308
     27 C4        -28.3120   28.1810    7.0430 C.3       1 GCS         0.1214
     28 C5        -29.7420   27.9540    7.5370 C.3       1 GCS         0.1136
     29 C6        -30.1550   29.0940    8.4900 C.3       1 GCS         0.0730
     30 N2        -28.5760   25.9560    4.0780 N.4       1 GCS         0.2263
     31 O3        -26.6850   27.3320    5.4890 O.3       1 GCS        -0.3834
     32 O4        -27.4540   28.0810    8.1480 O.3       1 GCS        -0.3376
     33 O5        -30.6200   27.8140    6.4250 O.3       1 GCS        -0.3381
     34 O6        -30.4440   30.1210    7.5990 O.3       1 GCS        -0.3924
     35 C1        -26.8490   29.3320    8.6060 C.3       1 GCS         0.2058
     36 C2        -25.8460   28.9600    9.7080 C.3       1 GCS         0.0568
     37 C3        -25.4420   30.1940   10.5470 C.3       1 GCS         0.1308
     38 C4        -25.1980   31.4170    9.6020 C.3       1 GCS         0.1214
     39 C5        -25.7920   31.3790    8.1590 C.3       1 GCS         0.1136
     40 C6        -24.8000   32.0130    7.1650 C.3       1 GCS         0.0730
     41 N2        -26.3670   27.8270   10.4860 N.4       1 GCS         0.2263
     42 O3        -24.3220   29.8950   11.4290 O.3       1 GCS        -0.3834
     43 O4        -25.6230   32.6410   10.2180 O.3       1 GCS        -0.3376
     44 O5        -26.2200   30.1200    7.6330 O.3       1 GCS        -0.3381
     45 O6        -23.5030   31.4570    7.2650 O.3       1 GCS        -0.3924
     46 C1        -24.7630   32.9520   11.3520 C.3       1 GCS         0.2058
     47 C2        -24.1270   34.3690   11.2830 C.3       1 GCS         0.0567
     48 C3        -23.4030   34.7700   12.6250 C.3       1 GCS         0.1304
     49 C4        -23.9490   34.1670   13.9420 C.3       1 GCS         0.1147
     50 C5        -24.1860   32.7000   13.5940 C.3       1 GCS         0.1132
     51 C6        -24.1850   31.7110   14.7640 C.3       1 GCS         0.0730
     52 N2        -23.2270   34.4600   10.1190 N.4       1 GCS         0.2263
     53 O3        -23.1920   36.1830   12.7900 O.3       1 GCS        -0.3834
     54 O4        -23.0140   34.2990   15.0030 O.3       1 GCS        -0.3864
     55 O5        -25.2740   32.6280   12.6610 O.3       1 GCS        -0.3381
     56 O6        -22.8980   31.1150   14.7590 O.3       1 GCS        -0.3924
     57 H         -37.8923   22.3856    1.5647 H         1 GCS         0.1142
     58 H         -36.6598   22.0252    4.4161 H         1 GCS         0.0705
     59 H         -37.2754   24.6416    2.9497 H         1 GCS         0.0657
     60 H         -38.7768   23.4690    5.3339 H         1 GCS         0.0700
     61 H         -38.8155   25.9233    5.5143 H         1 GCS         0.0587
     62 H         -40.4441   25.3218    5.0534 H         1 GCS         0.0587
     63 H         -38.2240   20.0772    1.7887 H         1 GCS         0.2017
     64 H         -37.5979   20.0358    3.3105 H         1 GCS         0.2017
     65 H         -36.6137   20.3254    2.0233 H         1 GCS         0.2017
     66 H         -34.8365   23.0070    3.4357 H         1 GCS         0.2104
     67 H         -39.8138   25.6612    2.8596 H         1 GCS         0.2095
     68 H         -35.4058   25.7529    3.5949 H         1 GCS         0.0970
     69 H         -34.9455   25.6952    6.6231 H         1 GCS         0.0927
     70 H         -33.6488   27.5524    4.5666 H         1 GCS         0.0679
     71 H         -32.4528   25.2108    6.1225 H         1 GCS         0.0652
     72 H         -33.1853   25.3917    3.1494 H         1 GCS         0.0647
     73 H         -32.0544   22.9851    4.7368 H         1 GCS         0.0584
     74 H         -31.0428   24.0554    3.7083 H         1 GCS         0.0584
     75 H         -36.8984   26.8736    5.9397 H         1 GCS         0.2000
     76 H         -36.0150   27.8406    4.9427 H         1 GCS         0.2000
     77 H         -35.7700   27.8931    6.5695 H         1 GCS         0.2000
     78 H         -32.4841   28.0957    6.5432 H         1 GCS         0.2102
     79 H         -31.9404   22.2518    2.5172 H         1 GCS         0.2095
     80 H         -30.3524   25.7184    6.5316 H         1 GCS         0.0970
     81 H         -29.1162   27.7872    4.7198 H         1 GCS         0.0927
     82 H         -27.7239   26.1155    6.8212 H         1 GCS         0.0679
     83 H         -28.2181   29.1404    6.5131 H         1 GCS         0.0652
     84 H         -29.7679   27.0134    8.1067 H         1 GCS         0.0647
     85 H         -29.3313   29.3697    9.1649 H         1 GCS         0.0584
     86 H         -31.0391   28.8188    9.0838 H         1 GCS         0.0584
     87 H         -29.3439   25.8437    3.4347 H         1 GCS         0.2000
     88 H         -28.2965   25.0531    4.4284 H         1 GCS         0.2000
     89 H         -27.7991   26.3869    3.6018 H         1 GCS         0.2000
     90 H         -25.9955   27.5439    6.1072 H         1 GCS         0.2102
     91 H         -31.1444   29.8473    7.0184 H         1 GCS         0.2095
     92 H         -27.6494   29.9453    9.0455 H         1 GCS         0.0970
     93 H         -24.9288   28.6086    9.2128 H         1 GCS         0.0927
     94 H         -26.2945   30.4501   11.1932 H         1 GCS         0.0679
     95 H         -24.1066   31.4731    9.4772 H         1 GCS         0.0652
     96 H         -26.6885   32.0157    8.1887 H         1 GCS         0.0647
     97 H         -24.7378   33.0922    7.3686 H         1 GCS         0.0584
     98 H         -25.1742   31.8536    6.1430 H         1 GCS         0.0584
     99 H         -26.6036   27.0715    9.8621 H         1 GCS         0.2000
    100 H         -27.1902   28.1162   10.9908 H         1 GCS         0.2000
    101 H         -25.6645   27.5162   11.1386 H         1 GCS         0.2000
    102 H         -24.1464   30.6471   11.9821 H         1 GCS         0.2102
    103 H         -22.9297   31.8781    6.6353 H         1 GCS         0.2095
    104 H         -23.9124   32.2658   11.2269 H         1 GCS         0.0970
    105 H         -24.9430   35.0903   11.1285 H         1 GCS         0.0927
    106 H         -22.3971   34.3381   12.5177 H         1 GCS         0.0679
    107 H         -24.8917   34.6552   14.2299 H         1 GCS         0.0648
    108 H         -23.3011   32.4005   13.0134 H         1 GCS         0.0647
    109 H         -24.9627   30.9463   14.6210 H         1 GCS         0.0584
    110 H         -24.3599   32.2389   15.7131 H         1 GCS         0.0584
    111 H         -23.7283   34.1961    9.2853 H         1 GCS         0.2000
    112 H         -22.4436   33.8395   10.2506 H         1 GCS         0.2000
    113 H         -22.8937   35.4067   10.0251 H         1 GCS         0.2000
    114 H         -22.5642   36.3289   13.4880 H         1 GCS         0.2102
    115 H         -22.8860   35.2199   15.1980 H         1 GCS         0.2100
    116 H         -22.8383   30.4870   15.4693 H         1 GCS         0.2095
@<TRIPOS>BOND
     1    1    2 1  
     2    1    8 2  
     3    1   11 1  
     4    2    3 1  
     5    2    7 1  
     6    3    4 1  
     7    3    9 1  
     8    4    5 1  
     9    4   10 1  
    10    5    6 1  
    11    5   11 1  
    12    6   12 1  
    13   10   13 1  
    14   13   14 1  
    15   13   22 1  
    16   14   15 1  
    17   14   19 1  
    18   15   16 1  
    19   15   20 1  
    20   16   17 1  
    21   16   21 1  
    22   17   18 1  
    23   17   22 1  
    24   18   23 1  
    25   21   24 1  
    26   24   25 1  
    27   24   33 1  
    28   25   26 1  
    29   25   30 1  
    30   26   27 1  
    31   26   31 1  
    32   27   28 1  
    33   27   32 1  
    34   28   29 1  
    35   28   33 1  
    36   29   34 1  
    37   32   35 1  
    38   35   36 1  
    39   35   44 1  
    40   36   37 1  
    41   36   41 1  
    42   37   38 1  
    43   37   42 1  
    44   38   39 1  
    45   38   43 1  
    46   39   40 1  
    47   39   44 1  
    48   40   45 1  
    49   43   46 1  
    50   46   47 1  
    51   46   55 1  
    52   47   48 1  
    53   47   52 1  
    54   48   49 1  
    55   48   53 1  
    56   49   50 1  
    57   49   54 1  
    58   50   51 1  
    59   50   55 1  
    60   51   56 1  
    61    2   57 1  
    62    3   58 1  
    63    4   59 1  
    64    5   60 1  
    65    6   61 1  
    66    6   62 1  
    67    7   63 1  
    68    7   64 1  
    69    7   65 1  
    70    9   66 1  
    71   12   67 1  
    72   13   68 1  
    73   14   69 1  
    74   15   70 1  
    75   16   71 1  
    76   17   72 1  
    77   18   73 1  
    78   18   74 1  
    79   19   75 1  
    80   19   76 1  
    81   19   77 1  
    82   20   78 1  
    83   23   79 1  
    84   24   80 1  
    85   25   81 1  
    86   26   82 1  
    87   27   83 1  
    88   28   84 1  
    89   29   85 1  
    90   29   86 1  
    91   30   87 1  
    92   30   88 1  
    93   30   89 1  
    94   31   90 1  
    95   34   91 1  
    96   35   92 1  
    97   36   93 1  
    98   37   94 1  
    99   38   95 1  
   100   39   96 1  
   101   40   97 1  
   102   40   98 1  
   103   41   99 1  
   104   41  100 1  
   105   41  101 1  
   106   42  102 1  
   107   45  103 1  
   108   46  104 1  
   109   47  105 1  
   110   48  106 1  
   111   49  107 1  
   112   50  108 1  
   113   51  109 1  
   114   51  110 1  
   115   52  111 1  
   116   52  112 1  
   117   52  113 1  
   118   53  114 1  
   119   54  115 1  
   120   56  116 1  
@<TRIPOS>SUBSTRUCTURE
     1 GCS         1

