### 
### Created by X-TOOL on Mon Sep 10 21:13:20 2018
### 

@<TRIPOS>MOLECULE
3ws8_ligand
   49    53     1     0     0
SMALL
GAST_HUCK


@<TRIPOS>ATOM
      1 C25        17.7930    7.9410   55.8070 C.ar      1 X4C        -0.0704
      2 C24        18.9400    8.5620   56.2580 C.ar      1 X4C        -0.0679
      3 C26        17.7190    6.5580   55.7980 C.ar      1 X4C        -0.0679
      4 C17        23.9800    6.2340   55.0160 C.ar      1 X4C        -0.0732
      5 C15        22.6290    6.3550   55.2740 C.ar      1 X4C        -0.0437
      6 C23        20.0020    7.7970   56.6930 C.ar      1 X4C        -0.0300
      7 C27        18.7890    5.7840   56.2120 C.ar      1 X4C        -0.0300
      8 C12        24.4690    4.9810   57.0140 C.ar      1 X4C        -0.0644
      9 C16        24.8670    5.5740   55.8430 C.ar      1 X4C        -0.0621
     10 C8         23.1270    5.0900   57.2950 C.ar      1 X4C         0.0179
     11 C10        22.2530    5.7480   56.4530 C.ar      1 X4C         0.0916
     12 C18        19.9240    6.4180   56.6600 C.ar      1 X4C         0.0943
     13 C9         18.5290    3.2650   63.0460 C.2       1 X4C        -0.0021
     14 C7         17.6880    2.7140   62.1070 C.2       1 X4C         0.1418
     15 C1         21.2050    4.9630   58.2160 C.2       1 X4C         0.1397
     16 C2         19.5800    3.3700   61.1870 C.2       1 X4C         0.1306
     17 C21        16.6580    1.7800   59.7050 C.2       1 X4C        -0.0045
     18 C14        17.8780    2.3240   59.7280 C.2       1 X4C         0.0886
     19 C22        15.9830    1.7320   61.0270 C.2       1 X4C         0.0020
     20 C20        26.2950    5.5080   55.4580 C.3       1 X4C        -0.0371
     21 C28        18.3350    3.4520   64.4870 C.3       1 X4C        -0.0442
     22 C11        20.1140    4.6550   59.1600 C.3       1 X4C         0.0457
     23 C13        20.5820    3.6160   60.1580 C.3       1 X4C         0.0382
     24 N4         22.4630    4.6120   58.3740 N.2       1 X4C        -0.3165
     25 N3         19.6990    3.6740   62.4610 N.2       1 X4C        -0.3368
     26 N19        16.4530    2.1650   62.1560 N.2       1 X4C        -0.2898
     27 N5         21.0260    5.6550   57.0520 N.pl3     1 X4C        -0.1909
     28 N6         18.3730    2.7800   60.9230 N.pl3     1 X4C        -0.1867
     29 H          16.9535    8.5332   55.4612 H         1 X4C         0.0544
     30 H          19.0058    9.6439   56.2703 H         1 X4C         0.0595
     31 H          16.8091    6.0744   55.4615 H         1 X4C         0.0595
     32 H          24.3677    6.6844   54.1094 H         1 X4C         0.0482
     33 H          21.9375    6.8724   54.6189 H         1 X4C         0.0539
     34 H          20.9002    8.2790   57.0617 H         1 X4C         0.0568
     35 H          18.7336    4.7018   56.1837 H         1 X4C         0.0568
     36 H          25.1609    4.4646   57.6695 H         1 X4C         0.0465
     37 H          16.1970    1.4033   58.7931 H         1 X4C         0.0560
     38 H          18.4677    2.4038   58.8160 H         1 X4C         0.1291
     39 H          14.9895    1.2867   61.0512 H         1 X4C         0.0906
     40 H          26.4410    6.0291   54.5003 H         1 X4C         0.0372
     41 H          26.5982    4.4559   55.3528 H         1 X4C         0.0372
     42 H          26.9068    5.9901   56.2347 H         1 X4C         0.0372
     43 H          19.2272    3.9295   64.9181 H         1 X4C         0.0312
     44 H          18.1750    2.4745   64.9654 H         1 X4C         0.0312
     45 H          17.4573    4.0924   64.6588 H         1 X4C         0.0312
     46 H          19.2486    4.2647   58.6043 H         1 X4C         0.0557
     47 H          19.8234    5.5712   59.6949 H         1 X4C         0.0557
     48 H          20.7847    2.6753   59.6251 H         1 X4C         0.0500
     49 H          21.5057    3.9723   60.6373 H         1 X4C         0.0500
@<TRIPOS>BOND
     1    2    1 ar 
     2    3    1 ar 
     3    6    2 ar 
     4    7    3 ar 
     5    5    4 ar 
     6    4    9 ar 
     7   11    5 ar 
     8   12    6 ar 
     9   12    7 ar 
    10    8    9 ar 
    11   10    8 ar 
    12    9   20 1  
    13   11   10 ar 
    14   24   10 1  
    15   27   11 1  
    16   27   12 1  
    17   14   13 2  
    18   13   21 1  
    19   25   13 1  
    20   14   26 1  
    21   28   14 1  
    22   22   15 1  
    23   15   24 2  
    24   15   27 1  
    25   23   16 1  
    26   16   25 2  
    27   16   28 1  
    28   18   17 2  
    29   17   19 1  
    30   28   18 1  
    31   26   19 2  
    32   22   23 1  
    33    1   29 1  
    34    2   30 1  
    35    3   31 1  
    36    4   32 1  
    37    5   33 1  
    38    6   34 1  
    39    7   35 1  
    40    8   36 1  
    41   17   37 1  
    42   18   38 1  
    43   19   39 1  
    44   20   40 1  
    45   20   41 1  
    46   20   42 1  
    47   21   43 1  
    48   21   44 1  
    49   21   45 1  
    50   22   46 1  
    51   22   47 1  
    52   23   48 1  
    53   23   49 1  
@<TRIPOS>SUBSTRUCTURE
     1 X4C         1

