### 
### Created by X-TOOL on Mon Sep 10 21:13:20 2018
### 

@<TRIPOS>MOLECULE
3ws9_ligand
   46    50     1     0     0
SMALL
GAST_HUCK


@<TRIPOS>ATOM
      1 C25        17.9520    7.9520   55.8870 C.ar      1 X4D        -0.0704
      2 C24        19.0490    8.5940   56.4540 C.ar      1 X4D        -0.0679
      3 C26        17.8800    6.5720   55.8140 C.ar      1 X4D        -0.0679
      4 C17        24.2190    5.8580   55.5190 C.ar      1 X4D        -0.0732
      5 C15        22.8760    6.1220   55.6870 C.ar      1 X4D        -0.0437
      6 C23        20.0970    7.8390   56.9560 C.ar      1 X4D        -0.0300
      7 C27        18.9340    5.8230   56.3200 C.ar      1 X4D        -0.0300
      8 C12        24.4600    4.6370   57.5640 C.ar      1 X4D        -0.0644
      9 C9         17.0690    1.9920   61.1550 C.2       1 X4D        -0.0205
     10 C16        24.9970    5.1470   56.4080 C.ar      1 X4D        -0.0621
     11 C8         23.1230    4.8880   57.7500 C.ar      1 X4D         0.0179
     12 C10        22.3640    5.6030   56.8470 C.ar      1 X4D         0.0916
     13 C18        20.0370    6.4530   56.8870 C.ar      1 X4D         0.0943
     14 C7         17.5790    2.4330   62.3580 C.2       1 X4D         0.1083
     15 C2         18.9920    2.8850   60.7480 C.2       1 X4D         0.1488
     16 C1         21.1470    4.9560   58.5550 C.2       1 X4D         0.1397
     17 C19        17.1390    2.4280   63.6860 C.2       1 X4D        -0.0199
     18 C22        17.9060    2.9730   64.6400 C.2       1 X4D        -0.0356
     19 C21        19.1960    3.5540   64.1810 C.2       1 X4D         0.0429
     20 C20        26.4440    4.9360   56.1160 C.3       1 X4D        -0.0371
     21 C13        20.2170    3.4070   60.1380 C.3       1 X4D         0.0416
     22 C11        20.0030    4.7400   59.4610 C.3       1 X4D         0.0462
     23 N3         17.9710    2.2830   60.1590 N.2       1 X4D        -0.3343
     24 N4         22.3580    4.4990   58.8010 N.2       1 X4D        -0.3165
     25 N14        19.6510    3.5860   62.9680 N.2       1 X4D        -0.1558
     26 N5         21.0990    5.6500   57.3710 N.pl3     1 X4D        -0.1909
     27 N6         18.8000    3.0020   62.0940 N.pl3     1 X4D        -0.1331
     28 H          17.1354    8.5465   55.4936 H         1 X4D         0.0544
     29 H          19.0834    9.6764   56.5026 H         1 X4D         0.0595
     30 H          17.0185    6.0857   55.3709 H         1 X4D         0.0595
     31 H          24.6977    6.2368   54.6232 H         1 X4D         0.0482
     32 H          22.2847    6.6838   54.9729 H         1 X4D         0.0539
     33 H          20.9576    8.3266   57.3994 H         1 X4D         0.0568
     34 H          18.8971    4.7406   56.2729 H         1 X4D         0.0568
     35 H          25.0500    4.0757   58.2795 H         1 X4D         0.0465
     36 H          16.1099    1.4951   61.0167 H         1 X4D         0.0364
     37 H          16.1785    1.9837   63.9429 H         1 X4D         0.0740
     38 H          17.6038    2.9895   65.6861 H         1 X4D         0.0603
     39 H          19.8268    4.0012   64.9478 H         1 X4D         0.0914
     40 H          26.6971    5.4095   55.1559 H         1 X4D         0.0372
     41 H          26.6532    3.8576   56.0593 H         1 X4D         0.0372
     42 H          27.0491    5.3853   56.9172 H         1 X4D         0.0372
     43 H          20.5740    2.6844   59.3894 H         1 X4D         0.0507
     44 H          20.9781    3.5281   60.9229 H         1 X4D         0.0507
     45 H          19.0648    4.7251   58.8869 H         1 X4D         0.0557
     46 H          19.9604    5.5421   60.2125 H         1 X4D         0.0557
@<TRIPOS>BOND
     1    2    1 ar 
     2    3    1 ar 
     3    6    2 ar 
     4    7    3 ar 
     5    5    4 ar 
     6    4   10 ar 
     7   12    5 ar 
     8   13    6 ar 
     9   13    7 ar 
    10    8   10 ar 
    11   11    8 ar 
    12   14    9 2  
    13   23    9 1  
    14   10   20 1  
    15   12   11 ar 
    16   24   11 1  
    17   26   12 1  
    18   26   13 1  
    19   14   17 1  
    20   27   14 1  
    21   21   15 1  
    22   15   23 2  
    23   15   27 1  
    24   22   16 1  
    25   16   24 2  
    26   16   26 1  
    27   17   18 2  
    28   18   19 1  
    29   19   25 2  
    30   21   22 1  
    31   25   27 1  
    32    1   28 1  
    33    2   29 1  
    34    3   30 1  
    35    4   31 1  
    36    5   32 1  
    37    6   33 1  
    38    7   34 1  
    39    8   35 1  
    40    9   36 1  
    41   17   37 1  
    42   18   38 1  
    43   19   39 1  
    44   20   40 1  
    45   20   41 1  
    46   20   42 1  
    47   21   43 1  
    48   21   44 1  
    49   22   45 1  
    50   22   46 1  
@<TRIPOS>SUBSTRUCTURE
     1 X4D         1

