### 
### Created by X-TOOL on Mon Sep 10 21:13:17 2018
### 

@<TRIPOS>MOLECULE
3wt5_ligand
   86    88     1     0     0
SMALL
GAST_HUCK


@<TRIPOS>ATOM
      1 O2         12.5990    8.9660   55.8230 O.3       1 YA1        -0.3742
      2 C3         11.4810    8.8990   54.9070 C.3       1 YA1         0.1023
      3 C2         11.6460    7.6600   54.0680 C.2       1 YA1        -0.0127
      4 C9         11.8500    7.8200   52.8100 C.2       1 YA1        -0.1238
      5 C1         11.6650    6.3650   54.7650 C.3       1 YA1         0.1023
      6 O1         11.7730    5.2790   53.8150 O.3       1 YA1        -0.3742
      7 C6         10.4430    6.2070   55.6170 C.3       1 YA1         0.0150
      8 C4         10.1520    8.7940   55.6310 C.3       1 YA1         0.0150
      9 C5         10.0010    7.4680   56.3240 C.2       1 YA1        -0.0657
     10 C10         9.3830    7.4390   57.5040 C.2       1 YA1        -0.1086
     11 C11         9.1280    6.2020   58.2670 C.2       1 YA1        -0.1089
     12 C12         8.1220    6.1320   59.1570 C.2       1 YA1        -0.0718
     13 C13         7.1920    7.2760   59.4780 C.3       1 YA1        -0.0234
     14 C14         5.6880    6.8080   59.4490 C.3       1 YA1        -0.0423
     15 C15         5.4370    5.4590   60.1050 C.3       1 YA1        -0.0431
     16 C17         7.8220    4.8690   59.8760 C.3       1 YA1        -0.0062
     17 C16         6.4030    4.4170   59.5930 C.3       1 YA1        -0.0161
     18 C23         6.1560    4.2450   58.1170 C.3       1 YA1        -0.0570
     19 C18         8.6790    3.6530   59.6940 C.3       1 YA1        -0.0393
     20 C19         7.7640    2.5230   60.2120 C.3       1 YA1        -0.0470
     21 C20         6.3660    3.0580   60.3370 C.3       1 YA1        -0.0304
     22 C21         5.2760    2.0690   59.8460 C.3       1 YA1        -0.0375
     23 C22         3.8790    2.7150   59.7600 C.3       1 YA1        -0.0619
     24 C24         5.2210    0.8170   60.6990 C.3       1 YA1        -0.0381
     25 C31         4.0930   -0.1400   60.2260 C.3       1 YA1        -0.0500
     26 C32         4.2370   -0.5060   58.7560 C.3       1 YA1        -0.0530
     27 C33         5.3480   -1.4810   58.6000 C.3       1 YA1        -0.0559
     28 C34         5.2090   -2.3170   57.3290 C.3       1 YA1        -0.0653
     29 C25         4.9750    1.1190   62.1790 C.3       1 YA1        -0.0474
     30 C26         4.9120   -0.1790   62.9970 C.3       1 YA1        -0.0243
     31 C27         5.0380   -0.0220   64.5350 C.3       1 YA1         0.0605
     32 C29         6.4350    0.4150   64.8990 C.3       1 YA1        -0.0363
     33 C28         3.9730    0.9520   65.0550 C.3       1 YA1        -0.0363
     34 O3          4.8430   -1.3130   65.1350 O.3       1 YA1        -0.3891
     35 H          13.4095    9.0075   55.3292 H         1 YA1         0.2139
     36 H          11.4788    9.7944   54.2680 H         1 YA1         0.0819
     37 H          11.9752    6.9523   52.1640 H         1 YA1         0.0077
     38 H          11.8978    8.8234   52.3894 H         1 YA1         0.0077
     39 H          12.5478    6.3385   55.4207 H         1 YA1         0.0819
     40 H          11.0291    5.3011   53.2245 H         1 YA1         0.2139
     41 H          10.6527    5.4420   56.3791 H         1 YA1         0.0490
     42 H           9.6179    5.8673   54.9738 H         1 YA1         0.0490
     43 H           9.3377    8.9095   54.9006 H         1 YA1         0.0490
     44 H          10.0894    9.5971   56.3800 H         1 YA1         0.0490
     45 H           9.0465    8.3830   57.9301 H         1 YA1         0.0219
     46 H           9.7640    5.3326   58.1071 H         1 YA1         0.0219
     47 H           7.3344    8.0744   58.7349 H         1 YA1         0.0437
     48 H           7.4291    7.6616   60.4805 H         1 YA1         0.0437
     49 H           5.3676    6.7446   58.3986 H         1 YA1         0.0290
     50 H           5.0826    7.5629   59.9722 H         1 YA1         0.0290
     51 H           4.4093    5.1366   59.8817 H         1 YA1         0.0274
     52 H           5.5613    5.5601   61.1933 H         1 YA1         0.0274
     53 H           7.8897    5.1272   60.9431 H         1 YA1         0.0478
     54 H           5.1185    3.9174   57.9546 H         1 YA1         0.0237
     55 H           6.8464    3.4887   57.7154 H         1 YA1         0.0237
     56 H           6.3226    5.2032   57.6032 H         1 YA1         0.0237
     57 H           9.6011    3.7231   60.2897 H         1 YA1         0.0293
     58 H           8.9369    3.5025   58.6353 H         1 YA1         0.0293
     59 H           8.1188    2.1801   61.1951 H         1 YA1         0.0270
     60 H           7.7768    1.6816   59.5036 H         1 YA1         0.0270
     61 H           6.1578    3.2514   61.3997 H         1 YA1         0.0311
     62 H           5.5572    1.7621   58.8278 H         1 YA1         0.0304
     63 H           3.1512    1.9691   59.4079 H         1 YA1         0.0233
     64 H           3.9083    3.5596   59.0559 H         1 YA1         0.0233
     65 H           3.5806    3.0772   60.7549 H         1 YA1         0.0233
     66 H           6.1881    0.3017   60.6028 H         1 YA1         0.0303
     67 H           3.1217    0.3541   60.3757 H         1 YA1         0.0268
     68 H           4.1326   -1.0605   60.8269 H         1 YA1         0.0268
     69 H           4.4578    0.3994   58.1716 H         1 YA1         0.0265
     70 H           3.3000   -0.9557   58.3956 H         1 YA1         0.0265
     71 H           5.3517   -2.1556   59.4688 H         1 YA1         0.0263
     72 H           6.2993   -0.9303   58.5593 H         1 YA1         0.0263
     73 H           6.0516   -3.0206   57.2590 H         1 YA1         0.0230
     74 H           5.2115   -1.6536   56.4516 H         1 YA1         0.0230
     75 H           4.2639   -2.8789   57.3612 H         1 YA1         0.0230
     76 H           4.0217    1.6578   62.2836 H         1 YA1         0.0269
     77 H           5.7944    1.7461   62.5602 H         1 YA1         0.0269
     78 H           5.7306   -0.8306   62.6574 H         1 YA1         0.0293
     79 H           3.9468   -0.6627   62.7864 H         1 YA1         0.0293
     80 H           6.5126    0.5230   65.9909 H         1 YA1         0.0257
     81 H           6.6542    1.3800   64.4187 H         1 YA1         0.0257
     82 H           7.1570   -0.3393   64.5530 H         1 YA1         0.0257
     83 H           2.9746    0.5921   64.7658 H         1 YA1         0.0257
     84 H           4.1437    1.9481   64.6206 H         1 YA1         0.0257
     85 H           4.0370    1.0142   66.1514 H         1 YA1         0.0257
     86 H           3.9704   -1.6278   64.9298 H         1 YA1         0.2101
@<TRIPOS>BOND
     1    1    2 1  
     2    2    3 1  
     3    2    8 1  
     4    3    4 2  
     5    3    5 1  
     6    5    6 1  
     7    5    7 1  
     8    7    9 1  
     9    8    9 1  
    10    9   10 2  
    11   10   11 1  
    12   11   12 2  
    13   12   13 1  
    14   12   16 1  
    15   13   14 1  
    16   14   15 1  
    17   15   17 1  
    18   16   17 1  
    19   16   19 1  
    20   17   18 1  
    21   17   21 1  
    22   19   20 1  
    23   20   21 1  
    24   21   22 1  
    25   22   23 1  
    26   22   24 1  
    27   24   25 1  
    28   24   29 1  
    29   25   26 1  
    30   26   27 1  
    31   27   28 1  
    32   29   30 1  
    33   30   31 1  
    34   31   32 1  
    35   31   33 1  
    36   31   34 1  
    37    1   35 1  
    38    2   36 1  
    39    4   37 1  
    40    4   38 1  
    41    5   39 1  
    42    6   40 1  
    43    7   41 1  
    44    7   42 1  
    45    8   43 1  
    46    8   44 1  
    47   10   45 1  
    48   11   46 1  
    49   13   47 1  
    50   13   48 1  
    51   14   49 1  
    52   14   50 1  
    53   15   51 1  
    54   15   52 1  
    55   16   53 1  
    56   18   54 1  
    57   18   55 1  
    58   18   56 1  
    59   19   57 1  
    60   19   58 1  
    61   20   59 1  
    62   20   60 1  
    63   21   61 1  
    64   22   62 1  
    65   23   63 1  
    66   23   64 1  
    67   23   65 1  
    68   24   66 1  
    69   25   67 1  
    70   25   68 1  
    71   26   69 1  
    72   26   70 1  
    73   27   71 1  
    74   27   72 1  
    75   28   73 1  
    76   28   74 1  
    77   28   75 1  
    78   29   76 1  
    79   29   77 1  
    80   30   78 1  
    81   30   79 1  
    82   32   80 1  
    83   32   81 1  
    84   32   82 1  
    85   33   83 1  
    86   33   84 1  
    87   33   85 1  
    88   34   86 1  
@<TRIPOS>SUBSTRUCTURE
     1 YA1         1

