### 
### Created by X-TOOL on Mon Sep 10 21:13:17 2018
### 

@<TRIPOS>MOLECULE
3wt7_ligand
   89    91     1     0     0
SMALL
GAST_HUCK


@<TRIPOS>ATOM
      1 O31         2.1660   -0.6100   59.2180 O.3       1 YA2        -0.3886
      2 C26         2.6420    0.1330   58.1250 C.3       1 YA2         0.0659
      3 C29         2.8900   -0.9000   57.0220 C.3       1 YA2        -0.0268
      4 C30         1.6270   -1.6020   56.5910 C.3       1 YA2        -0.0627
      5 C27         1.5200    1.1490   57.7860 C.3       1 YA2        -0.0268
      6 C28         1.8510    1.9070   56.5170 C.3       1 YA2        -0.0627
      7 C25         4.0000    0.7880   58.4930 C.3       1 YA2        -0.0209
      8 C20         3.8350    1.7930   59.6350 C.3       1 YA2        -0.0356
      9 C21         4.6220    1.3220   60.8810 C.3       1 YA2        -0.0499
     10 C22         4.0210    1.9570   62.1230 C.3       1 YA2        -0.0530
     11 C23         4.7940    1.5040   63.3630 C.3       1 YA2        -0.0559
     12 C24         4.2700    2.2260   64.5840 C.3       1 YA2        -0.0653
     13 C18         4.1150    3.2310   59.1690 C.3       1 YA2        -0.0374
     14 C19         2.9800    4.0850   59.6700 C.3       1 YA2        -0.0619
     15 C17         5.5140    3.7460   59.5510 C.3       1 YA2        -0.0304
     16 C16         6.6350    2.9210   58.8600 C.3       1 YA2        -0.0470
     17 C15         7.7720    3.9010   58.5090 C.3       1 YA2        -0.0393
     18 C13         5.8360    5.2000   59.1790 C.3       1 YA2        -0.0161
     19 C14         7.3510    5.2190   59.2210 C.3       1 YA2        -0.0062
     20 C35         5.3150    5.5060   57.7410 C.3       1 YA2        -0.0570
     21 C12         5.3850    6.2630   60.1380 C.3       1 YA2        -0.0431
     22 C11         5.7940    7.6450   59.6290 C.3       1 YA2        -0.0423
     23 C10         7.2870    7.7650   59.3680 C.3       1 YA2        -0.0234
     24 C9          7.8450    6.5080   58.6690 C.2       1 YA2        -0.0718
     25 C8          8.7080    6.5390   57.6400 C.2       1 YA2        -0.1089
     26 C7          9.1480    7.8080   57.0790 C.2       1 YA2        -0.1086
     27 C1          9.7890    7.9100   55.8970 C.2       1 YA2        -0.0657
     28 C2         10.1540    9.2750   55.3500 C.3       1 YA2         0.0150
     29 C6         10.1440    6.6520   55.1240 C.3       1 YA2         0.0150
     30 C5         11.5280    6.7300   54.4810 C.3       1 YA2         0.1023
     31 O33        11.7030    5.6130   53.5320 O.3       1 YA2        -0.3742
     32 C4         11.6890    8.0620   53.8350 C.2       1 YA2        -0.0127
     33 C32        11.9930    8.1260   52.5740 C.2       1 YA2        -0.1238
     34 C3         11.5080    9.3130   54.6480 C.3       1 YA2         0.1023
     35 O34        12.5950    9.4290   55.5920 O.3       1 YA2        -0.3742
     36 H           2.8212   -1.2480   59.4752 H         1 YA2         0.2102
     37 H           3.6006   -1.6516   57.3964 H         1 YA2         0.0290
     38 H           3.3233   -0.3877   56.1504 H         1 YA2         0.0290
     39 H           1.8634   -2.3295   55.8005 H         1 YA2         0.0231
     40 H           0.9095   -0.8624   56.2060 H         1 YA2         0.0231
     41 H           1.1868   -2.1263   57.4520 H         1 YA2         0.0231
     42 H           1.4160    1.8628   58.6164 H         1 YA2         0.0290
     43 H           0.5725    0.6078   57.6468 H         1 YA2         0.0290
     44 H           1.0439    2.6208   56.2952 H         1 YA2         0.0231
     45 H           1.9529    1.1979   55.6823 H         1 YA2         0.0231
     46 H           2.7964    2.4529   56.6519 H         1 YA2         0.0231
     47 H           4.3983    1.3095   57.6102 H         1 YA2         0.0296
     48 H           4.7049    0.0030   58.8043 H         1 YA2         0.0296
     49 H           2.7736    1.7751   59.9233 H         1 YA2         0.0304
     50 H           5.6753    1.6246   60.7865 H         1 YA2         0.0268
     51 H           4.5609    0.2267   60.9620 H         1 YA2         0.0268
     52 H           2.9687    1.6508   62.2168 H         1 YA2         0.0265
     53 H           4.0780    3.0522   62.0372 H         1 YA2         0.0265
     54 H           5.8616    1.7345   63.2325 H         1 YA2         0.0263
     55 H           4.6666    0.4197   63.4971 H         1 YA2         0.0263
     56 H           4.8288    1.8969   65.4725 H         1 YA2         0.0230
     57 H           3.2025    1.9957   64.7162 H         1 YA2         0.0230
     58 H           4.3975    3.3105   64.4516 H         1 YA2         0.0230
     59 H           4.0748    3.2388   58.0698 H         1 YA2         0.0304
     60 H           3.1401    5.1275   59.3578 H         1 YA2         0.0233
     61 H           2.9391    4.0333   60.7680 H         1 YA2         0.0233
     62 H           2.0319    3.7180   59.2500 H         1 YA2         0.0233
     63 H           5.6053    3.6411   60.6422 H         1 YA2         0.0311
     64 H           6.2469    2.4506   57.9445 H         1 YA2         0.0270
     65 H           7.0058    2.1428   59.5432 H         1 YA2         0.0270
     66 H           7.8425    4.0475   57.4211 H         1 YA2         0.0293
     67 H           8.7365    3.5377   58.8934 H         1 YA2         0.0293
     68 H           7.6947    5.1644   60.2645 H         1 YA2         0.0478
     69 H           4.2152    5.4863   57.7376 H         1 YA2         0.0237
     70 H           5.6975    4.7467   57.0431 H         1 YA2         0.0237
     71 H           5.6648    6.5009   57.4282 H         1 YA2         0.0237
     72 H           5.8484    6.0862   61.1198 H         1 YA2         0.0274
     73 H           4.2902    6.2220   60.2365 H         1 YA2         0.0274
     74 H           5.5087    8.3943   60.3820 H         1 YA2         0.0290
     75 H           5.2570    7.8457   58.6902 H         1 YA2         0.0290
     76 H           7.8073    7.9002   60.3277 H         1 YA2         0.0437
     77 H           7.4679    8.6400   58.7264 H         1 YA2         0.0437
     78 H           9.0820    5.6058   57.2215 H         1 YA2         0.0219
     79 H           8.9499    8.7194   57.6412 H         1 YA2         0.0219
     80 H          10.1763    9.9895   56.1861 H         1 YA2         0.0490
     81 H           9.3806    9.5783   54.6290 H         1 YA2         0.0490
     82 H           9.3954    6.5017   54.3322 H         1 YA2         0.0490
     83 H          10.1240    5.7962   55.8148 H         1 YA2         0.0490
     84 H          12.2911    6.6336   55.2674 H         1 YA2         0.0819
     85 H          11.0385    5.6668   52.8553 H         1 YA2         0.2139
     86 H          12.1132    9.0948   52.0914 H         1 YA2         0.0077
     87 H          12.1277    7.2109   51.9993 H         1 YA2         0.0077
     88 H          11.5306   10.1842   53.9768 H         1 YA2         0.0819
     89 H          12.4826   10.2193   56.1071 H         1 YA2         0.2139
@<TRIPOS>BOND
     1    1    2 1  
     2    2    3 1  
     3    2    5 1  
     4    2    7 1  
     5    3    4 1  
     6    5    6 1  
     7    7    8 1  
     8    8    9 1  
     9    8   13 1  
    10    9   10 1  
    11   10   11 1  
    12   11   12 1  
    13   13   14 1  
    14   13   15 1  
    15   15   16 1  
    16   15   18 1  
    17   16   17 1  
    18   17   19 1  
    19   18   19 1  
    20   18   20 1  
    21   18   21 1  
    22   19   24 1  
    23   21   22 1  
    24   22   23 1  
    25   23   24 1  
    26   24   25 2  
    27   25   26 1  
    28   26   27 2  
    29   27   28 1  
    30   27   29 1  
    31   28   34 1  
    32   29   30 1  
    33   30   31 1  
    34   30   32 1  
    35   32   33 2  
    36   32   34 1  
    37   34   35 1  
    38    1   36 1  
    39    3   37 1  
    40    3   38 1  
    41    4   39 1  
    42    4   40 1  
    43    4   41 1  
    44    5   42 1  
    45    5   43 1  
    46    6   44 1  
    47    6   45 1  
    48    6   46 1  
    49    7   47 1  
    50    7   48 1  
    51    8   49 1  
    52    9   50 1  
    53    9   51 1  
    54   10   52 1  
    55   10   53 1  
    56   11   54 1  
    57   11   55 1  
    58   12   56 1  
    59   12   57 1  
    60   12   58 1  
    61   13   59 1  
    62   14   60 1  
    63   14   61 1  
    64   14   62 1  
    65   15   63 1  
    66   16   64 1  
    67   16   65 1  
    68   17   66 1  
    69   17   67 1  
    70   19   68 1  
    71   20   69 1  
    72   20   70 1  
    73   20   71 1  
    74   21   72 1  
    75   21   73 1  
    76   22   74 1  
    77   22   75 1  
    78   23   76 1  
    79   23   77 1  
    80   25   78 1  
    81   26   79 1  
    82   28   80 1  
    83   28   81 1  
    84   29   82 1  
    85   29   83 1  
    86   30   84 1  
    87   31   85 1  
    88   33   86 1  
    89   33   87 1  
    90   34   88 1  
    91   35   89 1  
@<TRIPOS>SUBSTRUCTURE
     1 YA2         1

