### 
### Created by X-TOOL on Mon Sep 10 21:13:24 2018
### 

@<TRIPOS>MOLECULE
3wth_ligand
   25    26     1     0     0
SMALL
GAST_HUCK


@<TRIPOS>ATOM
      1 C5         29.8560  -27.6020  -31.3680 C.ar      1 IM4        -0.0394
      2 C6         29.3540  -26.8250  -32.4410 C.ar      1 IM4        -0.0241
      3 C1         29.5090  -25.4140  -32.3870 C.ar      1 IM4         0.1103
      4 CL7        28.9150  -24.4310  -33.6930 Cl        1 IM4        -0.0460
      5 N2         30.1200  -24.8280  -31.3360 N.ar      1 IM4        -0.2896
      6 C3         30.6060  -25.5360  -30.3030 C.ar      1 IM4         0.0126
      7 C4         30.4990  -26.9610  -30.2690 C.ar      1 IM4         0.0177
      8 C8         31.0550  -27.7770  -29.0910 C.3       1 IM4         0.1476
      9 N9         30.4750  -27.4690  -27.7720 N.pl3     1 IM4        -0.0187
     10 C13        31.0470  -26.4860  -26.8430 C.2       1 IM4         0.2685
     11 C12        30.1240  -26.4880  -25.6040 C.2       1 IM4         0.2383
     12 N11        29.0780  -27.4740  -25.9010 N.2       1 IM4        -0.0373
     13 C10        29.3130  -28.0280  -27.1790 C.2       1 IM4         0.4798
     14 N14        28.5980  -28.9220  -27.7480 N.pl3     1 IM4        -0.0256
     15 N15        27.4680  -29.6000  -27.4070 N.2       1 IM4        -0.0593
     16 O16        27.0040  -30.4590  -28.2380 O.2       1 IM4        -0.4608
     17 O17        26.8430  -29.4210  -26.2870 O.2       1 IM4        -0.4608
     18 H1         29.7515  -28.6809  -31.3826 H         1 IM4         0.0671
     19 H2         28.8626  -27.2966  -33.2843 H         1 IM4         0.0677
     20 H3         31.0874  -25.0180  -29.4814 H         1 IM4         0.0755
     21 H4         32.1384  -27.5950  -29.0349 H         1 IM4         0.0853
     22 H5         30.8723  -28.8413  -29.3006 H         1 IM4         0.0853
     23 H6         31.9388  -25.8800  -26.9960 H         1 IM4         0.2786
     24 H7         30.2274  -25.8861  -24.7024 H         1 IM4         0.1917
     25 H8         28.9588  -29.1901  -28.6747 H         1 IM4         0.3355
@<TRIPOS>BOND
     1    1    2 ar 
     2    1    7 ar 
     3    2    3 ar 
     4    3    4 1  
     5    3    5 ar 
     6    5    6 ar 
     7    6    7 ar 
     8    7    8 1  
     9    8    9 1  
    10    9   10 1  
    11    9   13 1  
    12   10   11 2  
    13   11   12 1  
    14   12   13 2  
    15   13   14 1  
    16   14   15 1  
    17   15   16 2  
    18   15   17 2  
    19    1   18 1  
    20    2   19 1  
    21    6   20 1  
    22    8   21 1  
    23    8   22 1  
    24   10   23 1  
    25   11   24 1  
    26   14   25 1  
@<TRIPOS>SUBSTRUCTURE
     1 IM4         1

