### 
### Created by X-TOOL on Mon Sep 10 21:13:25 2018
### 

@<TRIPOS>MOLECULE
3wti_ligand
   24    24     1     0     0
SMALL
GAST_HUCK


@<TRIPOS>ATOM
      1 N          30.4600  -27.5990  -28.5690 N.pl3     1 CT4        -0.2899
      2 C          29.3880  -28.2320  -28.0780 C.cat     1 CT4         0.2973
      3 N1         29.0630  -28.0650  -26.7980 N.pl3     1 CT4        -0.3059
      4 N2         28.7230  -28.9470  -29.0150 N.pl3     1 CT4         0.0070
      5 C1         30.8810  -27.7490  -29.9450 C.3       1 CT4         0.0774
      6 C2         30.3010  -26.6480  -30.7280 C.2       1 CT4         0.0560
      7 C3         29.8870  -27.3680  -25.8280 C.3       1 CT4         0.0186
      8 S          29.8450  -26.7990  -32.3830 S.3       1 CT4         0.0120
      9 C4         29.3610  -25.1520  -32.3540 C.2       1 CT4         0.1722
     10 N4         29.5100  -24.5240  -31.2460 N.2       1 CT4        -0.3185
     11 C5         30.0460  -25.3880  -30.3190 C.2       1 CT4        -0.0171
     12 CL         28.7040  -24.4230  -33.7580 Cl        1 CT4        -0.0221
     13 N5         27.6340  -29.6420  -28.6770 N.2       1 CT4         0.5622
     14 O1         27.0730  -30.2550  -29.6040 O.2       1 CT4         0.3085
     15 O2         27.2040  -29.7060  -27.5100 O.2       1 CT4         0.3085
     16 H1         31.0036  -26.9844  -27.9464 H         1 CT4         0.1953
     17 H2         28.1669  -28.4566  -26.4745 H         1 CT4         0.1923
     18 H3         29.0570  -28.9551  -29.9893 H         1 CT4         0.3984
     19 H4         30.5267  -28.7128  -30.3394 H         1 CT4         0.0748
     20 H5         31.9787  -27.7097  -30.0045 H         1 CT4         0.0748
     21 H6         29.3858  -27.3749  -24.8488 H         1 CT4         0.0518
     22 H7         30.0386  -26.3287  -26.1550 H         1 CT4         0.0518
     23 H8         30.8612  -27.8720  -25.7448 H         1 CT4         0.0518
     24 H9         30.2553  -25.0685  -29.2992 H         1 CT4         0.0429
@<TRIPOS>BOND
     1    1    2 ar 
     2    1    5 1  
     3    2    3 ar 
     4    2    4 ar 
     5    3    7 1  
     6    4   13 1  
     7    5    6 1  
     8    6    8 1  
     9    6   11 2  
    10    8    9 1  
    11    9   10 2  
    12    9   12 1  
    13   10   11 1  
    14   13   14 2  
    15   13   15 2  
    16    1   16 1  
    17    3   17 1  
    18    4   18 1  
    19    5   19 1  
    20    5   20 1  
    21    7   21 1  
    22    7   22 1  
    23    7   23 1  
    24   11   24 1  
@<TRIPOS>SUBSTRUCTURE
     1 CT4         1

