### 
### Created by X-TOOL on Mon Sep 10 21:13:25 2018
### 

@<TRIPOS>MOLECULE
3wtj_ligand
   25    26     1     0     0
SMALL
GAST_HUCK


@<TRIPOS>ATOM
      1 C5         29.8120  -26.6700  -30.4830 C.ar      1 TH4        -0.0402
      2 C6         29.7920  -26.2740  -31.8490 C.ar      1 TH4        -0.0242
      3 C1         29.6820  -24.8930  -32.1610 C.ar      1 TH4         0.1103
      4 CL7        29.6260  -24.3450  -33.8640 Cl        1 TH4        -0.0460
      5 N2         29.6060  -23.9590  -31.1430 N.ar      1 TH4        -0.2896
      6 C3         29.6240  -24.3160  -29.8270 C.ar      1 TH4         0.0118
      7 C4         29.7220  -25.6780  -29.4600 C.ar      1 TH4         0.0068
      8 C8         29.7060  -26.0590  -27.9900 C.3       1 TH4         0.0839
      9 N9         30.9450  -26.5950  -27.4330 N.pl3     1 TH4        -0.2339
     10 C13        32.0910  -25.6830  -27.3020 C.3       1 TH4         0.0607
     11 C12        33.2460  -26.4860  -26.6920 C.3       1 TH4         0.0468
     12 S11        32.6410  -28.1120  -26.4410 S.3       1 TH4        -0.0038
     13 C10        31.1000  -27.8620  -27.0270 C.2       1 TH4         0.2172
     14 N14        30.1710  -28.7560  -27.0850 N.2       1 TH4        -0.1896
     15 C15        30.3190  -29.9160  -26.7110 C.1       1 TH4         0.1104
     16 N16        30.4740  -31.0140  -26.3690 N.1       1 TH4        -0.3783
     17 H1         29.8951  -27.7184  -30.2203 H         1 TH4         0.0671
     18 H2         29.8596  -27.0138  -32.6384 H         1 TH4         0.0677
     19 H3         29.5630  -23.5529  -29.0595 H         1 TH4         0.0755
     20 H4         28.9234  -26.8196  -27.8523 H         1 TH4         0.0727
     21 H5         29.4462  -25.1575  -27.4158 H         1 TH4         0.0727
     22 H6         31.8290  -24.8415  -26.6439 H         1 TH4         0.0566
     23 H7         32.3810  -25.2986  -28.2910 H         1 TH4         0.0566
     24 H8         33.5531  -26.0423  -25.7334 H         1 TH4         0.0445
     25 H9         34.1038  -26.5015  -27.3805 H         1 TH4         0.0445
@<TRIPOS>BOND
     1    1    2 ar 
     2    1    7 ar 
     3    2    3 ar 
     4    3    4 1  
     5    3    5 ar 
     6    5    6 ar 
     7    6    7 ar 
     8    7    8 1  
     9    8    9 1  
    10    9   10 1  
    11    9   13 1  
    12   10   11 1  
    13   11   12 1  
    14   12   13 1  
    15   13   14 2  
    16   14   15 1  
    17   15   16 3  
    18    1   17 1  
    19    2   18 1  
    20    6   19 1  
    21    8   20 1  
    22    8   21 1  
    23   10   22 1  
    24   10   23 1  
    25   11   24 1  
    26   11   25 1  
@<TRIPOS>SUBSTRUCTURE
     1 TH4         1

