### 
### Created by X-TOOL on Mon Sep 10 21:13:24 2018
### 

@<TRIPOS>MOLECULE
3wtk_ligand
   25    26     1     0     0
SMALL
GAST_HUCK


@<TRIPOS>ATOM
      1 C5         57.7370  -13.4980  -29.1210 C.ar      1 TH4        -0.0402
      2 C6         56.9170  -13.9590  -30.1580 C.ar      1 TH4        -0.0242
      3 C1         55.5490  -13.6690  -30.1280 C.ar      1 TH4         0.1103
      4 CL7        54.5140  -14.2560  -31.4410 Cl        1 TH4        -0.0460
      5 N2         55.0170  -12.9180  -29.1000 N.ar      1 TH4        -0.2896
      6 C3         55.7920  -12.4590  -28.0800 C.ar      1 TH4         0.0118
      7 C4         57.1960  -12.7340  -28.0780 C.ar      1 TH4         0.0068
      8 C8         58.1220  -12.2390  -26.9800 C.3       1 TH4         0.0839
      9 N9         57.6630  -12.4740  -25.6200 N.pl3     1 TH4        -0.2339
     10 C13        57.0490  -11.3360  -24.9350 C.3       1 TH4         0.0607
     11 C12        56.6590  -11.8150  -23.5390 C.3       1 TH4         0.0468
     12 S11        57.1340  -13.5120  -23.4090 S.3       1 TH4        -0.0038
     13 C10        57.7710  -13.6530  -24.9460 C.2       1 TH4         0.2172
     14 N14        58.3000  -14.7330  -25.4400 N.2       1 TH4        -0.1896
     15 C15        58.4150  -15.8030  -24.8400 C.1       1 TH4         0.1104
     16 N16        58.5460  -16.8110  -24.2670 N.1       1 TH4        -0.3783
     17 H1         58.7952  -13.7331  -29.1249 H         1 TH4         0.0671
     18 H2         57.3376  -14.5342  -30.9749 H         1 TH4         0.0677
     19 H3         55.3477  -11.8878  -27.2729 H         1 TH4         0.0755
     20 H4         58.2532  -11.1547  -27.1106 H         1 TH4         0.0727
     21 H5         59.0920  -12.7431  -27.1020 H         1 TH4         0.0727
     22 H6         56.1558  -11.0018  -25.4832 H         1 TH4         0.0566
     23 H7         57.7670  -10.5058  -24.8629 H         1 TH4         0.0566
     24 H8         55.5725  -11.7171  -23.3981 H         1 TH4         0.0445
     25 H9         57.1827  -11.2189  -22.7772 H         1 TH4         0.0445
@<TRIPOS>BOND
     1    1    2 ar 
     2    1    7 ar 
     3    2    3 ar 
     4    3    4 1  
     5    3    5 ar 
     6    5    6 ar 
     7    6    7 ar 
     8    7    8 1  
     9    8    9 1  
    10    9   10 1  
    11    9   13 1  
    12   10   11 1  
    13   11   12 1  
    14   12   13 1  
    15   13   14 2  
    16   14   15 1  
    17   15   16 3  
    18    1   17 1  
    19    2   18 1  
    20    6   19 1  
    21    8   20 1  
    22    8   21 1  
    23   10   22 1  
    24   10   23 1  
    25   11   24 1  
    26   11   25 1  
@<TRIPOS>SUBSTRUCTURE
     1 TH4         1

