### 
### Created by X-TOOL on Mon Sep 10 21:13:24 2018
### 

@<TRIPOS>MOLECULE
3wtl_ligand
   28    29     1     0     0
SMALL
GAST_HUCK


@<TRIPOS>ATOM
      1 CL         28.8470  -23.9490  -33.6410 Cl        1 N1Y        -0.0460
      2 C1         29.5030  -24.9020  -32.3930 C.ar      1 N1Y         0.1103
      3 N1         30.1050  -24.2000  -31.3710 N.ar      1 N1Y        -0.2896
      4 C2         30.6600  -24.9380  -30.3450 C.ar      1 N1Y         0.0125
      5 C3         30.6410  -26.3590  -30.2890 C.ar      1 N1Y         0.0143
      6 C4         31.2740  -27.1620  -29.1540 C.3       1 N1Y         0.1145
      7 N2         30.7630  -26.8810  -27.8110 N.pl3     1 N1Y        -0.1431
      8 C5         29.9980  -27.0260  -31.3750 C.ar      1 N1Y        -0.0396
      9 C6         29.4190  -26.2990  -32.4440 C.ar      1 N1Y        -0.0241
     10 C7         29.5730  -27.2800  -27.1910 C.2       1 N1Y         0.4522
     11 C8         28.6110  -28.0460  -27.7510 C.2       1 N1Y         0.3600
     12 N3         29.5680  -26.7520  -25.9240 N.pl3     1 N1Y        -0.1684
     13 C9         30.7400  -25.9720  -25.6060 C.3       1 N1Y         0.1032
     14 C10        31.5810  -26.0510  -26.9020 C.3       1 N1Y         0.1080
     15 N4         27.3890  -28.4380  -27.0760 N.2       1 N1Y        -0.0190
     16 O1         27.1540  -28.0770  -25.9030 O.2       1 N1Y        -0.3916
     17 O2         26.6330  -29.1370  -27.7540 O.2       1 N1Y        -0.3916
     18 H1         31.1390  -24.4024  -29.5334 H         1 N1Y         0.0755
     19 H2         32.3539  -26.9530  -29.1544 H         1 N1Y         0.0816
     20 H3         31.1070  -28.2292  -29.3619 H         1 N1Y         0.0816
     21 H4         29.9519  -28.1090  -31.3817 H         1 N1Y         0.0671
     22 H5         28.9301  -26.8042  -33.2691 H         1 N1Y         0.0677
     23 H6         28.7629  -28.3904  -28.7729 H         1 N1Y         0.3332
     24 H7         28.7957  -26.8995  -25.2586 H         1 N1Y         0.2629
     25 H8         31.2847  -26.4077  -24.7554 H         1 N1Y         0.0669
     26 H9         30.4699  -24.9312  -25.3742 H         1 N1Y         0.0669
     27 H10        31.7407  -25.0486  -27.3258 H         1 N1Y         0.0673
     28 H11        32.5538  -26.5264  -26.7081 H         1 N1Y         0.0673
@<TRIPOS>BOND
     1    1    2 1  
     2    2    3 ar 
     3    2    9 ar 
     4    3    4 ar 
     5    4    5 ar 
     6    5    6 1  
     7    5    8 ar 
     8    6    7 1  
     9    7   10 1  
    10    7   14 1  
    11    8    9 ar 
    12   10   11 2  
    13   10   12 1  
    14   11   15 1  
    15   12   13 1  
    16   13   14 1  
    17   15   16 2  
    18   15   17 2  
    19    4   18 1  
    20    6   19 1  
    21    6   20 1  
    22    8   21 1  
    23    9   22 1  
    24   11   23 1  
    25   12   24 1  
    26   13   25 1  
    27   13   26 1  
    28   14   27 1  
    29   14   28 1  
@<TRIPOS>SUBSTRUCTURE
     1 N1Y         1

