### 
### Created by X-TOOL on Mon Sep 10 21:13:24 2018
### 

@<TRIPOS>MOLECULE
3wtm_ligand
   28    29     1     0     0
SMALL
GAST_HUCK


@<TRIPOS>ATOM
      1 CL         54.7250  -14.4970  -31.2900 Cl        1 N1Y        -0.0460
      2 C1         55.8070  -13.9150  -30.1290 C.ar      1 N1Y         0.1103
      3 N1         55.3040  -12.9300  -29.3190 N.ar      1 N1Y        -0.2896
      4 C2         56.1420  -12.4160  -28.3630 C.ar      1 N1Y         0.0125
      5 C3         57.4820  -12.8470  -28.1720 C.ar      1 N1Y         0.0143
      6 C4         58.3920  -12.2460  -27.1090 C.3       1 N1Y         0.1145
      7 N2         57.9580  -12.4590  -25.7310 N.pl3     1 N1Y        -0.1431
      8 C5         57.9550  -13.8760  -29.0390 C.ar      1 N1Y        -0.0396
      9 C6         57.1130  -14.4270  -30.0370 C.ar      1 N1Y        -0.0241
     10 C7         58.0190  -13.6050  -24.9170 C.2       1 N1Y         0.4522
     11 C8         58.5240  -14.8070  -25.2800 C.2       1 N1Y         0.3600
     12 N3         57.4810  -13.2740  -23.7020 N.pl3     1 N1Y        -0.1684
     13 C9         57.0240  -11.9050  -23.6080 C.3       1 N1Y         0.1032
     14 C10        57.3460  -11.3250  -25.0060 C.3       1 N1Y         0.1080
     15 N4         58.5730  -15.9800  -24.4260 N.2       1 N1Y        -0.0190
     16 O1         58.1300  -15.9560  -23.2620 O.2       1 N1Y        -0.3916
     17 O2         59.0820  -16.9770  -24.9570 O.2       1 N1Y        -0.3916
     18 H1         55.7596  -11.6354  -27.7153 H         1 N1Y         0.0755
     19 H2         58.4510  -11.1616  -27.2841 H         1 N1Y         0.0816
     20 H3         59.3913  -12.6910  -27.2243 H         1 N1Y         0.0816
     21 H4         58.9703  -14.2409  -28.9334 H         1 N1Y         0.0671
     22 H5         57.4612  -15.2098  -30.7011 H         1 N1Y         0.0677
     23 H6         58.9237  -14.9014  -26.2886 H         1 N1Y         0.3332
     24 H7         57.4080  -13.9426  -22.9219 H         1 N1Y         0.2629
     25 H8         57.5675  -11.3613  -22.8212 H         1 N1Y         0.0669
     26 H9         55.9440  -11.8633  -23.4034 H         1 N1Y         0.0669
     27 H10        56.4284  -10.9879  -25.5103 H         1 N1Y         0.0673
     28 H11        58.0513  -10.4845  -24.9277 H         1 N1Y         0.0673
@<TRIPOS>BOND
     1    1    2 1  
     2    2    3 ar 
     3    2    9 ar 
     4    3    4 ar 
     5    4    5 ar 
     6    5    6 1  
     7    5    8 ar 
     8    6    7 1  
     9    7   10 1  
    10    7   14 1  
    11    8    9 ar 
    12   10   11 2  
    13   10   12 1  
    14   11   15 1  
    15   12   13 1  
    16   13   14 1  
    17   15   16 2  
    18   15   17 2  
    19    4   18 1  
    20    6   19 1  
    21    6   20 1  
    22    8   21 1  
    23    9   22 1  
    24   11   23 1  
    25   12   24 1  
    26   13   25 1  
    27   13   26 1  
    28   14   27 1  
    29   14   28 1  
@<TRIPOS>SUBSTRUCTURE
     1 N1Y         1

