### 
### Created by X-TOOL on Mon Sep 10 21:13:25 2018
### 

@<TRIPOS>MOLECULE
3wtn_ligand
   23    24     1     0     0
SMALL
GAST_HUCK


@<TRIPOS>ATOM
      1 N2          1.5070   22.8980   16.8610 N.pl3     1 N2Y        -0.2966
      2 N3          2.3290   22.4100   14.6810 N.pl3     1 N2Y        -0.2240
      3 C1          2.1540   23.2440   15.8200 C.2       1 N2Y         0.2057
      4 N4          2.7860   24.4820   15.6310 N.2       1 N2Y        -0.3334
      5 C2          3.4210   24.5100   14.3190 C.2       1 N2Y        -0.0466
      6 C3          3.1210   23.1470   13.6850 C.2       1 N2Y         0.0242
      7 C4          4.7040   17.8120   14.1240 C.ar      1 N2Y         0.1103
      8 CL1         5.8620   16.5330   13.9870 Cl        1 N2Y        -0.0460
      9 N6          5.0540   18.9700   14.7290 N.ar      1 N2Y        -0.2896
     10 C5          4.1850   19.9930   14.8560 C.ar      1 N2Y         0.0123
     11 C6          2.8450   19.8910   14.3470 C.ar      1 N2Y         0.0117
     12 C7          2.4730   18.6750   13.7110 C.ar      1 N2Y        -0.0398
     13 C8          3.4000   17.6200   13.5910 C.ar      1 N2Y        -0.0241
     14 C9          1.8210   21.0350   14.4690 C.3       1 N2Y         0.0953
     15 H1          1.4176   23.5510   17.6525 H         1 N2Y         0.1804
     16 H2          1.0731   21.9652   16.9114 H         1 N2Y         0.1804
     17 H3          3.9899   25.3286   13.8807 H         1 N2Y         0.0380
     18 H4          3.4302   22.7971   12.7012 H         1 N2Y         0.0743
     19 H5          4.5015   20.9051   15.3489 H         1 N2Y         0.0755
     20 H6          1.4703   18.5585   13.3160 H         1 N2Y         0.0671
     21 H7          3.1267   16.6896   13.1066 H         1 N2Y         0.0677
     22 H8          1.2311   21.0449   13.5406 H         1 N2Y         0.0786
     23 H9          1.1642   20.7955   15.3183 H         1 N2Y         0.0786
@<TRIPOS>BOND
     1    3    1 1  
     2    2    3 1  
     3    2    6 1  
     4   14    2 1  
     5    3    4 2  
     6    5    4 1  
     7    6    5 2  
     8    7    8 1  
     9    9    7 ar 
    10    7   13 ar 
    11   10    9 ar 
    12   11   10 ar 
    13   11   12 ar 
    14   11   14 1  
    15   12   13 ar 
    16    1   15 1  
    17    1   16 1  
    18    5   17 1  
    19    6   18 1  
    20   10   19 1  
    21   12   20 1  
    22   13   21 1  
    23   14   22 1  
    24   14   23 1  
@<TRIPOS>SUBSTRUCTURE
     1 N2Y         1

