### 
### Created by X-TOOL on Mon Sep 10 21:13:25 2018
### 

@<TRIPOS>MOLECULE
3wto_ligand
   23    24     1     0     0
SMALL
GAST_HUCK


@<TRIPOS>ATOM
      1 N2        -18.8160   -0.1070   25.3150 N.pl3     1 N2Y        -0.2966
      2 N3        -21.0140    0.0550   24.4140 N.pl3     1 N2Y        -0.2240
      3 C1        -20.0280    0.2970   25.4060 C.2       1 N2Y         0.2057
      4 N4        -20.5680    1.0350   26.4800 N.2       1 N2Y        -0.3334
      5 C2        -21.9780    1.3120   26.2230 C.2       1 N2Y        -0.0466
      6 C3        -22.2760    0.6650   24.8530 C.2       1 N2Y         0.0242
      7 C4        -22.2020   -4.7040   22.2470 C.ar      1 N2Y         0.1103
      8 CL1       -22.7140   -6.2910   21.7280 Cl        1 N2Y        -0.0460
      9 N6        -21.8550   -3.8400   21.3030 N.ar      1 N2Y        -0.2896
     10 C5        -21.4470   -2.6020   21.5800 C.ar      1 N2Y         0.0123
     11 C6        -21.3540   -2.1140   22.9140 C.ar      1 N2Y         0.0117
     12 C7        -21.7230   -3.0150   23.9650 C.ar      1 N2Y        -0.0398
     13 C8        -22.1570   -4.3380   23.6370 C.ar      1 N2Y        -0.0241
     14 C9        -20.8570   -0.6680   23.1230 C.3       1 N2Y         0.0953
     15 H1        -18.1460    0.1004   26.0693 H         1 N2Y         0.1804
     16 H2        -18.5113   -0.6393   24.4875 H         1 N2Y         0.1804
     17 H3        -22.6713    1.8581   26.8610 H         1 N2Y         0.0380
     18 H4        -23.2265    0.6616   24.3215 H         1 N2Y         0.0743
     19 H5        -21.1768   -1.9443   20.7618 H         1 N2Y         0.0755
     20 H6        -21.6737   -2.6968   25.0001 H         1 N2Y         0.0671
     21 H7        -22.4426   -5.0415   24.4107 H         1 N2Y         0.0677
     22 H8        -19.7777   -0.6829   22.9111 H         1 N2Y         0.0786
     23 H9        -21.3708   -0.0566   22.3666 H         1 N2Y         0.0786
@<TRIPOS>BOND
     1    3    1 1  
     2    2    3 1  
     3    2    6 1  
     4   14    2 1  
     5    3    4 2  
     6    5    4 1  
     7    6    5 2  
     8    7    8 1  
     9    9    7 ar 
    10    7   13 ar 
    11   10    9 ar 
    12   11   10 ar 
    13   11   12 ar 
    14   11   14 1  
    15   12   13 ar 
    16    1   15 1  
    17    1   16 1  
    18    5   17 1  
    19    6   18 1  
    20   10   19 1  
    21   12   20 1  
    22   13   21 1  
    23   14   22 1  
    24   14   23 1  
@<TRIPOS>SUBSTRUCTURE
     1 N2Y         1

