### 
### Created by X-TOOL on Mon Sep 10 21:13:23 2018
### 

@<TRIPOS>MOLECULE
3wv1_ligand
   57    60     1     0     0
SMALL
GAST_HUCK


@<TRIPOS>ATOM
      1 C32        44.4840   -6.0260  -14.8610 C.ar      1 WHH        -0.0771
      2 C12        52.7080   -8.6550  -10.8800 C.ar      1 WHH        -0.0543
      3 C14        53.3430   -9.3010   -8.6490 C.ar      1 WHH        -0.0543
      4 C33        44.2450   -5.2410  -13.7520 C.ar      1 WHH        -0.0695
      5 C11        52.1070   -7.5230  -10.3750 C.ar      1 WHH        -0.0565
      6 C15        52.7420   -8.1590   -8.1560 C.ar      1 WHH        -0.0565
      7 C3         45.6300   -5.5510   -7.2570 C.ar      1 WHH        -0.0595
      8 C31        43.7920   -5.8010  -16.0320 C.ar      1 WHH        -0.0401
      9 C2         46.4370   -6.0660   -6.2620 C.ar      1 WHH        -0.0371
     10 C29        42.6420   -4.0030  -14.9780 C.ar      1 WHH        -0.0303
     11 C5         47.5220   -4.5920   -8.3520 C.ar      1 WHH         0.0943
     12 C13        53.3220   -9.5320  -10.0120 C.ar      1 WHH         0.0032
     13 C10        52.1220   -7.2710   -9.0180 C.ar      1 WHH        -0.0376
     14 C28        43.3220   -4.2230  -13.7980 C.ar      1 WHH        -0.0299
     15 C4         46.1540   -4.8050   -8.2990 C.ar      1 WHH         0.0206
     16 C30        42.8620   -4.7830  -16.0830 C.ar      1 WHH         0.0841
     17 C6         48.3390   -5.1120   -7.3550 C.ar      1 WHH         0.1426
     18 C1         47.7960   -5.8430   -6.3180 C.ar      1 WHH         0.1596
     19 C19        48.0850   -3.7930   -9.4660 C.2       1 WHH         0.2318
     20 C22        45.8280   -3.6320  -10.2250 C.2       1 WHH         0.2390
     21 C16        53.9610  -10.7230  -10.5820 C.2       1 WHH         0.0584
     22 C24        45.0170   -3.0900  -11.3440 C.2       1 WHH         0.2772
     23 C35        42.4640   -5.2640  -18.3330 C.3       1 WHH         0.0592
     24 C9         51.4780   -6.0140   -8.5310 C.3       1 WHH         0.0102
     25 C27        43.0210   -3.3270  -12.6330 C.3       1 WHH         0.0625
     26 C8         50.1930   -6.2130   -7.7820 C.3       1 WHH         0.0810
     27 N23        45.2790   -4.3170   -9.2720 N.2       1 WHH        -0.2791
     28 N21        47.1610   -3.3360  -10.3600 N.am      1 WHH        -0.1903
     29 N26        43.7510   -3.5850  -11.4290 N.am      1 WHH        -0.2656
     30 O20        49.2820   -3.5750   -9.5630 O.2       1 WHH        -0.3914
     31 O17        54.3880  -10.7850  -11.7230 O.co2     1 WHH        -0.5625
     32 O25        45.5720   -2.3860  -12.1600 O.2       1 WHH        -0.3604
     33 O18        54.0200  -11.6840   -9.6400 O.co2     1 WHH        -0.5625
     34 O34        42.1000   -4.4770  -17.2060 O.3       1 WHH        -0.3230
     35 O7         49.7110   -4.9340   -7.3520 O.3       1 WHH        -0.3116
     36 F36        48.6120   -6.3350   -5.3660 F         1 WHH        -0.1934
     37 H1         45.2181   -6.8221  -14.8115 H         1 WHH         0.0572
     38 H2         52.6981   -8.8533  -11.9457 H         1 WHH         0.0634
     39 H3         53.8231  -10.0044   -7.9783 H         1 WHH         0.0634
     40 H4         44.7908   -5.4288  -12.8345 H         1 WHH         0.0465
     41 H5         51.6195   -6.8262  -11.0472 H         1 WHH         0.0564
     42 H6         52.7560   -7.9577   -7.0909 H         1 WHH         0.0564
     43 H7         44.5623   -5.7349   -7.2215 H         1 WHH         0.0484
     44 H8         43.9767   -6.4178  -16.9041 H         1 WHH         0.0486
     45 H9         46.0074   -6.6381   -5.4476 H         1 WHH         0.0598
     46 H10        41.9192   -3.1970  -15.0322 H         1 WHH         0.0479
     47 H11        41.8360   -4.9863  -19.1923 H         1 WHH         0.0577
     48 H12        42.3163   -6.3288  -18.0998 H         1 WHH         0.0577
     49 H13        43.5213   -5.0857  -18.5787 H         1 WHH         0.0577
     50 H14        51.2703   -5.3762   -9.4028 H         1 WHH         0.0458
     51 H15        52.1872   -5.5029   -7.8634 H         1 WHH         0.0458
     52 H16        41.9498   -3.4250  -12.4029 H         1 WHH         0.0682
     53 H17        43.2369   -2.2932  -12.9407 H         1 WHH         0.0682
     54 H18        50.3700   -6.8555   -6.9069 H         1 WHH         0.0639
     55 H19        49.4499   -6.6866   -8.4404 H         1 WHH         0.0639
     56 H20        47.4617   -2.7733  -11.1300 H         1 WHH         0.2533
     57 H21        43.3469   -4.1086  -10.6790 H         1 WHH         0.1884
@<TRIPOS>BOND
     1    4    1 ar 
     2    1    8 ar 
     3    5    2 ar 
     4    2   12 ar 
     5    6    3 ar 
     6    3   12 ar 
     7   14    4 ar 
     8   13    5 ar 
     9   13    6 ar 
    10    9    7 ar 
    11   15    7 ar 
    12   16    8 ar 
    13   18    9 ar 
    14   14   10 ar 
    15   10   16 ar 
    16   11   15 ar 
    17   17   11 ar 
    18   11   19 1  
    19   12   21 1  
    20   24   13 1  
    21   25   14 1  
    22   15   27 1  
    23   16   34 1  
    24   17   18 ar 
    25   35   17 1  
    26   18   36 1  
    27   19   28 am 
    28   19   30 2  
    29   20   22 1  
    30   27   20 2  
    31   28   20 1  
    32   21   31 ar 
    33   21   33 ar 
    34   22   29 am 
    35   22   32 2  
    36   34   23 1  
    37   26   24 1  
    38   29   25 1  
    39   26   35 1  
    40    1   37 1  
    41    2   38 1  
    42    3   39 1  
    43    4   40 1  
    44    5   41 1  
    45    6   42 1  
    46    7   43 1  
    47    8   44 1  
    48    9   45 1  
    49   10   46 1  
    50   23   47 1  
    51   23   48 1  
    52   23   49 1  
    53   24   50 1  
    54   24   51 1  
    55   25   52 1  
    56   25   53 1  
    57   26   54 1  
    58   26   55 1  
    59   28   56 1  
    60   29   57 1  
@<TRIPOS>SUBSTRUCTURE
     1 WHH         1

