### 
### Created by X-TOOL on Mon Sep 10 21:13:17 2018
### 

@<TRIPOS>MOLECULE
3wv2_ligand
   38    40     1     0     0
SMALL
GAST_HUCK


@<TRIPOS>ATOM
      1 C18        -3.1430  -30.5370   47.8010 C.ar      1 WGG        -0.0620
      2 C17        -3.2010  -30.2210   46.4580 C.ar      1 WGG        -0.0628
      3 C7        -12.0830  -30.0370   44.9140 C.ar      1 WGG        -0.0771
      4 C19        -4.1760  -31.2500   48.3730 C.ar      1 WGG        -0.0464
      5 C8        -10.9710  -30.7880   44.6100 C.ar      1 WGG        -0.0695
      6 C16        -4.2820  -30.6100   45.6920 C.ar      1 WGG        -0.0473
      7 C6        -13.2800  -30.2900   44.2790 C.ar      1 WGG        -0.0401
      8 C4        -12.2450  -32.0460   43.0590 C.ar      1 WGG        -0.0303
      9 C20        -5.2490  -31.6390   47.5950 C.ar      1 WGG         0.0666
     10 C3        -11.0470  -31.8010   43.6800 C.ar      1 WGG        -0.0299
     11 C15        -5.3190  -31.3270   46.2530 C.ar      1 WGG         0.0321
     12 C5        -13.3630  -31.3010   43.3450 C.ar      1 WGG         0.0841
     13 C21        -6.3440  -32.3980   48.2140 C.2       1 WGG         0.2383
     14 C13        -7.3450  -32.3730   46.0320 C.2       1 WGG         0.2410
     15 C11        -8.5540  -32.8230   45.2530 C.2       1 WGG         0.2782
     16 C10       -15.5150  -30.6160   42.9230 C.3       1 WGG         0.0592
     17 C2         -9.8800  -32.6660   43.2940 C.3       1 WGG         0.0625
     18 N14        -6.4010  -31.7040   45.4560 N.2       1 WGG        -0.2737
     19 N23        -7.3610  -32.7330   47.3530 N.am      1 WGG        -0.1876
     20 N1         -8.6490  -32.3780   43.9660 N.am      1 WGG        -0.2654
     21 O22        -6.2940  -32.6810   49.4020 O.2       1 WGG        -0.3852
     22 O12        -9.3780  -33.5240   45.8060 O.2       1 WGG        -0.3598
     23 O9        -14.5380  -31.6320   42.6630 O.3       1 WGG        -0.3230
     24 H          -2.2940  -30.2278   48.3999 H         1 WGG         0.0581
     25 H          -2.3914  -29.6631   46.0015 H         1 WGG         0.0636
     26 H         -12.0178  -29.2464   45.6528 H         1 WGG         0.0572
     27 H          -4.1459  -31.5035   49.4265 H         1 WGG         0.0652
     28 H         -10.0293  -30.5811   45.1055 H         1 WGG         0.0465
     29 H          -4.3163  -30.3497   44.6403 H         1 WGG         0.0586
     30 H         -14.1551  -29.6948   44.5136 H         1 WGG         0.0486
     31 H         -12.3109  -32.8436   42.3278 H         1 WGG         0.0479
     32 H         -16.4477  -30.8602   42.3935 H         1 WGG         0.0577
     33 H         -15.1369  -29.6450   42.5707 H         1 WGG         0.0577
     34 H         -15.7103  -30.5631   44.0042 H         1 WGG         0.0577
     35 H          -9.7121  -32.5459   42.2136 H         1 WGG         0.0682
     36 H         -10.1471  -33.7111   43.5097 H         1 WGG         0.0682
     37 H          -8.1380  -33.2567   47.7024 H         1 WGG         0.2543
     38 H          -7.9045  -31.8813   43.5199 H         1 WGG         0.1885
@<TRIPOS>BOND
     1    2    1 ar 
     2    4    1 ar 
     3    6    2 ar 
     4    5    3 ar 
     5    3    7 ar 
     6    9    4 ar 
     7   10    5 ar 
     8   11    6 ar 
     9   12    7 ar 
    10   10    8 ar 
    11    8   12 ar 
    12   11    9 ar 
    13   13    9 1  
    14   17   10 1  
    15   18   11 1  
    16   12   23 1  
    17   19   13 am 
    18   13   21 2  
    19   15   14 1  
    20   14   18 2  
    21   14   19 1  
    22   20   15 am 
    23   15   22 2  
    24   23   16 1  
    25   17   20 1  
    26    1   24 1  
    27    2   25 1  
    28    3   26 1  
    29    4   27 1  
    30    5   28 1  
    31    6   29 1  
    32    7   30 1  
    33    8   31 1  
    34   16   32 1  
    35   16   33 1  
    36   16   34 1  
    37   17   35 1  
    38   17   36 1  
    39   19   37 1  
    40   20   38 1  
@<TRIPOS>SUBSTRUCTURE
     1 WGG         1

