### 
### Created by X-TOOL on Mon Sep 10 21:13:17 2018
### 

@<TRIPOS>MOLECULE
3wv3_ligand
   35    37     1     0     0
SMALL
GAST_HUCK


@<TRIPOS>ATOM
      1 C19        44.6300   -6.1850  -15.1710 C.ar      1 WLL        -0.0771
      2 C20        44.3810   -5.3900  -14.0630 C.ar      1 WLL        -0.0695
      3 C18        43.9350   -5.9610  -16.3400 C.ar      1 WLL        -0.0401
      4 C10        48.1150   -5.2620   -7.3730 C.2       1 WLL        -0.0657
      5 C16        42.7390   -4.1670  -15.3130 C.ar      1 WLL        -0.0303
      6 C9         47.2210   -5.9960   -6.6230 C.2       1 WLL        -0.0104
      7 C6         47.5200   -4.6960   -8.5340 C.2       1 WLL         0.0515
      8 C15        43.4450   -4.3780  -14.1450 C.ar      1 WLL        -0.0299
      9 C17        42.9840   -4.9600  -16.4130 C.ar      1 WLL         0.0841
     10 C7         46.1900   -5.0070   -8.6560 C.2       1 WLL         0.0944
     11 C4         48.1570   -3.8760   -9.5330 C.2       1 WLL         0.2168
     12 C2         45.9830   -3.8770  -10.5360 C.2       1 WLL         0.2433
     13 C11        45.2320   -3.3810  -11.7240 C.2       1 WLL         0.2766
     14 C22        42.7070   -5.4820  -18.6370 C.3       1 WLL         0.0592
     15 C14        43.1710   -3.5070  -12.9460 C.3       1 WLL         0.0624
     16 N1         45.3750   -4.6170   -9.6430 N.2       1 WLL        -0.2544
     17 N3         47.3050   -3.5010  -10.5220 N.am      1 WLL        -0.1919
     18 N13        43.9500   -3.8270  -11.7760 N.am      1 WLL        -0.2660
     19 O5         49.3370   -3.5600   -9.4750 O.2       1 WLL        -0.4035
     20 O12        45.8050   -2.7400  -12.5950 O.2       1 WLL        -0.3616
     21 O21        42.2470   -4.6820  -17.5540 O.3       1 WLL        -0.3230
     22 S8         45.6610   -5.9950   -7.3370 S.3       1 WLL        -0.0270
     23 H          45.3670   -6.9782  -15.1183 H         1 WLL         0.0572
     24 H          44.9181   -5.5618  -13.1372 H         1 WLL         0.0465
     25 H          44.1359   -6.5753  -17.2102 H         1 WLL         0.0486
     26 H          49.1624   -5.1300   -7.1056 H         1 WLL         0.0414
     27 H          41.9948   -3.3805  -15.3643 H         1 WLL         0.0479
     28 H          47.4726   -6.5102   -5.6966 H         1 WLL         0.0666
     29 H          42.1170   -5.2548  -19.5371 H         1 WLL         0.0577
     30 H          42.5917   -6.5458  -18.3819 H         1 WLL         0.0577
     31 H          43.7679   -5.2639  -18.8293 H         1 WLL         0.0577
     32 H          42.1068   -3.6069  -12.6864 H         1 WLL         0.0682
     33 H          43.3842   -2.4644  -13.2244 H         1 WLL         0.0682
     34 H          47.6519   -2.9309  -11.2667 H         1 WLL         0.2560
     35 H          43.5588   -4.3606  -11.0262 H         1 WLL         0.1883
@<TRIPOS>BOND
     1    2    1 ar 
     2    1    3 ar 
     3    8    2 ar 
     4    9    3 ar 
     5    4    6 2  
     6    7    4 1  
     7    8    5 ar 
     8    5    9 ar 
     9   22    6 1  
    10   10    7 2  
    11   11    7 1  
    12   15    8 1  
    13    9   21 1  
    14   16   10 1  
    15   10   22 1  
    16   17   11 am 
    17   11   19 2  
    18   13   12 1  
    19   12   16 2  
    20   12   17 1  
    21   18   13 am 
    22   13   20 2  
    23   21   14 1  
    24   15   18 1  
    25    1   23 1  
    26    2   24 1  
    27    3   25 1  
    28    4   26 1  
    29    5   27 1  
    30    6   28 1  
    31   14   29 1  
    32   14   30 1  
    33   14   31 1  
    34   15   32 1  
    35   15   33 1  
    36   17   34 1  
    37   18   35 1  
@<TRIPOS>SUBSTRUCTURE
     1 WLL         1

