### 
### Created by X-TOOL on Mon Sep 10 21:13:20 2018
### 

@<TRIPOS>MOLECULE
3wvm_ligand
   55    54     1     0     0
SMALL
GAST_HUCK


@<TRIPOS>ATOM
      1 C1          5.8020  -16.5780   -1.5630 C.2       1 STE         0.0348
      2 O1          6.8590  -15.9210   -1.4970 O.co2     1 STE        -0.5690
      3 O2          4.7810  -16.3510   -0.8460 O.co2     1 STE        -0.5690
      4 C2          5.6830  -17.6950   -2.5740 C.3       1 STE         0.0002
      5 C3          6.9570  -18.0980   -3.2800 C.3       1 STE        -0.0414
      6 C4          6.7950  -19.2040   -4.2910 C.3       1 STE        -0.0516
      7 C5          8.1130  -19.6940   -4.8260 C.3       1 STE        -0.0530
      8 C6          8.0210  -20.6320   -6.0410 C.3       1 STE        -0.0531
      9 C7          7.1100  -21.8260   -5.8630 C.3       1 STE        -0.0531
     10 C8          7.5580  -22.8080   -4.7830 C.3       1 STE        -0.0531
     11 C9          6.5040  -23.8460   -4.5350 C.3       1 STE        -0.0531
     12 C10         6.8610  -25.0090   -3.6460 C.3       1 STE        -0.0531
     13 C11         7.4210  -24.6230   -2.3470 C.3       1 STE        -0.0531
     14 C12         6.6000  -23.5870   -1.5450 C.3       1 STE        -0.0531
     15 C13         7.0560  -23.4450   -0.1130 C.3       1 STE        -0.0531
     16 C14         6.3870  -22.3600    0.6600 C.3       1 STE        -0.0531
     17 C15         6.5790  -20.9580    0.1070 C.3       1 STE        -0.0531
     18 C16         8.0420  -20.5480   -0.1650 C.3       1 STE        -0.0533
     19 C17         8.9420  -20.5470    1.1090 C.3       1 STE        -0.0559
     20 C18        10.3910  -20.2580    0.7490 C.3       1 STE        -0.0653
     21 H1          4.9611  -17.3775   -3.3408 H         1 STE         0.0430
     22 H2          5.2955  -18.5812   -2.0502 H         1 STE         0.0430
     23 H3          7.6788  -18.4318   -2.5200 H         1 STE         0.0283
     24 H4          7.3546  -17.2141   -3.8002 H         1 STE         0.0283
     25 H5          6.1913  -18.8288   -5.1305 H         1 STE         0.0266
     26 H6          6.2739  -20.0460   -3.8121 H         1 STE         0.0266
     27 H7          8.6282  -20.2341   -4.0180 H         1 STE         0.0265
     28 H8          8.7085  -18.8166   -5.1184 H         1 STE         0.0265
     29 H9          9.0322  -21.0049   -6.2608 H         1 STE         0.0265
     30 H10         7.6521  -20.0466   -6.8961 H         1 STE         0.0265
     31 H11         7.0608  -22.3664   -6.8198 H         1 STE         0.0265
     32 H12         6.1080  -21.4574   -5.5981 H         1 STE         0.0265
     33 H13         7.7471  -22.2564   -3.8503 H         1 STE         0.0265
     34 H14         8.4835  -23.3050   -5.1092 H         1 STE         0.0265
     35 H15         6.2118  -24.2574   -5.5124 H         1 STE         0.0265
     36 H16         5.6422  -23.3366   -4.0791 H         1 STE         0.0265
     37 H17         7.6025  -25.6293   -4.1706 H         1 STE         0.0265
     38 H18         5.9500  -25.5990   -3.4673 H         1 STE         0.0265
     39 H19         8.4209  -24.1994   -2.5223 H         1 STE         0.0265
     40 H20         7.5100  -25.5318   -1.7337 H         1 STE         0.0265
     41 H21         5.5455  -23.9001   -1.5464 H         1 STE         0.0265
     42 H22         6.6928  -22.6090   -2.0398 H         1 STE         0.0265
     43 H23         8.1372  -23.2425   -0.1183 H         1 STE         0.0265
     44 H24         6.8640  -24.3980    0.4017 H         1 STE         0.0265
     45 H25         6.7841  -22.3784    1.6856 H         1 STE         0.0265
     46 H26         5.3080  -22.5726    0.6807 H         1 STE         0.0265
     47 H27         6.1564  -20.2465    0.8317 H         1 STE         0.0265
     48 H28         6.0253  -20.8883   -0.8409 H         1 STE         0.0265
     49 H29         8.0446  -19.5344   -0.5923 H         1 STE         0.0265
     50 H30         8.4706  -21.2535   -0.8920 H         1 STE         0.0265
     51 H31         8.8810  -21.5324    1.5939 H         1 STE         0.0263
     52 H32         8.5823  -19.7736    1.8036 H         1 STE         0.0263
     53 H33        11.0037  -20.2628    1.6625 H         1 STE         0.0230
     54 H34        10.4594  -19.2716    0.2669 H         1 STE         0.0230
     55 H35        10.7581  -21.0305    0.0573 H         1 STE         0.0230
@<TRIPOS>BOND
     1    1    2 ar 
     2    1    3 ar 
     3    1    4 1  
     4    4    5 1  
     5    5    6 1  
     6    6    7 1  
     7    7    8 1  
     8    8    9 1  
     9    9   10 1  
    10   10   11 1  
    11   11   12 1  
    12   12   13 1  
    13   13   14 1  
    14   14   15 1  
    15   15   16 1  
    16   16   17 1  
    17   17   18 1  
    18   18   19 1  
    19   19   20 1  
    20    4   21 1  
    21    4   22 1  
    22    5   23 1  
    23    5   24 1  
    24    6   25 1  
    25    6   26 1  
    26    7   27 1  
    27    7   28 1  
    28    8   29 1  
    29    8   30 1  
    30    9   31 1  
    31    9   32 1  
    32   10   33 1  
    33   10   34 1  
    34   11   35 1  
    35   11   36 1  
    36   12   37 1  
    37   12   38 1  
    38   13   39 1  
    39   13   40 1  
    40   14   41 1  
    41   14   42 1  
    42   15   43 1  
    43   15   44 1  
    44   16   45 1  
    45   16   46 1  
    46   17   47 1  
    47   17   48 1  
    48   18   49 1  
    49   18   50 1  
    50   19   51 1  
    51   19   52 1  
    52   20   53 1  
    53   20   54 1  
    54   20   55 1  
@<TRIPOS>SUBSTRUCTURE
     1 STE         1

