### 
### Created by X-TOOL on Mon Sep 10 21:13:18 2018
### 

@<TRIPOS>MOLECULE
3wyk_ligand
   41    44     1     0     0
SMALL
GAST_HUCK


@<TRIPOS>ATOM
      1 C12         9.8850    1.2820  -20.3450 C.ar      1 3KG        -0.0685
      2 C11         8.7230    1.4310  -19.6170 C.ar      1 3KG        -0.0657
      3 C13        10.7000    0.1830  -20.1450 C.ar      1 3KG        -0.0657
      4 C19         9.5300   -1.5200  -23.6420 C.ar      1 3KG        -0.0364
      5 C20         9.4790   -2.4420  -24.6630 C.ar      1 3KG        -0.0389
      6 C10         8.3810    0.4750  -18.6820 C.ar      1 3KG        -0.0255
      7 C14        10.3670   -0.7790  -19.2130 C.ar      1 3KG        -0.0255
      8 C18         8.7970   -1.7260  -22.4940 C.ar      1 3KG         0.0020
      9 C5          7.9540   -3.2720  -16.4850 C.2       1 3KG        -0.0352
     10 C26         7.9550   -3.7510  -23.3780 C.ar      1 3KG         0.0024
     11 C6          8.8420   -2.5500  -15.6550 C.2       1 3KG        -0.0009
     12 C21         8.6870   -3.5620  -24.5310 C.ar      1 3KG         0.0420
     13 C9          9.2050   -0.6180  -18.4890 C.ar      1 3KG         0.1112
     14 C17         7.9990   -2.8400  -22.3490 C.ar      1 3KG         0.1433
     15 C4          7.9740   -2.6160  -17.6970 C.2       1 3KG         0.1301
     16 C28         5.2890   -3.9530  -20.1150 C.2       1 3KG         0.0051
     17 C27         6.0220   -3.6510  -21.1860 C.2       1 3KG         0.0912
     18 C3          7.2970   -2.9440  -18.9120 C.2       1 3KG         0.1585
     19 C2          5.9390   -3.5880  -18.8440 C.2       1 3KG         0.1282
     20 C22         8.6170   -4.5670  -25.6330 C.3       1 3KG         0.3747
     21 N7          9.3940   -1.5210  -16.3050 N.2       1 3KG        -0.2030
     22 N15         7.9060   -2.7210  -20.0300 N.2       1 3KG        -0.1326
     23 N8          8.8560   -1.5760  -17.5360 N.pl3     1 3KG        -0.1553
     24 N16         7.2630   -3.0700  -21.1720 N.pl3     1 3KG        -0.1246
     25 O1          5.4130   -3.7900  -17.7610 O.2       1 3KG        -0.4220
     26 F23         9.8290   -5.1320  -25.9120 F         1 3KG        -0.2204
     27 F24         7.7720   -5.6080  -25.3740 F         1 3KG        -0.2204
     28 F25         8.1430   -4.0080  -26.7830 F         1 3KG        -0.2204
     29 H          10.1610    2.0310  -21.0784 H         1 3KG         0.0559
     30 H           8.0838    2.2916  -19.7778 H         1 3KG         0.0600
     31 H          11.6091    0.0760  -20.7257 H         1 3KG         0.0600
     32 H          10.1459   -0.6335  -23.7412 H         1 3KG         0.0680
     33 H          10.0587   -2.2878  -25.5659 H         1 3KG         0.0791
     34 H           7.4712    0.5807  -18.1022 H         1 3KG         0.0587
     35 H          11.0045   -1.6412  -19.0540 H         1 3KG         0.0587
     36 H           8.8488   -0.9995  -21.6911 H         1 3KG         0.0822
     37 H           7.3772   -4.1576  -16.2227 H         1 3KG         0.0379
     38 H           7.3335   -4.6338  -23.2809 H         1 3KG         0.0794
     39 H           9.0502   -2.8010  -14.6160 H         1 3KG         0.0673
     40 H           4.3081   -4.4224  -20.1732 H         1 3KG         0.0423
     41 H           5.5965   -3.8872  -22.1602 H         1 3KG         0.1225
@<TRIPOS>BOND
     1    2    1 ar 
     2    3    1 ar 
     3    6    2 ar 
     4    7    3 ar 
     5    4    5 ar 
     6    8    4 ar 
     7   12    5 ar 
     8   13    6 ar 
     9   13    7 ar 
    10   14    8 ar 
    11    9   11 1  
    12   15    9 2  
    13   10   12 ar 
    14   14   10 ar 
    15   11   21 2  
    16   12   20 1  
    17   23   13 1  
    18   24   14 1  
    19   18   15 1  
    20   15   23 1  
    21   16   17 2  
    22   19   16 1  
    23   17   24 1  
    24   18   19 1  
    25   18   22 2  
    26   19   25 2  
    27   20   26 1  
    28   20   27 1  
    29   20   28 1  
    30   21   23 1  
    31   22   24 1  
    32    1   29 1  
    33    2   30 1  
    34    3   31 1  
    35    4   32 1  
    36    5   33 1  
    37    6   34 1  
    38    7   35 1  
    39    8   36 1  
    40    9   37 1  
    41   10   38 1  
    42   11   39 1  
    43   16   40 1  
    44   17   41 1  
@<TRIPOS>SUBSTRUCTURE
     1 3KG         1

