### 
### Created by X-TOOL on Mon Sep 10 21:13:19 2018
### 

@<TRIPOS>MOLECULE
3wyl_ligand
   45    48     1     0     0
SMALL
GAST_HUCK


@<TRIPOS>ATOM
      1 C26         9.9470    1.7290  -20.4580 C.ar      1 3KB        -0.0686
      2 C25         8.6890    1.7000  -19.8990 C.ar      1 3KB        -0.0658
      3 C27        10.8860    0.7730  -20.1220 C.ar      1 3KB        -0.0658
      4 C14         9.6400   -0.7770  -23.7360 C.ar      1 3KB        -0.0369
      5 C13         9.7030   -1.6400  -24.8040 C.ar      1 3KB        -0.0393
      6 C24         8.3700    0.7150  -18.9900 C.ar      1 3KB        -0.0256
      7 C28        10.5730   -0.2190  -19.2200 C.ar      1 3KB        -0.0256
      8 C15         8.9240   -1.1400  -22.6220 C.ar      1 3KB         0.0007
      9 C19         8.0730   -2.8730  -16.6620 C.2       1 3KB        -0.0371
     10 C7          8.3490   -3.2100  -23.6220 C.ar      1 3KB         0.0011
     11 C20         8.9060   -2.0950  -15.8260 C.2       1 3KB        -0.0026
     12 C8          9.0570   -2.8570  -24.7420 C.ar      1 3KB         0.0414
     13 C23         9.3150   -0.2290  -18.6660 C.ar      1 3KB         0.1107
     14 C6          8.2740   -2.3550  -22.5570 C.ar      1 3KB         0.1369
     15 C18         8.1540   -2.2770  -17.9010 C.2       1 3KB         0.1271
     16 C4          6.3250   -3.3220  -21.4590 C.2       1 3KB         0.1098
     17 C17         7.5520   -2.6330  -19.1400 C.2       1 3KB         0.1589
     18 C3          5.5990   -3.6620  -20.3910 C.2       1 3KB         0.1575
     19 C29         6.2160   -3.3140  -19.1170 C.2       1 3KB         0.1692
     20 C1          3.9800   -4.8360  -21.5600 C.3       1 3KB         0.0541
     21 C9          9.0930   -3.8320  -25.8710 C.3       1 3KB         0.3745
     22 N21         9.4800   -1.0780  -16.4760 N.2       1 3KB        -0.2049
     23 N16         8.1710   -2.3560  -20.2400 N.2       1 3KB        -0.1417
     24 N22         9.0040   -1.2120  -17.7310 N.pl3     1 3KB        -0.1568
     25 N5          7.5510   -2.7050  -21.4080 N.pl3     1 3KB        -0.1394
     26 O30         5.6620   -3.5680  -18.0640 O.2       1 3KB        -0.4145
     27 O2          4.3680   -4.2770  -20.3040 O.3       1 3KB        -0.3289
     28 F10         9.8720   -3.4330  -26.9270 F         1 3KB        -0.2205
     29 F11         9.5590   -5.0610  -25.4720 F         1 3KB        -0.2205
     30 F12         7.8320   -4.0290  -26.3680 F         1 3KB        -0.2205
     31 H          10.2026    2.5080  -21.1672 H         1 3KB         0.0558
     32 H           7.9537    2.4480  -20.1726 H         1 3KB         0.0600
     33 H          11.8726    0.8040  -20.5700 H         1 3KB         0.0600
     34 H          10.1496    0.1790  -23.7728 H         1 3KB         0.0678
     35 H          10.2591   -1.3647  -25.6929 H         1 3KB         0.0787
     36 H           7.3861    0.6849  -18.5361 H         1 3KB         0.0586
     37 H          11.3023   -0.9752  -18.9527 H         1 3KB         0.0586
     38 H           8.8686   -0.4603  -21.7794 H         1 3KB         0.0818
     39 H           7.4931   -3.7526  -16.3863 H         1 3KB         0.0366
     40 H           7.8471   -4.1699  -23.5805 H         1 3KB         0.0788
     41 H           9.0628   -2.3016  -14.7683 H         1 3KB         0.0669
     42 H           5.9152   -3.5505  -22.4417 H         1 3KB         0.0984
     43 H           2.9966   -5.3182  -21.4586 H         1 3KB         0.0569
     44 H           4.7239   -5.5828  -21.8745 H         1 3KB         0.0569
     45 H           3.9207   -4.0374  -22.3142 H         1 3KB         0.0569
@<TRIPOS>BOND
     1    2    1 ar 
     2    3    1 ar 
     3    6    2 ar 
     4    7    3 ar 
     5    4    5 ar 
     6    8    4 ar 
     7   12    5 ar 
     8   13    6 ar 
     9   13    7 ar 
    10   14    8 ar 
    11    9   11 1  
    12   15    9 2  
    13   10   12 ar 
    14   14   10 ar 
    15   11   22 2  
    16   12   21 1  
    17   24   13 1  
    18   25   14 1  
    19   17   15 1  
    20   15   24 1  
    21   18   16 2  
    22   16   25 1  
    23   19   17 1  
    24   17   23 2  
    25   18   19 1  
    26   18   27 1  
    27   19   26 2  
    28   27   20 1  
    29   21   28 1  
    30   21   29 1  
    31   21   30 1  
    32   22   24 1  
    33   23   25 1  
    34    1   31 1  
    35    2   32 1  
    36    3   33 1  
    37    4   34 1  
    38    5   35 1  
    39    6   36 1  
    40    7   37 1  
    41    8   38 1  
    42    9   39 1  
    43   10   40 1  
    44   11   41 1  
    45   16   42 1  
    46   20   43 1  
    47   20   44 1  
    48   20   45 1  
@<TRIPOS>SUBSTRUCTURE
     1 3KB         1

