### 
### Created by X-TOOL on Mon Sep 10 21:13:17 2018
### 

@<TRIPOS>MOLECULE
3wym_ligand
   49    53     1     0     0
SMALL
GAST_HUCK


@<TRIPOS>ATOM
      1 C12        10.2330    1.8580  -20.0550 C.ar      1 3K9        -0.0686
      2 C11         8.9370    1.7140  -19.6020 C.ar      1 3K9        -0.0658
      3 C13        11.2110    0.9590  -19.6800 C.ar      1 3K9        -0.0658
      4 C10         8.6240    0.6610  -18.7600 C.ar      1 3K9        -0.0256
      5 C14        10.8940   -0.0970  -18.8470 C.ar      1 3K9        -0.0256
      6 C26        10.4520   -0.6220  -23.1760 C.ar      1 3K9        -0.0338
      7 C27         9.5530   -1.0610  -22.2310 C.ar      1 3K9        -0.0321
      8 C23        13.1110    0.2210  -26.3290 C.2       1 3K9        -0.0481
      9 C5          8.2860   -3.0270  -16.6050 C.2       1 3K9        -0.0375
     10 C19        10.0030   -2.5780  -24.4900 C.ar      1 3K9         0.0038
     11 C24        13.0310   -1.1020  -26.8330 C.2       1 3K9        -0.0064
     12 C6          9.0840   -2.3210  -15.6750 C.2       1 3K9        -0.0030
     13 C22        12.1990    0.2720  -25.3000 C.2       1 3K9         0.0625
     14 C9          9.6020   -0.2400  -18.3920 C.ar      1 3K9         0.1105
     15 C20        10.6820   -1.3920  -24.2960 C.ar      1 3K9         0.1030
     16 C17         8.8730   -2.2540  -22.3900 C.ar      1 3K9         0.1376
     17 C18         9.1100   -2.9920  -23.5270 C.ar      1 3K9         0.1628
     18 C4          8.4240   -2.3460  -17.7950 C.2       1 3K9         0.1264
     19 C29         6.8240   -3.3560  -21.5010 C.2       1 3K9         0.1076
     20 C3          7.8620   -2.6520  -19.0850 C.2       1 3K9         0.1577
     21 C30         6.0460   -3.7420  -20.4800 C.2       1 3K9         0.1568
     22 C2          6.5460   -3.3750  -19.1500 C.2       1 3K9         0.1679
     23 C32         4.4920   -4.7270  -21.8710 C.3       1 3K9         0.0540
     24 N25        12.1280   -1.8230  -26.1580 N.2       1 3K9        -0.2081
     25 N7          9.6980   -1.2810  -16.2520 N.2       1 3K9        -0.2053
     26 N15         8.5280   -2.3430  -20.1450 N.2       1 3K9        -0.1441
     27 N21        11.6290   -0.9690  -25.2380 N.pl3     1 3K9        -0.1698
     28 N8          9.2840   -1.3070  -17.5320 N.pl3     1 3K9        -0.1571
     29 N16         8.0110   -2.6760  -21.3540 N.pl3     1 3K9        -0.1483
     30 O1          5.9400   -3.6410  -18.1200 O.2       1 3K9        -0.4157
     31 O31         4.8460   -4.4280  -20.5170 O.3       1 3K9        -0.3291
     32 F28         8.4710   -4.1500  -23.6980 F         1 3K9        -0.1883
     33 H          10.4847    2.6838  -20.7106 H         1 3K9         0.0558
     34 H           8.1711    2.4195  -19.9031 H         1 3K9         0.0600
     35 H          12.2266    1.0813  -20.0386 H         1 3K9         0.0600
     36 H           7.6117    0.5443  -18.3901 H         1 3K9         0.0586
     37 H          11.6575   -0.8084  -18.5535 H         1 3K9         0.0586
     38 H          10.9734    0.3187  -23.0411 H         1 3K9         0.0539
     39 H           9.3749   -0.4606  -21.3462 H         1 3K9         0.0546
     40 H          13.7561    1.0246  -26.6810 H         1 3K9         0.0342
     41 H           7.6894   -3.9191  -16.4200 H         1 3K9         0.0364
     42 H          10.1693   -3.1712  -25.3819 H         1 3K9         0.0556
     43 H          13.6269   -1.4819  -27.6616 H         1 3K9         0.0653
     44 H           9.1858   -2.5891  -14.6244 H         1 3K9         0.0669
     45 H          11.9764    1.1275  -24.6640 H         1 3K9         0.0988
     46 H           6.4956   -3.5959  -22.5112 H         1 3K9         0.0981
     47 H           3.5368   -5.2722  -21.8884 H         1 3K9         0.0569
     48 H           5.2771   -5.3483  -22.3266 H         1 3K9         0.0569
     49 H           4.3899   -3.7904  -22.4387 H         1 3K9         0.0569
@<TRIPOS>BOND
     1    2    1 ar 
     2    3    1 ar 
     3    4    2 ar 
     4    5    3 ar 
     5   14    4 ar 
     6   14    5 ar 
     7    7    6 ar 
     8    6   15 ar 
     9   16    7 ar 
    10    8   11 1  
    11   13    8 2  
    12    9   12 1  
    13   18    9 2  
    14   10   15 ar 
    15   17   10 ar 
    16   11   24 2  
    17   12   25 2  
    18   27   13 1  
    19   28   14 1  
    20   15   27 1  
    21   16   17 ar 
    22   29   16 1  
    23   17   32 1  
    24   20   18 1  
    25   18   28 1  
    26   21   19 2  
    27   19   29 1  
    28   22   20 1  
    29   20   26 2  
    30   21   22 1  
    31   21   31 1  
    32   22   30 2  
    33   31   23 1  
    34   24   27 1  
    35   25   28 1  
    36   26   29 1  
    37    1   33 1  
    38    2   34 1  
    39    3   35 1  
    40    4   36 1  
    41    5   37 1  
    42    6   38 1  
    43    7   39 1  
    44    8   40 1  
    45    9   41 1  
    46   10   42 1  
    47   11   43 1  
    48   12   44 1  
    49   13   45 1  
    50   19   46 1  
    51   23   47 1  
    52   23   48 1  
    53   23   49 1  
@<TRIPOS>SUBSTRUCTURE
     1 3K9         1

