### 
### Created by X-TOOL on Mon Sep 10 21:13:25 2018
### 

@<TRIPOS>MOLECULE
3wyx_ligand
   57    60     1     0     0
SMALL
GAST_HUCK


@<TRIPOS>ATOM
      1 N6        -33.2000  -20.9840   -4.6820 N.1       1 O38        -0.3006
      2 C23       -33.4090  -19.8480   -4.8090 C.1       1 O38         0.1236
      3 C22       -33.6550  -18.4040   -4.9590 C.3       1 O38         0.1915
      4 O         -32.7390  -17.8580   -5.9140 O.3       1 O38        -0.2940
      5 C21       -33.2110  -17.6040   -7.1770 C.ar      1 O38         0.0884
      6 C4        -33.2570  -16.3250   -7.7150 C.ar      1 O38        -0.0143
      7 C2        -32.7920  -15.2170   -6.9930 C.2       1 O38        -0.0101
      8 C1        -32.7790  -13.8970   -7.4400 C.2       1 O38         0.0557
      9 C3        -32.2420  -15.2200   -5.7040 C.2       1 O38         0.0016
     10 N1        -31.9040  -13.9570   -5.3610 N.2       1 O38        -0.2165
     11 N         -32.2510  -13.1570   -6.4580 N.pl3     1 O38        -0.2104
     12 C         -31.9840  -11.6990   -6.3130 C.3       1 O38         0.0600
     13 C20       -33.6780  -18.6930   -7.9070 C.ar      1 O38        -0.0127
     14 C7        -34.1950  -18.5620   -9.1730 C.ar      1 O38         0.0519
     15 C6        -34.2410  -17.2850   -9.7230 C.ar      1 O38        -0.0523
     16 C5        -33.7740  -16.1870   -9.0090 C.ar      1 O38        -0.0774
     17 N2        -34.6680  -19.7000   -9.7530 N.pl3     1 O38        -0.2621
     18 C8        -35.5060  -19.7590  -10.8330 C.ar      1 O38         0.1248
     19 N5        -35.8960  -18.6500  -11.4990 N.ar      1 O38        -0.2552
     20 C13       -36.7100  -18.7140  -12.5600 C.ar      1 O38         0.1342
     21 C11       -37.1940  -19.9530  -13.0140 C.ar      1 O38         0.1252
     22 C12       -37.9920  -20.0350  -14.0220 C.1       1 O38         0.0837
     23 N3        -38.7780  -20.0720  -14.8810 N.1       1 O38        -0.3468
     24 C10       -36.8150  -21.1140  -12.3590 C.ar      1 O38        -0.0303
     25 C9        -35.9720  -21.0110  -11.2570 C.ar      1 O38        -0.0149
     26 N4        -37.0660  -17.5570  -13.1660 N.pl3     1 O38        -0.2995
     27 C14       -36.7160  -16.2280  -12.6800 C.3       1 O38         0.0405
     28 C19       -37.9950  -15.3910  -12.5850 C.3       1 O38        -0.0296
     29 C18       -37.7460  -13.8920  -12.4550 C.3       1 O38        -0.0509
     30 C17       -36.7370  -13.3790  -13.4740 C.3       1 O38        -0.0529
     31 C16       -35.4220  -14.1350  -13.3640 C.3       1 O38        -0.0509
     32 C15       -35.6730  -15.6140  -13.6180 C.3       1 O38        -0.0296
     33 H1        -33.5128  -17.9056   -3.9888 H         1 O38         0.0918
     34 H2        -34.6860  -18.2423   -5.3067 H         1 O38         0.0918
     35 H3        -33.1316  -13.5363   -8.4051 H         1 O38         0.0974
     36 H4        -32.1081  -16.1007   -5.0777 H         1 O38         0.0657
     37 H5        -31.5318  -11.5051   -5.3292 H         1 O38         0.0605
     38 H6        -32.9292  -11.1429   -6.3980 H         1 O38         0.0605
     39 H7        -31.2937  -11.3721   -7.1046 H         1 O38         0.0605
     40 H8        -33.6322  -19.6798   -7.4607 H         1 O38         0.0447
     41 H9        -34.6453  -17.1444  -10.7189 H         1 O38         0.0443
     42 H10       -33.8109  -15.2036   -9.4636 H         1 O38         0.0524
     43 H11       -34.3682  -20.5957   -9.3421 H         1 O38         0.2151
     44 H12       -37.1677  -22.0814  -12.6979 H         1 O38         0.0759
     45 H13       -35.6734  -21.9055  -10.7224 H         1 O38         0.0538
     46 H14       -37.6227  -17.6201  -14.0303 H         1 O38         0.1852
     47 H15       -36.2760  -16.3112  -11.6753 H         1 O38         0.0560
     48 H16       -38.5627  -15.7252  -11.7040 H         1 O38         0.0288
     49 H17       -38.5909  -15.5653  -13.4930 H         1 O38         0.0288
     50 H18       -37.3641  -13.6839  -11.4446 H         1 O38         0.0266
     51 H19       -38.6983  -13.3618  -12.6035 H         1 O38         0.0266
     52 H20       -36.5538  -12.3097  -13.2925 H         1 O38         0.0265
     53 H21       -37.1465  -13.5143  -14.4859 H         1 O38         0.0265
     54 H22       -35.0035  -14.0007  -12.3556 H         1 O38         0.0266
     55 H23       -34.7120  -13.7488  -14.1101 H         1 O38         0.0266
     56 H24       -36.0229  -15.7346  -14.6539 H         1 O38         0.0288
     57 H25       -34.7247  -16.1555  -13.4859 H         1 O38         0.0288
@<TRIPOS>BOND
     1    1    2 3  
     2    2    3 1  
     3    3    4 1  
     4    4    5 1  
     5    5    6 ar 
     6    5   13 ar 
     7    6    7 1  
     8    6   16 ar 
     9    7    8 2  
    10    7    9 1  
    11    8   11 1  
    12    9   10 2  
    13   10   11 1  
    14   11   12 1  
    15   13   14 ar 
    16   14   15 ar 
    17   14   17 1  
    18   15   16 ar 
    19   17   18 1  
    20   18   19 ar 
    21   18   25 ar 
    22   19   20 ar 
    23   20   21 ar 
    24   20   26 1  
    25   21   22 1  
    26   21   24 ar 
    27   22   23 3  
    28   24   25 ar 
    29   26   27 1  
    30   27   28 1  
    31   27   32 1  
    32   28   29 1  
    33   29   30 1  
    34   30   31 1  
    35   31   32 1  
    36    3   33 1  
    37    3   34 1  
    38    8   35 1  
    39    9   36 1  
    40   12   37 1  
    41   12   38 1  
    42   12   39 1  
    43   13   40 1  
    44   15   41 1  
    45   16   42 1  
    46   17   43 1  
    47   24   44 1  
    48   25   45 1  
    49   26   46 1  
    50   27   47 1  
    51   28   48 1  
    52   28   49 1  
    53   29   50 1  
    54   29   51 1  
    55   30   52 1  
    56   30   53 1  
    57   31   54 1  
    58   31   55 1  
    59   32   56 1  
    60   32   57 1  
@<TRIPOS>SUBSTRUCTURE
     1 O38         1

