### 
### Created by X-TOOL on Mon Sep 10 21:13:25 2018
### 

@<TRIPOS>MOLECULE
3wyy_ligand
   75    79     1     0     0
SMALL
GAST_HUCK


@<TRIPOS>ATOM
      1 N6        -32.9620  -17.4130   -2.2690 N.1       1 O17        -0.3006
      2 C29       -33.4470  -17.6640   -3.2990 C.1       1 O17         0.1241
      3 C28       -34.0670  -17.9820   -4.6010 C.3       1 O17         0.1940
      4 O2        -33.1200  -17.8750   -5.6780 O.3       1 O17        -0.2867
      5 C27       -33.5250  -17.6620   -6.9840 C.ar      1 O17         0.1029
      6 C6        -33.5900  -16.2770   -7.5340 C.ar      1 O17         0.0076
      7 C5        -33.2970  -15.1490   -6.6230 C.2       1 O17        -0.0511
      8 C4        -34.3700  -15.0510   -5.8280 C.2       1 O17        -0.0031
      9 C3        -34.6640  -14.1290   -4.7180 C.2       1 O17         0.1804
     10 O1        -33.9500  -14.1550   -3.7270 O.2       1 O17        -0.3981
     11 N         -35.7380  -13.3370   -4.8180 N.am      1 O17        -0.2887
     12 C2        -35.7620  -12.1460   -5.6560 C.3       1 O17         0.0529
     13 C1        -36.9790  -11.2660   -5.3680 C.3       1 O17         0.0672
     14 O         -36.5760  -10.1100   -4.6220 O.3       1 O17        -0.3810
     15 C         -37.3570   -8.9470   -4.9280 C.3       1 O17         0.0365
     16 C26       -33.8560  -18.7270   -7.8230 C.ar      1 O17        -0.0029
     17 C9        -34.2710  -18.4980   -9.1390 C.ar      1 O17         0.0607
     18 C8        -34.3380  -17.1890   -9.6430 C.ar      1 O17        -0.0420
     19 C7        -34.0160  -16.0810   -8.8520 C.ar      1 O17        -0.0637
     20 N1        -34.5640  -19.5940   -9.8920 N.pl3     1 O17        -0.2605
     21 C10       -35.4370  -19.7200  -10.9410 C.ar      1 O17         0.1121
     22 N5        -35.9040  -18.6520  -11.6540 N.ar      1 O17        -0.2715
     23 C15       -36.7570  -18.7790  -12.7060 C.ar      1 O17         0.1230
     24 C13       -37.2060  -20.1370  -13.1030 C.ar      1 O17         0.1419
     25 C14       -38.0160  -20.3120  -14.0890 C.1       1 O17         0.0730
     26 N3        -38.7570  -20.4860  -14.9640 N.1       1 O17        -0.3576
     27 C12       -36.6900  -21.2810  -12.3290 C.ar      1 O17         0.0692
     28 N2        -37.0600  -22.5450  -12.6420 N.pl3     1 O17        -0.3265
     29 C11       -35.8220  -21.0230  -11.2770 C.ar      1 O17         0.0007
     30 N4        -37.2180  -17.7180  -13.4220 N.pl3     1 O17        -0.2992
     31 C16       -36.9230  -16.3230  -13.1470 C.3       1 O17         0.0522
     32 C25       -37.3170  -15.5010  -14.3870 C.3       1 O17        -0.0238
     33 C20       -37.0740  -13.9990  -14.1480 C.3       1 O17        -0.0382
     34 C19       -35.5930  -13.7500  -13.8400 C.3       1 O17        -0.0472
     35 C21       -37.9170  -13.5730  -12.9390 C.3       1 O17        -0.0472
     36 C22       -37.5280  -14.3730  -11.6860 C.3       1 O17        -0.0382
     37 C24       -37.7450  -15.8690  -11.9310 C.3       1 O17        -0.0238
     38 C23       -36.0380  -14.1490  -11.4020 C.3       1 O17        -0.0472
     39 C18       -35.1870  -14.5740  -12.6120 C.3       1 O17        -0.0382
     40 C17       -35.4270  -16.0680  -12.8930 C.3       1 O17        -0.0238
     41 H1        -34.8951  -17.2812   -4.7828 H         1 O17         0.0923
     42 H2        -34.4569  -19.0101   -4.5692 H         1 O17         0.0923
     43 H3        -32.4007  -14.5308   -6.6031 H         1 O17         0.0715
     44 H4        -35.1569  -15.7741   -6.0373 H         1 O17         0.0539
     45 H5        -36.5577  -13.5726   -4.2959 H         1 O17         0.1832
     46 H6        -35.7893  -12.4550   -6.7113 H         1 O17         0.0540
     47 H7        -34.8491  -11.5616   -5.4685 H         1 O17         0.0540
     48 H8        -37.7144  -11.8392   -4.7844 H         1 O17         0.0580
     49 H9        -37.4327  -10.9476   -6.3182 H         1 O17         0.0580
     50 H10       -37.0010   -8.0976   -4.3265 H         1 O17         0.0523
     51 H11       -38.4140   -9.1435   -4.6954 H         1 O17         0.0523
     52 H12       -37.2551   -8.7077   -5.9968 H         1 O17         0.0523
     53 H13       -33.7908  -19.7430   -7.4507 H         1 O17         0.0470
     54 H14       -34.6469  -17.0333  -10.6703 H         1 O17         0.0474
     55 H15       -34.0959  -15.0787   -9.2571 H         1 O17         0.0605
     56 H16       -34.0560  -20.4527   -9.6362 H         1 O17         0.2171
     57 H17       -36.6949  -23.3386  -12.0962 H         1 O17         0.1796
     58 H18       -37.7066  -22.7132  -13.4259 H         1 O17         0.1796
     59 H19       -35.4316  -21.8534  -10.6999 H         1 O17         0.0426
     60 H20       -37.8276  -17.9213  -14.2269 H         1 O17         0.1852
     61 H21       -38.3831  -15.6637  -14.6036 H         1 O17         0.0293
     62 H22       -36.7138  -15.8317  -15.2454 H         1 O17         0.0293
     63 H23       -37.3699  -13.4241  -15.0379 H         1 O17         0.0302
     64 H24       -35.4348  -12.6811  -13.6342 H         1 O17         0.0271
     65 H25       -34.9820  -14.0516  -14.7036 H         1 O17         0.0271
     66 H26       -38.9798  -13.7484  -13.1619 H         1 O17         0.0271
     67 H27       -37.7545  -12.5022  -12.7467 H         1 O17         0.0271
     68 H28       -38.1324  -14.0413  -10.8289 H         1 O17         0.0302
     69 H29       -37.4258  -16.4343  -11.0430 H         1 O17         0.0293
     70 H30       -38.8121  -16.0566  -12.1211 H         1 O17         0.0293
     71 H31       -35.7433  -14.7447  -10.5255 H         1 O17         0.0271
     72 H32       -35.8655  -13.0825  -11.1953 H         1 O17         0.0271
     73 H33       -34.1224  -14.4058  -12.3922 H         1 O17         0.0302
     74 H34       -34.8506  -16.3687  -13.7803 H         1 O17         0.0293
     75 H35       -35.0991  -16.6589  -12.0251 H         1 O17         0.0293
@<TRIPOS>BOND
     1    1    2 3  
     2    2    3 1  
     3    3    4 1  
     4    4    5 1  
     5    5    6 ar 
     6    5   16 ar 
     7    6    7 1  
     8    6   19 ar 
     9    7    8 2  
    10    8    9 1  
    11    9   10 2  
    12    9   11 am 
    13   11   12 1  
    14   12   13 1  
    15   13   14 1  
    16   14   15 1  
    17   16   17 ar 
    18   17   18 ar 
    19   17   20 1  
    20   18   19 ar 
    21   20   21 1  
    22   21   22 ar 
    23   21   29 ar 
    24   22   23 ar 
    25   23   24 ar 
    26   23   30 1  
    27   24   25 1  
    28   24   27 ar 
    29   25   26 3  
    30   27   28 1  
    31   27   29 ar 
    32   30   31 1  
    33   31   32 1  
    34   31   37 1  
    35   31   40 1  
    36   32   33 1  
    37   33   34 1  
    38   33   35 1  
    39   34   39 1  
    40   35   36 1  
    41   36   37 1  
    42   36   38 1  
    43   38   39 1  
    44   39   40 1  
    45    3   41 1  
    46    3   42 1  
    47    7   43 1  
    48    8   44 1  
    49   11   45 1  
    50   12   46 1  
    51   12   47 1  
    52   13   48 1  
    53   13   49 1  
    54   15   50 1  
    55   15   51 1  
    56   15   52 1  
    57   16   53 1  
    58   18   54 1  
    59   19   55 1  
    60   20   56 1  
    61   28   57 1  
    62   28   58 1  
    63   29   59 1  
    64   30   60 1  
    65   32   61 1  
    66   32   62 1  
    67   33   63 1  
    68   34   64 1  
    69   34   65 1  
    70   35   66 1  
    71   35   67 1  
    72   36   68 1  
    73   37   69 1  
    74   37   70 1  
    75   38   71 1  
    76   38   72 1  
    77   39   73 1  
    78   40   74 1  
    79   40   75 1  
@<TRIPOS>SUBSTRUCTURE
     1 O17         1

