### 
### Created by X-TOOL on Mon Sep 10 21:13:20 2018
### 

@<TRIPOS>MOLECULE
3wz6_ligand
   59    62     1     0     0
SMALL
GAST_HUCK


@<TRIPOS>ATOM
      1 O1         46.4610    5.8500   10.8400 O.2       1 IXZ        -0.3741
      2 C18        47.0880    5.5240    9.8580 C.2       1 IXZ         0.2593
      3 C19        47.5370    4.0890    9.6810 C.3       1 IXZ         0.0656
      4 N2         46.5860    3.2280   10.4100 N.4       1 IXZ         0.2564
      5 C20        45.3870    2.9880    9.5810 C.3       1 IXZ         0.0020
      6 C21        44.3180    2.1460   10.2370 C.ar      1 IXZ         0.0014
      7 C23        44.4170    0.7640   10.2220 C.ar      1 IXZ        -0.0553
      8 C25        43.4250   -0.0060   10.8130 C.ar      1 IXZ        -0.0684
      9 C26        42.3350    0.6050   11.4100 C.ar      1 IXZ        -0.0687
     10 C24        42.2360    1.9870   11.4240 C.ar      1 IXZ        -0.0684
     11 C22        43.2260    2.7570   10.8370 C.ar      1 IXZ        -0.0553
     12 N1         47.4000    6.4610    8.8890 N.am      1 IXZ        -0.2040
     13 C2         46.9010    7.7850    8.8450 C.2       1 IXZ         0.1555
     14 S          47.8490    9.0760    8.8650 S.3       1 IXZ        -0.0067
     15 C3         45.5810    8.2120    8.7980 C.2       1 IXZ         0.0559
     16 C1         45.4790    9.6080    8.7650 C.2       1 IXZ        -0.0383
     17 C4         44.2170   10.3790    8.7130 C.ar      1 IXZ        -0.0369
     18 C6         44.0920   11.5470    9.4570 C.ar      1 IXZ        -0.0595
     19 C8         42.9160   12.2810    9.4130 C.ar      1 IXZ        -0.0645
     20 C9         41.8610   11.8560    8.6190 C.ar      1 IXZ        -0.0647
     21 C7         41.9820   10.6920    7.8740 C.ar      1 IXZ        -0.0645
     22 C5         43.1610    9.9580    7.9150 C.ar      1 IXZ        -0.0595
     23 C          46.7220   10.2130    8.8030 C.2       1 IXZ        -0.0114
     24 C10        44.4180    7.3070    8.7770 C.2       1 IXZ         0.1686
     25 O          43.5640    7.3880    9.6340 O.2       1 IXZ        -0.4118
     26 N          44.3290    6.3640    7.7710 N.am      1 IXZ        -0.2834
     27 C11        43.1640    5.4920    7.5500 C.3       1 IXZ         0.0627
     28 C12        41.9930    6.2920    7.0520 C.ar      1 IXZ        -0.0212
     29 C14        42.1330    7.1250    5.9540 C.ar      1 IXZ        -0.0584
     30 C16        41.0520    7.8640    5.5050 C.ar      1 IXZ        -0.0685
     31 C17        39.8290    7.7720    6.1500 C.ar      1 IXZ        -0.0687
     32 C15        39.6930    6.9420    7.2530 C.ar      1 IXZ        -0.0685
     33 C13        40.7740    6.2020    7.7050 C.ar      1 IXZ        -0.0584
     34 H1         48.5494    3.9599   10.0912 H         1 IXZ         0.1070
     35 H2         47.5378    3.8257    8.6130 H         1 IXZ         0.1070
     36 H3         46.3137    3.6822   11.2677 H         1 IXZ         0.2047
     37 H4         47.0275    2.3470   10.6218 H         1 IXZ         0.2047
     38 H5         45.7052    2.4788    8.6593 H         1 IXZ         0.0980
     39 H6         44.9460    3.9633    9.3276 H         1 IXZ         0.0980
     40 H7         45.2673    0.2853    9.7498 H         1 IXZ         0.0558
     41 H8         43.5035   -1.0871   10.8073 H         1 IXZ         0.0599
     42 H9         41.5587    0.0017   11.8666 H         1 IXZ         0.0559
     43 H10        41.3842    2.4651   11.8941 H         1 IXZ         0.0599
     44 H11        43.1479    3.8381   10.8462 H         1 IXZ         0.0558
     45 H12        48.0274    6.1809    8.1625 H         1 IXZ         0.2400
     46 H13        44.9168   11.8852   10.0738 H         1 IXZ         0.0595
     47 H14        42.8213   13.1876    9.9996 H         1 IXZ         0.0610
     48 H15        40.9437   12.4323    8.5807 H         1 IXZ         0.0593
     49 H16        41.1555   10.3546    7.2590 H         1 IXZ         0.0610
     50 H17        43.2569    9.0550    7.3230 H         1 IXZ         0.0595
     51 H18        46.9048   11.2865    8.7925 H         1 IXZ         0.0563
     52 H19        45.1082    6.2675    7.1517 H         1 IXZ         0.1852
     53 H20        42.8921    5.0044    8.4978 H         1 IXZ         0.0681
     54 H21        43.4220    4.7257    6.8042 H         1 IXZ         0.0681
     55 H22        43.0883    7.1981    5.4468 H         1 IXZ         0.0557
     56 H23        41.1625    8.5165    4.6464 H         1 IXZ         0.0599
     57 H24        38.9816    8.3466    5.7939 H         1 IXZ         0.0559
     58 H25        38.7388    6.8720    7.7627 H         1 IXZ         0.0599
     59 H26        40.6663    5.5542    8.5674 H         1 IXZ         0.0557
@<TRIPOS>BOND
     1    1    2 2  
     2    2    3 1  
     3    2   12 am 
     4    3    4 1  
     5    4    5 1  
     6    5    6 1  
     7    6    7 ar 
     8    6   11 ar 
     9    7    8 ar 
    10    8    9 ar 
    11    9   10 ar 
    12   10   11 ar 
    13   12   13 1  
    14   13   14 1  
    15   13   15 2  
    16   14   23 1  
    17   15   16 1  
    18   15   24 1  
    19   16   17 1  
    20   16   23 2  
    21   17   18 ar 
    22   17   22 ar 
    23   18   19 ar 
    24   19   20 ar 
    25   20   21 ar 
    26   21   22 ar 
    27   24   25 2  
    28   24   26 am 
    29   26   27 1  
    30   27   28 1  
    31   28   29 ar 
    32   28   33 ar 
    33   29   30 ar 
    34   30   31 ar 
    35   31   32 ar 
    36   32   33 ar 
    37    3   34 1  
    38    3   35 1  
    39    4   36 1  
    40    4   37 1  
    41    5   38 1  
    42    5   39 1  
    43    7   40 1  
    44    8   41 1  
    45    9   42 1  
    46   10   43 1  
    47   11   44 1  
    48   12   45 1  
    49   18   46 1  
    50   19   47 1  
    51   20   48 1  
    52   21   49 1  
    53   22   50 1  
    54   23   51 1  
    55   26   52 1  
    56   27   53 1  
    57   27   54 1  
    58   29   55 1  
    59   30   56 1  
    60   31   57 1  
    61   32   58 1  
    62   33   59 1  
@<TRIPOS>SUBSTRUCTURE
     1 IXZ         1

