### 
### Created by X-TOOL on Mon Sep 10 21:13:25 2018
### 

@<TRIPOS>MOLECULE
3wz7_ligand
   66    70     1     0     0
SMALL
GAST_HUCK


@<TRIPOS>ATOM
      1 C1         48.3990   11.3480    9.5180 C.3       1 IXY        -0.0260
      2 C2         47.6000   10.0910    9.2900 C.2       1 IXY        -0.0094
      3 C3         46.1140    9.8570    9.0780 C.2       1 IXY        -0.0715
      4 C4         45.4230   11.2260    9.1230 C.3       1 IXY        -0.0419
      5 C5         46.1520   12.3500    9.8470 C.3       1 IXY        -0.0475
      6 C6         47.5310   12.5670    9.2580 C.3       1 IXY        -0.0460
      7 S7         48.1020    8.5250    9.1960 S.3       1 IXY        -0.0188
      8 C8         46.9390    7.4300    8.9380 C.2       1 IXY         0.1429
      9 C9         45.7360    8.3750    8.8790 C.2       1 IXY         0.0407
     10 C10        44.4740    7.5870    8.6410 C.2       1 IXY         0.1655
     11 O11        43.5650    7.6810    9.4700 O.2       1 IXY        -0.4123
     12 N12        44.3530    6.8830    7.5140 N.am      1 IXY        -0.2836
     13 C13        43.1640    6.1200    7.1480 C.3       1 IXY         0.0627
     14 C14        42.0900    7.0880    6.6700 C.ar      1 IXY        -0.0212
     15 C15        42.4280    8.3610    6.2320 C.ar      1 IXY        -0.0584
     16 C16        41.4300    9.2260    5.7870 C.ar      1 IXY        -0.0685
     17 C17        40.0950    8.8340    5.7730 C.ar      1 IXY        -0.0687
     18 C18        39.7480    7.5580    6.1930 C.ar      1 IXY        -0.0685
     19 C19        40.7480    6.6970    6.6360 C.ar      1 IXY        -0.0584
     20 N20        47.0460    6.1020    8.8170 N.am      1 IXY        -0.2103
     21 C21        46.7570    5.2450    9.7850 C.2       1 IXY         0.2567
     22 O22        46.3470    5.5930   10.8780 O.2       1 IXY        -0.3754
     23 C23        46.9490    3.7840    9.4630 C.3       1 IXY         0.0638
     24 N24        46.1940    2.9600   10.3910 N.4       1 IXY         0.2453
     25 C25        44.7570    2.8390   10.2330 C.3       1 IXY        -0.0277
     26 C26        44.2070    1.8550   11.2460 C.3       1 IXY         0.0041
     27 C27        42.7310    1.6870   11.0180 C.2       1 IXY        -0.0412
     28 C28        41.7410    2.6530   11.1860 C.2       1 IXY         0.0166
     29 N29        40.5160    2.1360   10.8870 N.pl3     1 IXY        -0.2891
     30 C30        40.6540    0.8410   10.5220 C.ar      1 IXY         0.0603
     31 C31        42.0940    0.5280   10.5990 C.ar      1 IXY        -0.0214
     32 C32        42.5780   -0.7410   10.2860 C.ar      1 IXY        -0.0747
     33 C33        41.6570   -1.7100    9.9020 C.ar      1 IXY        -0.0792
     34 C34        40.2930   -1.4230    9.8230 C.ar      1 IXY        -0.0768
     35 C35        39.7760   -0.1590   10.1230 C.ar      1 IXY        -0.0443
     36 H1         49.2607   11.3614    8.8344 H         1 IXY         0.0373
     37 H2         48.7558   11.3697   10.5583 H         1 IXY         0.0373
     38 H3         44.4503   11.0896    9.6182 H         1 IXY         0.0349
     39 H4         45.2633   11.5504    8.0841 H         1 IXY         0.0349
     40 H5         46.2518   12.0882   10.9107 H         1 IXY         0.0281
     41 H6         45.5692   13.2779    9.7509 H         1 IXY         0.0281
     42 H7         47.4436   12.7285    8.1734 H         1 IXY         0.0283
     43 H8         47.9924   13.4500    9.7242 H         1 IXY         0.0283
     44 H9         45.1262    6.8779    6.8798 H         1 IXY         0.1852
     45 H10        42.7975    5.5635    8.0232 H         1 IXY         0.0681
     46 H11        43.4111    5.4139    6.3416 H         1 IXY         0.0681
     47 H12        43.4637    8.6810    6.2360 H         1 IXY         0.0557
     48 H13        41.6979   10.2196    5.4465 H         1 IXY         0.0599
     49 H14        39.3291    9.5228    5.4353 H         1 IXY         0.0559
     50 H15        38.7130    7.2362    6.1764 H         1 IXY         0.0599
     51 H16        40.4797    5.6988    6.9627 H         1 IXY         0.0557
     52 H17        47.3633    5.7340    7.9430 H         1 IXY         0.2368
     53 H18        48.0170    3.5325    9.5407 H         1 IXY         0.1069
     54 H19        46.6000    3.5893    8.4382 H         1 IXY         0.1069
     55 H20        46.3571    3.3325   11.3133 H         1 IXY         0.2034
     56 H21        46.5747    2.0285   10.3326 H         1 IXY         0.2034
     57 H22        44.5306    2.4817    9.2176 H         1 IXY         0.0829
     58 H23        44.2890    3.8222   10.3886 H         1 IXY         0.0829
     59 H24        44.3814    2.2370   12.2627 H         1 IXY         0.0401
     60 H25        44.7107    0.8843   11.1275 H         1 IXY         0.0401
     61 H26        41.9208    3.6769   11.5105 H         1 IXY         0.0795
     62 H27        39.6249    2.6507   10.9319 H         1 IXY         0.2216
     63 H28        43.6372   -0.9654   10.3400 H         1 IXY         0.0540
     64 H29        42.0051   -2.7075    9.6593 H         1 IXY         0.0510
     65 H30        39.6105   -2.2081    9.5182 H         1 IXY         0.0530
     66 H31        38.7126    0.0366   10.0459 H         1 IXY         0.0541
@<TRIPOS>BOND
     1    1    2 1  
     2    1    6 1  
     3    2    3 2  
     4    2    7 1  
     5    3    4 1  
     6    3    9 1  
     7    4    5 1  
     8    5    6 1  
     9    7    8 1  
    10    8    9 2  
    11    8   20 1  
    12    9   10 1  
    13   10   11 2  
    14   10   12 am 
    15   12   13 1  
    16   13   14 1  
    17   14   15 ar 
    18   14   19 ar 
    19   15   16 ar 
    20   16   17 ar 
    21   17   18 ar 
    22   18   19 ar 
    23   20   21 am 
    24   21   22 2  
    25   21   23 1  
    26   23   24 1  
    27   24   25 1  
    28   25   26 1  
    29   26   27 1  
    30   27   28 2  
    31   27   31 1  
    32   28   29 1  
    33   29   30 1  
    34   30   31 ar 
    35   30   35 ar 
    36   31   32 ar 
    37   32   33 ar 
    38   33   34 ar 
    39   34   35 ar 
    40    1   36 1  
    41    1   37 1  
    42    4   38 1  
    43    4   39 1  
    44    5   40 1  
    45    5   41 1  
    46    6   42 1  
    47    6   43 1  
    48   12   44 1  
    49   13   45 1  
    50   13   46 1  
    51   15   47 1  
    52   16   48 1  
    53   17   49 1  
    54   18   50 1  
    55   19   51 1  
    56   20   52 1  
    57   23   53 1  
    58   23   54 1  
    59   24   55 1  
    60   24   56 1  
    61   25   57 1  
    62   25   58 1  
    63   26   59 1  
    64   26   60 1  
    65   28   61 1  
    66   29   62 1  
    67   32   63 1  
    68   33   64 1  
    69   34   65 1  
    70   35   66 1  
@<TRIPOS>SUBSTRUCTURE
     1 IXY         1

