### 
### Created by X-TOOL on Mon Sep 10 21:13:25 2018
### 

@<TRIPOS>MOLECULE
3wzj_ligand
   72    77     1     0     0
SMALL
GAST_HUCK


@<TRIPOS>ATOM
      1 O01       -40.5550  -21.0020  -16.5600 O.2       1 O43        -0.3876
      2 C02       -39.5070  -21.6050  -16.4790 C.2       1 O43         0.2007
      3 N03       -38.9860  -22.2970  -17.6520 N.am      1 O43        -0.2840
      4 C04       -39.8010  -22.2150  -18.8580 C.3       1 O43         0.0415
      5 C05       -40.8140  -23.3290  -18.9460 C.3       1 O43        -0.0279
      6 C06       -39.6000  -23.3360  -19.8570 C.3       1 O43        -0.0279
      7 C07       -38.7090  -21.6440  -15.1620 C.ar      1 O43         0.0438
      8 C08       -37.9850  -22.7930  -14.8450 C.ar      1 O43        -0.0474
      9 C09       -37.2410  -22.8460  -13.6520 C.ar      1 O43        -0.0534
     10 C10       -37.2550  -21.7190  -12.8220 C.ar      1 O43         0.0035
     11 C11       -37.9800  -20.5670  -13.1340 C.ar      1 O43        -0.0534
     12 C12       -38.7110  -20.5330  -14.3280 C.ar      1 O43        -0.0474
     13 C13       -36.4580  -21.7310  -11.5130 C.2       1 O43         0.1098
     14 C14       -36.1270  -22.8220  -10.7590 C.2       1 O43        -0.0103
     15 N15       -35.4220  -22.3700   -9.6980 N.2       1 O43        -0.3238
     16 C16       -35.3220  -20.9880   -9.8190 C.2       1 O43         0.1908
     17 N17       -35.9570  -20.6040  -10.9360 N.pl3     1 O43        -0.1517
     18 N18       -36.0390  -19.2690  -11.3740 N.2       1 O43        -0.1728
     19 C19       -35.4490  -18.2950  -10.6010 C.2       1 O43         0.1213
     20 N20       -35.4520  -16.9040  -10.9460 N.pl3     1 O43        -0.3063
     21 C21       -36.4290  -16.1290  -11.7020 C.3       1 O43         0.0372
     22 C22       -37.6440  -16.9070  -12.1730 C.3       1 O43        -0.0304
     23 C23       -38.6190  -15.8820  -12.7200 C.3       1 O43        -0.0510
     24 C24       -38.0200  -14.9770  -13.8060 C.3       1 O43        -0.0529
     25 C25       -36.6080  -14.4380  -13.5430 C.3       1 O43        -0.0510
     26 C26       -35.7120  -15.4800  -12.8940 C.3       1 O43        -0.0304
     27 C27       -34.7620  -18.6650   -9.3920 C.2       1 O43         0.0078
     28 C28       -34.6960  -19.9980   -9.0040 C.2       1 O43         0.1089
     29 N29       -34.0020  -20.3990   -7.7630 N.pl3     1 O43        -0.3097
     30 C30       -33.5250  -19.3120   -6.8630 C.3       1 O43         0.0306
     31 C31       -34.4840  -19.0320   -5.6800 C.3       1 O43        -0.0167
     32 C32       -34.0930  -19.9510   -4.5740 C.3       1 O43        -0.0247
     33 C33       -34.4260  -19.4920   -3.1600 C.3       1 O43         0.0480
     34 O34       -34.1560  -18.0540   -2.9770 O.3       1 O43        -0.3797
     35 C35       -34.7790  -17.1830   -3.9980 C.3       1 O43         0.0480
     36 C36       -34.3660  -17.5800   -5.4110 C.3       1 O43        -0.0247
     37 H1        -38.1209  -22.7981  -17.6305 H         1 O43         0.1845
     38 H2        -40.0108  -21.1805  -19.1673 H         1 O43         0.0555
     39 H3        -41.8128  -23.1322  -19.3626 H         1 O43         0.0288
     40 H4        -40.8946  -24.0643  -18.1319 H         1 O43         0.0288
     41 H5        -38.7996  -24.0746  -19.7027 H         1 O43         0.0288
     42 H6        -39.7178  -23.1425  -20.9334 H         1 O43         0.0288
     43 H7        -37.9954  -23.6438  -15.5166 H         1 O43         0.0653
     44 H8        -36.6752  -23.7310  -13.3843 H         1 O43         0.0589
     45 H9        -37.9770  -19.7147  -12.4642 H         1 O43         0.0589
     46 H10       -39.2737  -19.6471  -14.5992 H         1 O43         0.0653
     47 H11       -36.3828  -23.8588  -10.9726 H         1 O43         0.0555
     48 H12       -34.6390  -16.3694  -10.6080 H         1 O43         0.1787
     49 H13       -36.7959  -15.3292  -11.0419 H         1 O43         0.0549
     50 H14       -38.0967  -17.4525  -11.3319 H         1 O43         0.0287
     51 H15       -37.3583  -17.6195  -12.9609 H         1 O43         0.0287
     52 H16       -38.9587  -15.2476  -11.8881 H         1 O43         0.0266
     53 H17       -39.4796  -16.4160  -13.1491 H         1 O43         0.0266
     54 H18       -38.6902  -14.1135  -13.9291 H         1 O43         0.0265
     55 H19       -37.9890  -15.5535  -14.7423 H         1 O43         0.0265
     56 H20       -36.6793  -13.5661  -12.8761 H         1 O43         0.0266
     57 H21       -36.1608  -14.1319  -14.5002 H         1 O43         0.0266
     58 H22       -35.4621  -16.2552  -13.6334 H         1 O43         0.0287
     59 H23       -34.7884  -14.9967  -12.5429 H         1 O43         0.0287
     60 H24       -34.2920  -17.8976   -8.7787 H         1 O43         0.0473
     61 H25       -33.8538  -21.3911   -7.5293 H         1 O43         0.1822
     62 H26       -33.4208  -18.3900   -7.4538 H         1 O43         0.0524
     63 H27       -32.5442  -19.6001   -6.4568 H         1 O43         0.0524
     64 H28       -35.5236  -19.2537   -5.9631 H         1 O43         0.0322
     65 H29       -33.0043  -20.0976   -4.6302 H         1 O43         0.0291
     66 H30       -34.6015  -20.9118   -4.7420 H         1 O43         0.0291
     67 H31       -33.8145  -20.0634   -2.4461 H         1 O43         0.0560
     68 H32       -35.4916  -19.6825   -2.9647 H         1 O43         0.0560
     69 H33       -34.4694  -16.1433   -3.8157 H         1 O43         0.0560
     70 H34       -35.8729  -17.2603   -3.9121 H         1 O43         0.0560
     71 H35       -35.0070  -17.0414   -6.1244 H         1 O43         0.0291
     72 H36       -33.3179  -17.2827   -5.5629 H         1 O43         0.0291
@<TRIPOS>BOND
     1    1    2 2  
     2    2    3 am 
     3    2    7 1  
     4    3    4 1  
     5    4    5 1  
     6    4    6 1  
     7    5    6 1  
     8    7    8 ar 
     9    7   12 ar 
    10    8    9 ar 
    11    9   10 ar 
    12   10   11 ar 
    13   10   13 1  
    14   11   12 ar 
    15   13   14 2  
    16   13   17 1  
    17   14   15 1  
    18   15   16 2  
    19   16   17 1  
    20   16   28 1  
    21   17   18 1  
    22   18   19 2  
    23   19   20 1  
    24   19   27 1  
    25   20   21 1  
    26   21   22 1  
    27   21   26 1  
    28   22   23 1  
    29   23   24 1  
    30   24   25 1  
    31   25   26 1  
    32   27   28 2  
    33   28   29 1  
    34   29   30 1  
    35   30   31 1  
    36   31   32 1  
    37   31   36 1  
    38   32   33 1  
    39   33   34 1  
    40   34   35 1  
    41   35   36 1  
    42    3   37 1  
    43    4   38 1  
    44    5   39 1  
    45    5   40 1  
    46    6   41 1  
    47    6   42 1  
    48    8   43 1  
    49    9   44 1  
    50   11   45 1  
    51   12   46 1  
    52   14   47 1  
    53   20   48 1  
    54   21   49 1  
    55   22   50 1  
    56   22   51 1  
    57   23   52 1  
    58   23   53 1  
    59   24   54 1  
    60   24   55 1  
    61   25   56 1  
    62   25   57 1  
    63   26   58 1  
    64   26   59 1  
    65   27   60 1  
    66   29   61 1  
    67   30   62 1  
    68   30   63 1  
    69   31   64 1  
    70   32   65 1  
    71   32   66 1  
    72   33   67 1  
    73   33   68 1  
    74   35   69 1  
    75   35   70 1  
    76   36   71 1  
    77   36   72 1  
@<TRIPOS>SUBSTRUCTURE
     1 O43         1

