### 
### Created by X-TOOL on Mon Sep 10 21:13:25 2018
### 

@<TRIPOS>MOLECULE
3wzk_ligand
   48    52     1     0     0
SMALL
GAST_HUCK


@<TRIPOS>ATOM
      1 O           5.3130  -34.4040  -16.5480 O.2       1 O23        -0.3753
      2 C           4.2520  -33.7880  -16.4980 C.2       1 O23         0.2197
      3 N           3.7900  -33.1340  -17.5710 N.am      1 O23        -0.2806
      4 C1          4.6200  -33.0470  -18.7650 C.3       1 O23         0.0419
      5 C3          4.2780  -31.8320  -19.6250 C.3       1 O23        -0.0279
      6 C2          5.4780  -31.7930  -18.6800 C.3       1 O23        -0.0279
      7 C4          3.4760  -33.7770  -15.2050 C.ar      1 O23         0.0701
      8 C9          2.6790  -32.6800  -14.8730 C.ar      1 O23        -0.0207
      9 C8          1.9620  -32.6740  -13.6690 C.ar      1 O23        -0.0215
     10 C7          2.0290  -33.7580  -12.7920 C.ar      1 O23         0.0501
     11 C6          2.8440  -34.8430  -13.1220 C.ar      1 O23        -0.0215
     12 C5          3.5570  -34.8610  -14.3270 C.ar      1 O23        -0.0207
     13 C10         1.2430  -33.6920  -11.5120 C.2       1 O23         0.1438
     14 N2          0.7050  -34.8130  -10.9790 N.ar      1 O23        -0.2635
     15 C13         0.6900  -36.1280  -11.3170 C.ar      1 O23         0.0238
     16 C14         0.0260  -37.0870  -10.5240 C.ar      1 O23         0.0285
     17 N3         -0.6260  -36.7360   -9.3880 N.ar      1 O23        -0.2509
     18 C15        -0.6370  -35.4360   -9.0070 C.ar      1 O23         0.2033
     19 C12         0.0640  -34.4210   -9.8560 C.ar      1 O23         0.2378
     20 N1          0.1850  -33.0790   -9.7040 N.pl3     1 O23        -0.1937
     21 C11         0.9230  -32.5930  -10.7310 C.2       1 O23         0.1509
     22 N4         -1.2740  -35.0140   -7.8940 N.pl3     1 O23        -0.2774
     23 C16        -1.9050  -35.9340   -6.9690 C.3       1 O23         0.0772
     24 C17        -0.9140  -36.4260   -5.9370 C.2       1 O23         0.0353
     25 S          -0.2750  -35.2420   -4.8350 S.3       1 O23        -0.0422
     26 C20         0.7150  -36.3820   -3.9760 C.2       1 O23        -0.0195
     27 C19         0.5190  -37.6310   -4.5770 C.2       1 O23        -0.0931
     28 C18        -0.3720  -37.6760   -5.6570 C.2       1 O23        -0.0796
     29 H           2.8847  -32.7097  -17.5530 H         1 O23         0.1850
     30 H           4.9521  -34.0132  -19.1726 H         1 O23         0.0555
     31 H           3.3819  -31.2342  -19.4021 H         1 O23         0.0288
     32 H           4.4349  -31.8658  -20.7132 H         1 O23         0.0288
     33 H           6.4994  -31.7971  -19.0882 H         1 O23         0.0288
     34 H           5.4464  -31.1655  -17.7771 H         1 O23         0.0288
     35 H           2.6148  -31.8330  -15.5464 H         1 O23         0.0726
     36 H           1.3480  -31.8173  -13.4156 H         1 O23         0.0783
     37 H           2.9255  -35.6801  -12.4381 H         1 O23         0.0783
     38 H           4.1726  -35.7169  -14.5790 H         1 O23         0.0726
     39 H           1.2006  -36.4485  -12.2179 H         1 O23         0.0833
     40 H           0.0371  -38.1271  -10.8293 H         1 O23         0.0893
     41 H           1.2055  -31.5559  -10.9060 H         1 O23         0.1668
     42 H          -1.3128  -34.0040   -7.6956 H         1 O23         0.1932
     43 H          -2.2987  -36.7948   -7.5293 H         1 O23         0.0723
     44 H          -2.7322  -35.4200   -6.4576 H         1 O23         0.0723
     45 H           1.3654  -36.1658   -3.1297 H         1 O23         0.0598
     46 H           1.0335  -38.5230   -4.2227 H         1 O23         0.0371
     47 H          -0.6118  -38.5820   -6.2115 H         1 O23         0.0277
     48 H1         -0.2169  -32.5223   -8.9363 H         1 O23         0.2742
@<TRIPOS>BOND
     1    1    2 2  
     2    2    3 am 
     3    2    7 1  
     4    3    4 1  
     5    4    5 1  
     6    4    6 1  
     7    5    6 1  
     8    7    8 ar 
     9    7   12 ar 
    10    8    9 ar 
    11    9   10 ar 
    12   10   11 ar 
    13   10   13 1  
    14   11   12 ar 
    15   13   14 1  
    16   13   21 2  
    17   14   15 ar 
    18   14   19 ar 
    19   15   16 ar 
    20   16   17 ar 
    21   17   18 ar 
    22   18   19 ar 
    23   18   22 1  
    24   19   20 1  
    25   20   21 1  
    26   22   23 1  
    27   23   24 1  
    28   24   25 1  
    29   24   28 2  
    30   25   26 1  
    31   26   27 2  
    32   27   28 1  
    33    3   29 1  
    34    4   30 1  
    35    5   31 1  
    36    5   32 1  
    37    6   33 1  
    38    6   34 1  
    39    8   35 1  
    40    9   36 1  
    41   11   37 1  
    42   12   38 1  
    43   15   39 1  
    44   16   40 1  
    45   21   41 1  
    46   22   42 1  
    47   23   43 1  
    48   23   44 1  
    49   26   45 1  
    50   27   46 1  
    51   28   47 1  
    52   20   48 1  
@<TRIPOS>SUBSTRUCTURE
     1 O23         1

