### 
### Created by X-TOOL on Mon Sep 10 21:13:21 2018
### 

@<TRIPOS>MOLECULE
3wzn_ligand
   31    32     1     0     0
SMALL
GAST_HUCK


@<TRIPOS>ATOM
      1 C11         2.5050  -17.5940    0.5180 C.2       1 BTN         0.0348
      2 O11         3.2150  -18.3450   -0.2270 O.co2     1 BTN        -0.5690
      3 O12         1.2720  -17.9390    0.7660 O.co2     1 BTN        -0.5690
      4 C10         3.0720  -16.2990    1.0680 C.3       1 BTN         0.0002
      5 C9          4.4450  -16.4720    1.7530 C.3       1 BTN        -0.0414
      6 C8          4.4990  -17.4910    2.9000 C.3       1 BTN        -0.0505
      7 C7          5.9440  -17.5640    3.3890 C.3       1 BTN        -0.0389
      8 C2          6.0300  -18.4630    4.6300 C.3       1 BTN         0.0302
      9 S1          5.3050  -17.8350    6.0940 S.3       1 BTN        -0.1527
     10 C6          6.0770  -19.1380    7.1250 C.3       1 BTN         0.0190
     11 C5          7.4740  -19.2850    6.4940 C.3       1 BTN         0.0750
     12 N1          8.3710  -18.2920    7.0950 N.am      1 BTN        -0.2671
     13 C3          8.8490  -17.4930    6.1320 C.2       1 BTN         0.2580
     14 O3          9.5110  -16.3660    6.4070 O.2       1 BTN        -0.4008
     15 N2          8.3830  -17.7250    4.8820 N.am      1 BTN        -0.2668
     16 C4          7.4980  -18.9010    5.0020 C.3       1 BTN         0.0775
     17 H1          2.3634  -15.8935    1.8052 H         1 BTN         0.0430
     18 H2          3.1843  -15.5870    0.2371 H         1 BTN         0.0430
     19 H3          4.7457  -15.4940    2.1568 H         1 BTN         0.0283
     20 H4          5.1666  -16.7896    0.9860 H         1 BTN         0.0283
     21 H5          4.1753  -18.4785    2.5393 H         1 BTN         0.0267
     22 H6          3.8419  -17.1667    3.7204 H         1 BTN         0.0267
     23 H7          6.2938  -16.5532    3.6458 H         1 BTN         0.0277
     24 H8          6.5782  -17.9802    2.5924 H         1 BTN         0.0277
     25 H9          5.4747  -19.3756    4.3678 H         1 BTN         0.0435
     26 H10         5.5124  -20.0799    7.0624 H         1 BTN         0.0399
     27 H11         6.1478  -18.8221    8.1763 H         1 BTN         0.0399
     28 H12         7.8426  -20.3108    6.6420 H         1 BTN         0.0584
     29 H13         8.5906  -18.2226    8.0681 H         1 BTN         0.1849
     30 H14         8.5938  -17.2085    4.0521 H         1 BTN         0.1849
     31 H15         7.8440  -19.7319    4.3697 H         1 BTN         0.0587
@<TRIPOS>BOND
     1    1    2 ar 
     2    1    3 ar 
     3    1    4 1  
     4    4    5 1  
     5    5    6 1  
     6    6    7 1  
     7    7    8 1  
     8    8    9 1  
     9    8   16 1  
    10    9   10 1  
    11   10   11 1  
    12   11   12 1  
    13   11   16 1  
    14   12   13 am 
    15   13   14 2  
    16   13   15 am 
    17   15   16 1  
    18    4   17 1  
    19    4   18 1  
    20    5   19 1  
    21    5   20 1  
    22    6   21 1  
    23    6   22 1  
    24    7   23 1  
    25    7   24 1  
    26    8   25 1  
    27   10   26 1  
    28   10   27 1  
    29   11   28 1  
    30   12   29 1  
    31   15   30 1  
    32   16   31 1  
@<TRIPOS>SUBSTRUCTURE
     1 BTN         1

