### 
### Created by X-TOOL on Mon Sep 10 21:13:20 2018
### 

@<TRIPOS>MOLECULE
3wzp_ligand
   52    53     1     0     0
SMALL
GAST_HUCK


@<TRIPOS>ATOM
      1 OAW        34.9460   -5.0490   33.2030 O.co2     1 ZOF        -0.5690
      2 CAV        34.6840   -3.9670   32.5880 C.2       1 ZOF         0.0348
      3 OAX        35.4650   -3.3650   31.7630 O.co2     1 ZOF        -0.5690
      4 CAU        33.3790   -3.2680   33.0790 C.3       1 ZOF         0.0002
      5 CAT        32.1570   -3.8540   32.3500 C.3       1 ZOF        -0.0414
      6 CAS        30.8470   -3.2820   32.8680 C.3       1 ZOF        -0.0497
      7 CAR        29.6940   -3.8380   32.0630 C.3       1 ZOF        -0.0327
      8 CAQ        28.3890   -3.3380   32.7000 C.3       1 ZOF         0.0309
      9 NAO        27.2370   -3.8930   32.0030 N.am      1 ZOF        -0.2870
     10 CAN        26.7510   -5.1070   32.3150 C.2       1 ZOF         0.1760
     11 OAP        27.3160   -5.8340   33.1270 O.2       1 ZOF        -0.3971
     12 CAM        25.4190   -5.5650   31.6760 C.3       1 ZOF         0.0372
     13 CAL        25.4130   -6.9760   31.0750 C.3       1 ZOF        -0.0360
     14 CAK        26.4080   -7.0290   29.9100 C.3       1 ZOF        -0.0499
     15 CAI        26.4540   -8.4060   29.2550 C.3       1 ZOF        -0.0374
     16 CAH        27.4670   -8.3660   28.1030 C.3       1 ZOF         0.0448
     17 SAG        26.8600   -7.5690   26.5960 S.3       1 ZOF        -0.1496
     18 CAF        28.3760   -8.0830   25.7280 C.3       1 ZOF         0.0337
     19 CAC        28.6640   -9.4850   26.1960 C.3       1 ZOF         0.1191
     20 CAD        27.9800   -9.7610   27.5840 C.3       1 ZOF         0.1216
     21 NAE        26.9300  -10.7160   27.2120 N.pl3     1 ZOF        -0.2649
     22 CAA        26.9790  -10.9750   25.8890 C.cat     1 ZOF         0.2910
     23 NAJ        26.1650  -11.8320   25.2870 N.pl3     1 ZOF        -0.2847
     24 NAB        28.0060  -10.3950   25.2660 N.pl3     1 ZOF        -0.2652
     25 H1         33.4438   -2.1898   32.8711 H         1 ZOF         0.0430
     26 H2         33.2669   -3.4266   34.1617 H         1 ZOF         0.0430
     27 H3         32.1484   -4.9445   32.4942 H         1 ZOF         0.0283
     28 H4         32.2425   -3.6267   31.2772 H         1 ZOF         0.0283
     29 H5         30.8638   -2.1862   32.7736 H         1 ZOF         0.0267
     30 H6         30.7207   -3.5571   33.9255 H         1 ZOF         0.0267
     31 H7         29.7214   -4.9375   32.0811 H         1 ZOF         0.0285
     32 H8         29.7607   -3.4866   31.0228 H         1 ZOF         0.0285
     33 H9         28.3541   -2.2402   32.6401 H         1 ZOF         0.0520
     34 H10        28.3584   -3.6489   33.7547 H         1 ZOF         0.0520
     35 H11        26.7991   -3.3608   31.2784 H         1 ZOF         0.1850
     36 H12        25.1694   -4.8559   30.8730 H         1 ZOF         0.0502
     37 H13        24.6418   -5.5269   32.4535 H         1 ZOF         0.0502
     38 H14        24.4039   -7.2162   30.7088 H         1 ZOF         0.0290
     39 H15        25.7072   -7.7053   31.8441 H         1 ZOF         0.0290
     40 H16        27.4109   -6.7832   30.2890 H         1 ZOF         0.0267
     41 H17        26.1094   -6.2871   29.1548 H         1 ZOF         0.0267
     42 H18        25.4586   -8.6642   28.8644 H         1 ZOF         0.0277
     43 H19        26.7640   -9.1584   29.9951 H         1 ZOF         0.0277
     44 H20        28.3315   -7.7977   28.4768 H         1 ZOF         0.0451
     45 H21        29.2103   -7.4144   25.9865 H         1 ZOF         0.0415
     46 H22        28.2176   -8.0679   24.6396 H         1 ZOF         0.0415
     47 H23        29.7484   -9.6631   26.2456 H         1 ZOF         0.0773
     48 H24        28.6694  -10.2043   28.3176 H         1 ZOF         0.0776
     49 H25        26.2520  -11.1298   27.8677 H         1 ZOF         0.2646
     50 H26        26.2452  -11.9929   24.2728 H         1 ZOF         0.2615
     51 H27        25.4527  -12.3366   25.8337 H         1 ZOF         0.2615
     52 H28        28.2876  -10.5623   24.2895 H         1 ZOF         0.2646
@<TRIPOS>BOND
     1    1    2 ar 
     2    2    3 ar 
     3    2    4 1  
     4    4    5 1  
     5    5    6 1  
     6    6    7 1  
     7    7    8 1  
     8    8    9 1  
     9    9   10 am 
    10   10   11 2  
    11   10   12 1  
    12   12   13 1  
    13   13   14 1  
    14   14   15 1  
    15   15   16 1  
    16   16   17 1  
    17   16   20 1  
    18   17   18 1  
    19   18   19 1  
    20   19   20 1  
    21   19   24 1  
    22   20   21 1  
    23   21   22 ar 
    24   22   23 ar 
    25   22   24 ar 
    26    4   25 1  
    27    4   26 1  
    28    5   27 1  
    29    5   28 1  
    30    6   29 1  
    31    6   30 1  
    32    7   31 1  
    33    7   32 1  
    34    8   33 1  
    35    8   34 1  
    36    9   35 1  
    37   12   36 1  
    38   12   37 1  
    39   13   38 1  
    40   13   39 1  
    41   14   40 1  
    42   14   41 1  
    43   15   42 1  
    44   15   43 1  
    45   16   44 1  
    46   18   45 1  
    47   18   46 1  
    48   19   47 1  
    49   20   48 1  
    50   21   49 1  
    51   23   50 1  
    52   23   51 1  
    53   24   52 1  
@<TRIPOS>SUBSTRUCTURE
     1 ZOF         1

