### 
### Created by X-TOOL on Mon Sep 10 21:13:24 2018
### 

@<TRIPOS>MOLECULE
3wzq_ligand
   52    53     1     0     0
SMALL
GAST_HUCK


@<TRIPOS>ATOM
      1 OAW        17.3100   -8.8310    5.5710 O.co2     1 ZOF        -0.5690
      2 CAV        16.3410   -9.3580    6.1920 C.2       1 ZOF         0.0348
      3 OAX        16.3990  -10.3400    6.9830 O.co2     1 ZOF        -0.5690
      4 CAU        14.9550   -8.7370    5.9800 C.3       1 ZOF         0.0002
      5 CAT        14.8330   -7.4730    6.8480 C.3       1 ZOF        -0.0414
      6 CAS        13.3870   -7.3210    7.3110 C.3       1 ZOF        -0.0497
      7 CAR        13.2180   -5.9440    7.9410 C.3       1 ZOF        -0.0327
      8 CAQ        12.0120   -5.2180    7.3310 C.3       1 ZOF         0.0309
      9 NAO        11.6480   -4.0460    8.1390 N.am      1 ZOF        -0.2870
     10 CAN        12.4540   -2.9520    8.3090 C.2       1 ZOF         0.1760
     11 OAP        13.5810   -2.8120    7.8200 O.2       1 ZOF        -0.3971
     12 CAM        11.8410   -1.8390    9.1590 C.3       1 ZOF         0.0372
     13 CAL        12.9100   -1.0840    9.9830 C.3       1 ZOF        -0.0360
     14 CAK        13.3450   -1.9660   11.1820 C.3       1 ZOF        -0.0499
     15 CAI        14.4190   -1.1950   11.9790 C.3       1 ZOF        -0.0374
     16 CAH        14.7690   -2.1060   13.2350 C.3       1 ZOF         0.0448
     17 SAG        13.5850   -2.0910   14.6050 S.3       1 ZOF        -0.1496
     18 CAF        14.7410   -2.9550   15.6710 C.3       1 ZOF         0.0337
     19 CAC        16.1120   -2.2100   15.4050 C.3       1 ZOF         0.1191
     20 CAD        16.1340   -1.7470   13.9330 C.3       1 ZOF         0.1216
     21 NAE        16.2870   -0.2710   14.0100 N.pl3     1 ZOF        -0.2649
     22 CAA        16.3460    0.0730   15.3100 C.cat     1 ZOF         0.2910
     23 NAJ        16.4650    1.3550   15.6930 N.pl3     1 ZOF        -0.2847
     24 NAB        16.2320   -0.9680   16.1730 N.pl3     1 ZOF        -0.2652
     25 H1         14.1787   -9.4601    6.2708 H         1 ZOF         0.0430
     26 H2         14.8289   -8.4700    4.9204 H         1 ZOF         0.0430
     27 H3         15.1251   -6.5917    6.2580 H         1 ZOF         0.0283
     28 H4         15.4923   -7.5629    7.7239 H         1 ZOF         0.0283
     29 H5         13.1521   -8.0987    8.0526 H         1 ZOF         0.0267
     30 H6         12.7102   -7.4194    6.4495 H         1 ZOF         0.0267
     31 H7         14.1264   -5.3501    7.7620 H         1 ZOF         0.0285
     32 H8         13.0619   -6.0581    9.0239 H         1 ZOF         0.0285
     33 H9         11.1569   -5.9088    7.2913 H         1 ZOF         0.0520
     34 H10        12.2657   -4.8895    6.3123 H         1 ZOF         0.0520
     35 H11        10.7568   -4.0473    8.5927 H         1 ZOF         0.1850
     36 H12        11.1080   -2.2820    9.8493 H         1 ZOF         0.0502
     37 H13        11.3337   -1.1235    8.4951 H         1 ZOF         0.0502
     38 H14        12.4880   -0.1389   10.3554 H         1 ZOF         0.0290
     39 H15        13.7821   -0.8710    9.3473 H         1 ZOF         0.0290
     40 H16        13.7628   -2.9150   10.8147 H         1 ZOF         0.0267
     41 H17        12.4783   -2.1722   11.8272 H         1 ZOF         0.0267
     42 H18        14.0252   -0.2226   12.3098 H         1 ZOF         0.0277
     43 H19        15.3144   -1.0367   11.3600 H         1 ZOF         0.0277
     44 H20        14.8328   -3.1353   12.8524 H         1 ZOF         0.0451
     45 H21        14.8109   -4.0179   15.3964 H         1 ZOF         0.0415
     46 H22        14.4439   -2.8677   16.7265 H         1 ZOF         0.0415
     47 H23        16.9517   -2.8849   15.6272 H         1 ZOF         0.0773
     48 H24        16.9705   -2.2054   13.3852 H         1 ZOF         0.0776
     49 H25        16.3388    0.3751   13.2095 H         1 ZOF         0.2646
     50 H26        16.5080    1.5914   16.6946 H         1 ZOF         0.2615
     51 H27        16.5133    2.1016   14.9851 H         1 ZOF         0.2615
     52 H28        16.2301   -0.8967   17.2005 H         1 ZOF         0.2646
@<TRIPOS>BOND
     1    1    2 ar 
     2    2    3 ar 
     3    2    4 1  
     4    4    5 1  
     5    5    6 1  
     6    6    7 1  
     7    7    8 1  
     8    8    9 1  
     9    9   10 am 
    10   10   11 2  
    11   10   12 1  
    12   12   13 1  
    13   13   14 1  
    14   14   15 1  
    15   15   16 1  
    16   16   17 1  
    17   16   20 1  
    18   17   18 1  
    19   18   19 1  
    20   19   20 1  
    21   19   24 1  
    22   20   21 1  
    23   21   22 ar 
    24   22   23 ar 
    25   22   24 ar 
    26    4   25 1  
    27    4   26 1  
    28    5   27 1  
    29    5   28 1  
    30    6   29 1  
    31    6   30 1  
    32    7   31 1  
    33    7   32 1  
    34    8   33 1  
    35    8   34 1  
    36    9   35 1  
    37   12   36 1  
    38   12   37 1  
    39   13   38 1  
    40   13   39 1  
    41   14   40 1  
    42   14   41 1  
    43   15   42 1  
    44   15   43 1  
    45   16   44 1  
    46   18   45 1  
    47   18   46 1  
    48   19   47 1  
    49   20   48 1  
    50   21   49 1  
    51   23   50 1  
    52   23   51 1  
    53   24   52 1  
@<TRIPOS>SUBSTRUCTURE
     1 ZOF         1

