### 
### Created by X-TOOL on Mon Sep 10 21:13:25 2018
### 

@<TRIPOS>MOLECULE
3wzu_ligand
   50    51     1     0     0
SMALL
GAST_HUCK


@<TRIPOS>ATOM
      1 C2        -10.1080  -15.2060    1.2950 C.ar      1 1FM         0.0770
      2 C3        -10.7630  -15.1460   -0.0580 C.ar      1 1FM        -0.0373
      3 C11       -10.7150  -16.1610    2.2480 C.ar      1 1FM         0.0976
      4 C14       -11.8560  -15.9670   -0.3430 C.ar      1 1FM        -0.0388
      5 C15       -12.3730  -16.8530    0.6020 C.ar      1 1FM         0.0832
      6 O15        -7.8280  -14.9660    2.5830 O.3       1 1FM        -0.2789
      7 C16       -11.8110  -16.9360    1.8740 C.ar      1 1FM        -0.0030
      8 C17       -10.3150  -14.5110   -2.4280 C.2       1 1FM        -0.0681
      9 C18        -5.5020  -14.6000    1.9170 C.3       1 1FM        -0.0205
     10 C23       -10.2650  -14.2440   -1.1170 C.2       1 1FM        -0.0668
     11 C24        -8.2130  -13.3480   -3.0840 C.3       1 1FM         0.1089
     12 C26        -8.9190  -14.3710    1.7850 C.2       1 1FM         0.2447
     13 C31        -6.6710  -14.1300    2.7920 C.3       1 1FM         0.0832
     14 C34        -9.7240  -13.4850   -3.3630 C.3       1 1FM         0.0121
     15 O38        -8.8580  -13.1590    1.5790 O.2       1 1FM        -0.3723
     16 C39        -7.8550  -12.6760   -1.7210 C.3       1 1FM         0.1557
     17 C40        -6.3830  -12.6420   -1.3310 C.2       1 1FM         0.1362
     18 O40        -5.5190  -12.3820   -2.1530 O.2       1 1FM        -0.3887
     19 C41        -5.9610  -12.8900    0.1060 C.3       1 1FM         0.0239
     20 C42        -5.6820  -14.3730    0.4060 C.3       1 1FM        -0.0344
     21 O42        -7.6340  -14.6580   -3.1840 O.3       1 1FM        -0.3840
     22 O44        -8.3690  -11.3340   -1.6610 O.3       1 1FM        -0.3696
     23 O46       -10.1910  -16.2650    3.4980 O.3       1 1FM        -0.3313
     24 O48       -13.4540  -17.6530    0.3180 O.3       1 1FM        -0.3218
     25 C59       -13.9200  -17.8810   -1.0090 C.3       1 1FM         0.0602
     26 C62        -6.2550  -14.1190    4.2630 C.3       1 1FM        -0.0344
     27 H1        -12.3144  -15.9144   -1.3239 H         1 1FM         0.0426
     28 H2        -12.2390  -17.6239    2.5942 H         1 1FM         0.0445
     29 H3        -10.7632  -15.4297   -2.8035 H         1 1FM         0.0768
     30 H4         -5.3633  -15.6782    2.0849 H         1 1FM         0.0295
     31 H5         -4.5988  -14.0598    2.2370 H         1 1FM         0.0295
     32 H6         -9.8266  -13.2957   -0.8097 H         1 1FM         0.0434
     33 H7         -7.7832  -12.7168   -3.8758 H         1 1FM         0.0677
     34 H8         -6.9325  -13.1023    2.4997 H         1 1FM         0.0644
     35 H9        -10.2164  -12.5147   -3.2018 H         1 1FM         0.0502
     36 H10        -9.8774  -13.8056   -4.4040 H         1 1FM         0.0502
     37 H11        -8.3689  -13.2662   -0.9480 H         1 1FM         0.0857
     38 H12        -6.7652  -12.5435    0.7718 H         1 1FM         0.0495
     39 H13        -5.0454  -12.3141    0.3063 H         1 1FM         0.0495
     40 H14        -6.5278  -14.9786    0.0485 H         1 1FM         0.0291
     41 H15        -4.7642  -14.6802   -0.1168 H         1 1FM         0.0291
     42 H16        -7.8670  -15.0430   -4.0207 H         1 1FM         0.2104
     43 H17        -7.8842  -10.7831   -2.2643 H         1 1FM         0.2135
     44 H18        -9.4549  -15.6704    3.5820 H         1 1FM         0.2505
     45 H19       -14.7919  -18.5511   -0.9813 H         1 1FM         0.0579
     46 H20       -13.1197  -18.3450   -1.6041 H         1 1FM         0.0579
     47 H21       -14.2083  -16.9229   -1.4661 H         1 1FM         0.0579
     48 H22        -5.3726  -13.4746    4.3896 H         1 1FM         0.0258
     49 H23        -6.0103  -15.1427    4.5825 H         1 1FM         0.0258
     50 H24        -7.0827  -13.7317    4.8753 H         1 1FM         0.0258
@<TRIPOS>BOND
     1    1    2 ar 
     2    1    3 ar 
     3    1   12 1  
     4    2    4 ar 
     5    2   10 1  
     6    3    7 ar 
     7    3   23 1  
     8    4    5 ar 
     9    5    7 ar 
    10    5   24 1  
    11   12    6 1  
    12    6   13 1  
    13   10    8 2  
    14    8   14 1  
    15   13    9 1  
    16    9   20 1  
    17   14   11 1  
    18   11   16 1  
    19   11   21 1  
    20   12   15 2  
    21   13   26 1  
    22   16   17 1  
    23   16   22 1  
    24   17   18 2  
    25   17   19 1  
    26   19   20 1  
    27   24   25 1  
    28    4   27 1  
    29    7   28 1  
    30    8   29 1  
    31    9   30 1  
    32    9   31 1  
    33   10   32 1  
    34   11   33 1  
    35   13   34 1  
    36   14   35 1  
    37   14   36 1  
    38   16   37 1  
    39   19   38 1  
    40   19   39 1  
    41   20   40 1  
    42   20   41 1  
    43   21   42 1  
    44   22   43 1  
    45   23   44 1  
    46   25   45 1  
    47   25   46 1  
    48   25   47 1  
    49   26   48 1  
    50   26   49 1  
    51   26   50 1  
@<TRIPOS>SUBSTRUCTURE
     1 1FM         1

