### 
### Created by X-TOOL on Mon Sep 10 21:13:20 2018
### 

@<TRIPOS>MOLECULE
3x00_ligand
   52    53     1     0     0
SMALL
GAST_HUCK


@<TRIPOS>ATOM
      1 CAV        24.4080  -67.8760    6.8310 C.2       1 ZOF         0.0991
      2 OAX        23.3380  -68.2730    6.3330 O.2       1 ZOF        -0.3749
      3 CAU        25.7420  -68.5240    6.6600 C.3       1 ZOF         0.0189
      4 CAT        25.6780  -69.8230    7.3980 C.3       1 ZOF        -0.0372
      5 CAS        26.8840  -70.5910    7.0210 C.3       1 ZOF        -0.0491
      6 CAR        26.9920  -71.7670    7.9090 C.3       1 ZOF        -0.0326
      7 CAQ        28.1510  -72.6200    7.3570 C.3       1 ZOF         0.0309
      8 NAO        28.2910  -73.8220    8.1080 N.am      1 ZOF        -0.2870
      9 CAN        27.5310  -74.8930    8.0700 C.2       1 ZOF         0.1760
     10 OAP        26.5160  -74.9820    7.3420 O.2       1 ZOF        -0.3971
     11 CAM        27.9110  -76.1240    8.9110 C.3       1 ZOF         0.0372
     12 CAL        26.7910  -76.6320    9.8020 C.3       1 ZOF        -0.0360
     13 CAK        26.4060  -75.7500   10.9450 C.3       1 ZOF        -0.0499
     14 CAI        25.2300  -76.3650   11.6790 C.3       1 ZOF        -0.0374
     15 CAH        24.8150  -75.5170   12.9040 C.3       1 ZOF         0.0448
     16 SAG        26.0280  -75.6230   14.2710 S.3       1 ZOF        -0.1496
     17 CAF        24.8060  -74.8890   15.3020 C.3       1 ZOF         0.0337
     18 CAC        23.4200  -75.3770   15.0060 C.3       1 ZOF         0.1191
     19 CAD        23.4340  -75.8830   13.5340 C.3       1 ZOF         0.1216
     20 NAE        23.2950  -77.2810   13.5890 N.pl3     1 ZOF        -0.2649
     21 CAA        22.9360  -77.6690   14.8850 C.cat     1 ZOF         0.2910
     22 NAJ        22.9680  -78.9900   15.2220 N.pl3     1 ZOF        -0.2847
     23 NAB        23.2900  -76.6480   15.7010 N.pl3     1 ZOF        -0.2652
     24 H1         24.3671  -66.9775    7.4450 H         1 ZOF         0.1348
     25 H2         26.5321  -67.8854    7.0818 H         1 ZOF         0.0493
     26 H3         25.9446  -68.7019    5.5936 H         1 ZOF         0.0493
     27 H4         24.7719  -70.3768    7.1111 H         1 ZOF         0.0290
     28 H5         25.6689  -69.6417    8.4829 H         1 ZOF         0.0290
     29 H6         27.7766  -69.9582    7.1343 H         1 ZOF         0.0267
     30 H7         26.8000  -70.9228    5.9756 H         1 ZOF         0.0267
     31 H8         26.0548  -72.3427    7.8945 H         1 ZOF         0.0285
     32 H9         27.2106  -71.4481    8.9388 H         1 ZOF         0.0285
     33 H10        29.0858  -72.0437    7.4198 H         1 ZOF         0.0520
     34 H11        27.9456  -72.8722    6.3062 H         1 ZOF         0.0520
     35 H12        29.0631  -73.8548    8.7426 H         1 ZOF         0.1850
     36 H13        28.7664  -75.8567    9.5489 H         1 ZOF         0.0502
     37 H14        28.2030  -76.9340    8.2265 H         1 ZOF         0.0502
     38 H15        27.1054  -77.6010   10.2169 H         1 ZOF         0.0290
     39 H16        25.8999  -76.7743    9.1729 H         1 ZOF         0.0290
     40 H17        26.1231  -74.7576   10.5642 H         1 ZOF         0.0267
     41 H18        27.2573  -75.6493   11.6343 H         1 ZOF         0.0267
     42 H19        25.5101  -77.3723   12.0209 H         1 ZOF         0.0277
     43 H20        24.3764  -76.4362   10.9888 H         1 ZOF         0.0277
     44 H21        24.7647  -74.4728   12.5617 H         1 ZOF         0.0451
     45 H22        24.8325  -73.7991   15.1557 H         1 ZOF         0.0415
     46 H23        25.0441  -75.1242   16.3498 H         1 ZOF         0.0415
     47 H24        22.6357  -74.6403   15.2341 H         1 ZOF         0.0773
     48 H25        22.6156  -75.4323   12.9535 H         1 ZOF         0.0776
     49 H26        23.4360  -77.9226   12.7956 H         1 ZOF         0.2646
     50 H27        22.7056  -79.2853   16.1732 H         1 ZOF         0.2615
     51 H28        23.2546  -79.6924   14.5253 H         1 ZOF         0.2615
     52 H29        23.4510  -76.7602   16.7121 H         1 ZOF         0.2646
@<TRIPOS>BOND
     1    1    2 2  
     2    1    3 1  
     3    3    4 1  
     4    4    5 1  
     5    5    6 1  
     6    6    7 1  
     7    7    8 1  
     8    8    9 am 
     9    9   10 2  
    10    9   11 1  
    11   11   12 1  
    12   12   13 1  
    13   13   14 1  
    14   14   15 1  
    15   15   16 1  
    16   15   19 1  
    17   16   17 1  
    18   17   18 1  
    19   18   19 1  
    20   18   23 1  
    21   19   20 1  
    22   20   21 ar 
    23   21   22 ar 
    24   21   23 ar 
    25    1   24 1  
    26    3   25 1  
    27    3   26 1  
    28    4   27 1  
    29    4   28 1  
    30    5   29 1  
    31    5   30 1  
    32    6   31 1  
    33    6   32 1  
    34    7   33 1  
    35    7   34 1  
    36    8   35 1  
    37   11   36 1  
    38   11   37 1  
    39   12   38 1  
    40   12   39 1  
    41   13   40 1  
    42   13   41 1  
    43   14   42 1  
    44   14   43 1  
    45   15   44 1  
    46   17   45 1  
    47   17   46 1  
    48   18   47 1  
    49   19   48 1  
    50   20   49 1  
    51   22   50 1  
    52   22   51 1  
    53   23   52 1  
@<TRIPOS>SUBSTRUCTURE
     1 ZOF         1

