### 
### Created by X-TOOL on Mon Sep 10 21:13:15 2018
### 

@<TRIPOS>MOLECULE
3zbf_ligand
   53    56     1     0     0
SMALL
GAST_HUCK


@<TRIPOS>ATOM
      1 CL         41.4600   21.4450    3.2060 Cl        1 VGH        -0.0808
      2 C13        40.3420   20.1510    3.4690 C.ar      1 VGH         0.0403
      3 C3         40.0390   19.3390    2.3330 C.ar      1 VGH        -0.0561
      4 C2         39.1350   18.2580    2.4320 C.ar      1 VGH        -0.0339
      5 C12        38.5080   17.9570    3.6690 C.ar      1 VGH         0.1404
      6 F          37.6510   16.9220    3.7270 F         1 VGH        -0.1842
      7 C17        39.7230   19.8750    4.7590 C.ar      1 VGH         0.0160
      8 C18        38.7880   18.7480    4.8360 C.ar      1 VGH         0.0774
      9 CL2        37.9600   18.2860    6.3050 Cl        1 VGH        -0.0787
     10 C21        40.0620   20.7830    6.0110 C.3       1 VGH         0.1115
     11 C1         38.7710   21.3840    6.6080 C.3       1 VGH        -0.0242
     12 O27        40.7530   20.0750    7.1250 O.3       1 VGH        -0.3010
     13 C15        42.0160   19.4720    7.0310 C.ar      1 VGH         0.1362
     14 C4         42.9670   19.7760    6.0040 C.ar      1 VGH        -0.0252
     15 C19        42.4430   18.5050    8.0060 C.ar      1 VGH         0.1368
     16 N22        41.5780   18.1490    9.0610 N.pl3     1 VGH        -0.3267
     17 N23        43.6680   17.8940    7.9860 N.ar      1 VGH        -0.3009
     18 C5         44.5480   18.2140    6.9790 C.ar      1 VGH        -0.0161
     19 C14        44.2460   19.1580    5.9510 C.ar      1 VGH        -0.0311
     20 C16        45.1930   19.5290    4.8290 C.2       1 VGH        -0.0030
     21 C6         46.6310   19.2940    4.6930 C.2       1 VGH         0.0048
     22 C7         44.8370   20.1960    3.6750 C.2       1 VGH         0.0622
     23 N26        46.0030   20.3180    2.9540 N.pl3     1 VGH        -0.2005
     24 N24        47.0190   19.7900    3.5610 N.2       1 VGH        -0.2139
     25 C20        46.0420   20.9830    1.6340 C.3       1 VGH         0.0923
     26 C8         45.7700   19.9380    0.5180 C.3       1 VGH         0.0204
     27 C10        45.8050   20.6330   -0.8630 C.3       1 VGH        -0.0306
     28 N25        47.0630   21.4040   -1.0880 N.4       1 VGH         0.2271
     29 C11        47.3610   22.3760    0.0080 C.3       1 VGH        -0.0306
     30 C9         47.3910   21.6990    1.3990 C.3       1 VGH         0.0204
     31 H1         40.5099   19.5557    1.3810 H         1 VGH         0.0597
     32 H2         38.9189   17.6547    1.5577 H         1 VGH         0.0547
     33 H3         40.7131   21.5984    5.6629 H         1 VGH         0.0813
     34 H4         39.0254   22.0108    7.4754 H         1 VGH         0.0281
     35 H5         38.1015   20.5715    6.9266 H         1 VGH         0.0281
     36 H6         38.2665   21.9979    5.8474 H         1 VGH         0.0281
     37 H7         42.7028   20.5008    5.2425 H         1 VGH         0.0567
     38 H8         41.8786   17.4570    9.7622 H         1 VGH         0.1727
     39 H9         40.6455   18.5810    9.1305 H         1 VGH         0.1727
     40 H10        45.5163   17.7269    6.9649 H         1 VGH         0.0640
     41 H11        47.2661   18.7887    5.4191 H         1 VGH         0.0670
     42 H12        43.8460   20.5500    3.3947 H         1 VGH         0.1021
     43 H13        45.2444   21.7399    1.6044 H         1 VGH         0.0683
     44 H14        44.7802   19.4844    0.6745 H         1 VGH         0.0349
     45 H15        46.5419   19.1551    0.5535 H         1 VGH         0.0349
     46 H16        44.9519   21.3240   -0.9310 H         1 VGH         0.0815
     47 H17        45.7182   19.8651   -1.6458 H         1 VGH         0.0815
     48 H18        46.9762   21.9135   -1.9534 H         1 VGH         0.2013
     49 H19        47.8298   20.7533   -1.1566 H         1 VGH         0.2013
     50 H20        46.5851   23.1557    0.0104 H         1 VGH         0.0815
     51 H21        48.3419   22.8355   -0.1833 H         1 VGH         0.0815
     52 H22        48.2100   20.9656    1.4355 H         1 VGH         0.0349
     53 H23        47.5458   22.4606    2.1774 H         1 VGH         0.0349
@<TRIPOS>BOND
     1    1    2 1  
     2    2    3 ar 
     3    2    7 ar 
     4    3    4 ar 
     5    4    5 ar 
     6    5    6 1  
     7    5    8 ar 
     8    7    8 ar 
     9    7   10 1  
    10    8    9 1  
    11   10   11 1  
    12   10   12 1  
    13   12   13 1  
    14   13   14 ar 
    15   13   15 ar 
    16   14   19 ar 
    17   15   16 1  
    18   15   17 ar 
    19   17   18 ar 
    20   18   19 ar 
    21   19   20 1  
    22   20   21 1  
    23   20   22 2  
    24   21   24 2  
    25   22   23 1  
    26   23   24 1  
    27   23   25 1  
    28   25   26 1  
    29   25   30 1  
    30   26   27 1  
    31   27   28 1  
    32   28   29 1  
    33   29   30 1  
    34    3   31 1  
    35    4   32 1  
    36   10   33 1  
    37   11   34 1  
    38   11   35 1  
    39   11   36 1  
    40   14   37 1  
    41   16   38 1  
    42   16   39 1  
    43   18   40 1  
    44   21   41 1  
    45   22   42 1  
    46   25   43 1  
    47   26   44 1  
    48   26   45 1  
    49   27   46 1  
    50   27   47 1  
    51   28   48 1  
    52   28   49 1  
    53   29   50 1  
    54   29   51 1  
    55   30   52 1  
    56   30   53 1  
@<TRIPOS>SUBSTRUCTURE
     1 VGH         1

