### 
### Created by X-TOOL on Mon Sep 10 21:13:13 2018
### 

@<TRIPOS>MOLECULE
3zbx_ligand
   40    44     1     0     0
SMALL
GAST_HUCK


@<TRIPOS>ATOM
      1 C1         22.3960    8.7570   41.5800 C.ar      1 6XE        -0.0003
      2 C2         23.4670    8.6310   40.6000 C.ar      1 6XE         0.0426
      3 N3         24.7620    8.7350   41.0090 N.ar      1 6XE        -0.2982
      4 C4         25.0910    8.9520   42.2930 C.ar      1 6XE         0.0084
      5 C5         24.0980    9.0890   43.2990 C.ar      1 6XE        -0.0341
      6 C6         22.7490    8.9930   42.9500 C.ar      1 6XE        -0.0380
      7 C7         20.7460    8.4140   39.8010 C.ar      1 6XE        -0.0196
      8 C8         21.7970    8.2940   38.8490 C.ar      1 6XE        -0.0489
      9 C9         23.1300    8.3990   39.2300 C.ar      1 6XE        -0.0415
     10 C10        21.0320    8.6430   41.1520 C.ar      1 6XE        -0.0443
     11 C11        18.2440   12.2020   41.4050 C.2       1 6XE         0.1318
     12 C12        17.6970   13.1550   40.4820 C.2       1 6XE         0.0642
     13 N13        17.5550   12.8500   39.1940 N.2       1 6XE        -0.2261
     14 N14        18.6020   11.0130   40.9460 N.2       1 6XE        -0.1090
     15 C15        18.8030   13.0230   45.6090 C.ar      1 6XE         0.1352
     16 C16        18.2330   14.0150   44.7770 C.ar      1 6XE        -0.0251
     17 C17        18.0440   13.7640   43.4070 C.ar      1 6XE        -0.0508
     18 C18        18.4250   12.5030   42.8550 C.ar      1 6XE         0.0101
     19 C19        18.9940   11.5080   43.7050 C.ar      1 6XE        -0.0508
     20 C20        19.1810   11.7720   45.0730 C.ar      1 6XE        -0.0251
     21 F21        18.9870   13.2710   46.9190 F         1 6XE        -0.1811
     22 N22        18.4470   10.6970   39.5860 N.pl3     1 6XE        -0.0747
     23 C23        17.9180   11.6350   38.7130 C.2       1 6XE         0.2504
     24 N24        17.8920   11.0670   37.5220 N.2       1 6XE        -0.2649
     25 N25        18.3600    9.8670   37.6080 N.2       1 6XE        -0.2656
     26 C26        18.7120    9.5930   38.8410 C.2       1 6XE         0.1859
     27 C27        19.2990    8.2820   39.3440 C.3       1 6XE         0.0654
     28 H1         26.1372    9.0241   42.5674 H         1 6XE         0.0846
     29 H2         24.3846    9.2666   44.3292 H         1 6XE         0.0687
     30 H3         21.9783    9.0956   43.7053 H         1 6XE         0.0752
     31 H4         21.5538    8.1175   37.8075 H         1 6XE         0.0625
     32 H5         23.9144    8.3049   38.4878 H         1 6XE         0.0640
     33 H6         20.2262    8.7337   41.8714 H         1 6XE         0.0567
     34 H7         17.3948   14.1384   40.8391 H         1 6XE         0.1116
     35 H8         17.9413   14.9708   45.1970 H         1 6XE         0.0611
     36 H9         17.6097   14.5263   42.7703 H         1 6XE         0.0632
     37 H10        19.2825   10.5469   43.2951 H         1 6XE         0.0632
     38 H11        19.6153   11.0155   45.7166 H         1 6XE         0.0611
     39 H12        18.6941    7.9300   40.1926 H         1 6XE         0.0659
     40 H13        19.2544    7.5431   38.5304 H         1 6XE         0.0659
@<TRIPOS>BOND
     1    1    2 ar 
     2    1    6 ar 
     3   10    1 ar 
     4    2    3 ar 
     5    9    2 ar 
     6    3    4 ar 
     7    5    4 ar 
     8    6    5 ar 
     9    7    8 ar 
    10    7   10 ar 
    11   27    7 1  
    12    8    9 ar 
    13   11   12 1  
    14   14   11 2  
    15   11   18 1  
    16   13   12 2  
    17   23   13 1  
    18   22   14 1  
    19   16   15 ar 
    20   20   15 ar 
    21   15   21 1  
    22   17   16 ar 
    23   18   17 ar 
    24   18   19 ar 
    25   19   20 ar 
    26   22   23 1  
    27   26   22 1  
    28   24   23 2  
    29   25   24 1  
    30   26   25 2  
    31   26   27 1  
    32    4   28 1  
    33    5   29 1  
    34    6   30 1  
    35    8   31 1  
    36    9   32 1  
    37   10   33 1  
    38   12   34 1  
    39   16   35 1  
    40   17   36 1  
    41   19   37 1  
    42   20   38 1  
    43   27   39 1  
    44   27   40 1  
@<TRIPOS>SUBSTRUCTURE
     1 6XE         1

