### 
### Created by X-TOOL on Mon Sep 10 21:13:15 2018
### 

@<TRIPOS>MOLECULE
3zc5_ligand
   44    48     1     0     0
SMALL
GAST_HUCK


@<TRIPOS>ATOM
      1 C1         23.5420   85.9150    5.1940 C.ar      1 W9Z         0.0426
      2 N1         24.8680   85.8070    4.8700 N.ar      1 W9Z        -0.2982
      3 C2         23.1980   86.0620    6.5600 C.ar      1 W9Z        -0.0415
      4 N2         18.5720   83.8540    6.4710 N.pl3     1 W9Z        -0.1052
      5 C3         21.8390   86.1920    6.9630 C.ar      1 W9Z        -0.0487
      6 N3         18.5880   83.5670    5.1940 N.2       1 W9Z        -0.1499
      7 C4         20.7440   86.1820    6.0140 C.ar      1 W9Z        -0.0170
      8 N4         18.3780   82.2900    1.1570 N.2       1 W9Z        -0.2122
      9 C5         19.2610   86.3650    6.5320 C.3       1 W9Z         0.0728
     10 N5         18.0270   81.0630    1.3950 N.pl3     1 W9Z        -0.2036
     11 C6         18.8360   85.0240    7.1440 C.2       1 W9Z         0.1823
     12 N6         18.3070   83.5700    8.6150 N.2       1 W9Z        -0.2790
     13 C7         18.2560   82.2920    4.8290 C.2       1 W9Z         0.0765
     14 C8         18.2280   81.9830    3.3710 C.2       1 W9Z         0.0255
     15 C9         18.5210   82.9110    2.2770 C.2       1 W9Z         0.0096
     16 C10        17.9110   80.7820    2.7540 C.2       1 W9Z         0.0690
     17 N10        18.6540   84.8030    8.4100 N.2       1 W9Z        -0.2668
     18 C11        17.7770   80.0700    0.3510 C.3       1 W9Z         0.0621
     19 C12        17.9190   81.2890    5.8060 C.2       1 W9Z        -0.0226
     20 C13        17.9130   81.6290    7.1920 C.2       1 W9Z         0.0052
     21 C14        18.2470   82.9660    7.4830 C.2       1 W9Z         0.1761
     22 C15        19.3520   87.4690    7.6100 C.3       1 W9Z        -0.0368
     23 C16        21.0780   86.0240    4.6220 C.ar      1 W9Z        -0.0441
     24 C17        22.4700   85.8890    4.2070 C.ar      1 W9Z        -0.0003
     25 C18        22.8500   85.7360    2.8360 C.ar      1 W9Z        -0.0380
     26 C19        24.2380   85.6210    2.4990 C.ar      1 W9Z        -0.0341
     27 C20        25.2060   85.6650    3.5510 C.ar      1 W9Z         0.0084
     28 H1         23.9810   86.0757    7.3095 H         1 W9Z         0.0640
     29 H2         21.6151   86.3025    8.0179 H         1 W9Z         0.0625
     30 H3         18.5753   86.6576    5.7232 H         1 W9Z         0.0689
     31 H4         18.8119   83.9542    2.3911 H         1 W9Z         0.0683
     32 H5         17.6355   79.8387    3.2232 H         1 W9Z         0.1068
     33 H6         17.4956   79.1131    0.8149 H         1 W9Z         0.0609
     34 H7         18.6881   79.9322   -0.2498 H         1 W9Z         0.0609
     35 H8         16.9592   80.4176   -0.2974 H         1 W9Z         0.0609
     36 H9         17.6703   80.2773    5.4891 H         1 W9Z         0.0704
     37 H10        17.6677   80.9065    7.9690 H         1 W9Z         0.0749
     38 H11        19.6581   88.4155    7.1405 H         1 W9Z         0.0281
     39 H12        20.0934   87.1798    8.3694 H         1 W9Z         0.0281
     40 H13        18.3693   87.5974    8.0872 H         1 W9Z         0.0281
     41 H14        20.2900   86.0053    3.8779 H         1 W9Z         0.0567
     42 H15        22.0945   85.7073    2.0591 H         1 W9Z         0.0752
     43 H16        24.5482   85.5030    1.4671 H         1 W9Z         0.0687
     44 H17        26.2554   85.5821    3.2920 H         1 W9Z         0.0846
@<TRIPOS>BOND
     1    1    2 ar 
     2    3    1 ar 
     3    1   24 ar 
     4    2   27 ar 
     5    5    3 ar 
     6    6    4 1  
     7    4   11 1  
     8    4   21 1  
     9    7    5 ar 
    10   13    6 2  
    11    9    7 1  
    12    7   23 ar 
    13    8   10 1  
    14   15    8 2  
    15   11    9 1  
    16    9   22 1  
    17   10   16 1  
    18   10   18 1  
    19   11   17 2  
    20   12   17 1  
    21   21   12 2  
    22   14   13 1  
    23   13   19 1  
    24   14   15 1  
    25   14   16 2  
    26   19   20 2  
    27   20   21 1  
    28   23   24 ar 
    29   24   25 ar 
    30   25   26 ar 
    31   26   27 ar 
    32    3   28 1  
    33    5   29 1  
    34    9   30 1  
    35   15   31 1  
    36   16   32 1  
    37   18   33 1  
    38   18   34 1  
    39   18   35 1  
    40   19   36 1  
    41   20   37 1  
    42   22   38 1  
    43   22   39 1  
    44   22   40 1  
    45   23   41 1  
    46   25   42 1  
    47   26   43 1  
    48   27   44 1  
@<TRIPOS>SUBSTRUCTURE
     1 W9Z         1

