### 
### Created by X-TOOL on Mon Sep 10 21:13:14 2018
### 

@<TRIPOS>MOLECULE
3zc6_ligand
   52    56     1     0     0
SMALL
GAST_HUCK


@<TRIPOS>ATOM
      1 F32        10.1120   -2.8960   38.7100 F         1 VFC        -0.1867
      2 C29         9.9400   -3.1260   39.9990 C.ar      1 VFC         0.1248
      3 C28        10.3960   -2.1720   40.9120 C.ar      1 VFC        -0.0372
      4 C26        10.2370   -2.3750   42.2770 C.ar      1 VFC        -0.0632
      5 C24         9.6220   -3.5440   42.7090 C.ar      1 VFC         0.0175
      6 C27         9.3270   -4.2970   40.4360 C.ar      1 VFC        -0.0012
      7 C25         9.1830   -4.4740   41.8060 C.ar      1 VFC         0.0920
      8 N30         8.6340   -5.4760   42.5040 N.pl3     1 VFC        -0.1998
      9 C33         8.0310   -6.6930   41.9270 C.3       1 VFC         0.0570
     10 N31         8.7170   -5.2270   43.7440 N.2       1 VFC        -0.1898
     11 C23         9.3180   -4.0410   43.9530 C.2       1 VFC         0.0820
     12 C5          9.5740   -3.4610   45.2900 C.ar      1 VFC         0.0703
     13 N3         10.3890   -2.3340   45.4780 N.ar      1 VFC        -0.2911
     14 C6          8.9730   -4.0490   46.4100 C.ar      1 VFC         0.0320
     15 N4          9.1520   -3.5380   47.7060 N.ar      1 VFC        -0.2597
     16 C2          9.9680   -2.4380   47.8500 C.ar      1 VFC         0.1690
     17 N7         10.3160   -1.7760   48.9600 N.pl3     1 VFC        -0.2469
     18 C8         11.1220   -0.7580   48.6140 C.2       1 VFC         0.0621
     19 C9         11.3140   -0.7920   47.2460 C.2       1 VFC         0.0753
     20 C1         10.5580   -1.8490   46.7730 C.ar      1 VFC         0.0842
     21 C10        12.0850    0.1870   46.4600 C.2       1 VFC         0.1848
     22 O11        12.6500    1.1250   46.9850 O.2       1 VFC        -0.4018
     23 N12        12.0670    0.0810   45.0960 N.am      1 VFC        -0.2705
     24 C13        12.7210    1.0080   44.1700 C.3       1 VFC         0.1270
     25 C22        11.6540    1.6410   43.2920 C.3       1 VFC        -0.0245
     26 C14        13.6300    0.3140   43.2160 C.2       1 VFC         0.2038
     27 O21        13.2830   -0.7500   42.7130 O.2       1 VFC        -0.3944
     28 N15        14.8190    0.9600   42.9240 N.am      1 VFC        -0.2666
     29 C17        15.4280    2.2050   43.3920 C.3       1 VFC         0.0624
     30 C18        16.6570    1.9080   42.5700 C.3       1 VFC         0.1239
     31 C16        15.9570    0.6650   42.0640 C.3       1 VFC         0.0624
     32 C19        17.8460    1.6380   43.3670 C.1       1 VFC         0.0972
     33 N20        18.7730    1.4050   44.0330 N.1       1 VFC        -0.3031
     34 H1         10.8763   -1.2688   40.5535 H         1 VFC         0.0532
     35 H2         10.5854   -1.6369   42.9904 H         1 VFC         0.0587
     36 H3          8.9750   -5.0432   39.7329 H         1 VFC         0.0540
     37 H4          7.6612   -7.3385   42.7373 H         1 VFC         0.0583
     38 H5          8.7884   -7.2358   41.3426 H         1 VFC         0.0583
     39 H6          7.1939   -6.4119   41.2711 H         1 VFC         0.0583
     40 H7          8.3504   -4.9256   46.2724 H         1 VFC         0.0837
     41 H8         10.0165   -2.0078   49.9179 H         1 VFC         0.2388
     42 H9         11.5522   -0.0278   49.2978 H         1 VFC         0.1145
     43 H10        11.5681   -0.6901   44.7003 H         1 VFC         0.1865
     44 H11        13.2729    1.7708   44.7387 H         1 VFC         0.0795
     45 H12        12.1267    2.3419   42.5883 H         1 VFC         0.0277
     46 H13        10.9347    2.1839   43.9228 H         1 VFC         0.0277
     47 H14        11.1284    0.8553   42.7295 H         1 VFC         0.0277
     48 H15        15.6093    2.2370   44.4765 H         1 VFC         0.0547
     49 H16        14.8892    3.1130   43.0833 H         1 VFC         0.0547
     50 H17        16.8874    2.6550   41.7961 H         1 VFC         0.0633
     51 H18        15.7254    0.6857   40.9889 H         1 VFC         0.0547
     52 H19        16.4747   -0.2740   42.3096 H         1 VFC         0.0547
@<TRIPOS>BOND
     1    1    2 1  
     2    2    3 ar 
     3    2    6 ar 
     4    3    4 ar 
     5    4    5 ar 
     6    5    7 ar 
     7    5   11 1  
     8    6    7 ar 
     9    7    8 1  
    10    8    9 1  
    11    8   10 1  
    12   10   11 2  
    13   11   12 1  
    14   12   13 ar 
    15   12   14 ar 
    16   13   20 ar 
    17   14   15 ar 
    18   15   16 ar 
    19   16   17 1  
    20   16   20 ar 
    21   17   18 1  
    22   18   19 2  
    23   19   20 1  
    24   19   21 1  
    25   21   22 2  
    26   21   23 am 
    27   23   24 1  
    28   24   25 1  
    29   24   26 1  
    30   26   27 2  
    31   26   28 am 
    32   28   29 1  
    33   28   31 1  
    34   29   30 1  
    35   30   31 1  
    36   30   32 1  
    37   32   33 3  
    38    3   34 1  
    39    4   35 1  
    40    6   36 1  
    41    9   37 1  
    42    9   38 1  
    43    9   39 1  
    44   14   40 1  
    45   17   41 1  
    46   18   42 1  
    47   23   43 1  
    48   24   44 1  
    49   25   45 1  
    50   25   46 1  
    51   25   47 1  
    52   29   48 1  
    53   29   49 1  
    54   30   50 1  
    55   31   51 1  
    56   31   52 1  
@<TRIPOS>SUBSTRUCTURE
     1 VFC         1

