### 
### Created by X-TOOL on Mon Sep 10 21:13:14 2018
### 

@<TRIPOS>MOLECULE
3zcl_ligand
   43    46     1     0     0
SMALL
GAST_HUCK


@<TRIPOS>ATOM
      1 C1         20.2660   82.0660    1.6170 C.3       1 5TF        -0.0428
      2 C2         19.6400   82.9450    2.6970 C.3       1 5TF         0.0322
      3 C3         18.7390   83.9990    2.0730 C.3       1 5TF        -0.0428
      4 N4         18.8560   82.1120    3.6070 N.pl3     1 5TF        -0.3016
      5 C5         18.6130   82.4170    4.9340 C.2       1 5TF         0.1471
      6 C6         17.9750   81.3380    5.7900 C.2       1 5TF         0.0008
      7 C7         17.7230   81.6030    7.0940 C.2       1 5TF         0.0059
      8 C8         18.0590   82.8750    7.6300 C.2       1 5TF         0.1715
      9 N9         17.9400   83.4130    8.8210 N.2       1 5TF        -0.2817
     10 N10        18.4450   84.6960    8.7510 N.2       1 5TF        -0.2705
     11 C11        18.8620   84.9140    7.5150 C.2       1 5TF         0.1712
     12 C12        19.4830   86.1620    6.9600 C.3       1 5TF         0.0550
     13 C13        18.8940   87.4150    7.6140 C.3       1 5TF        -0.0425
     14 C14        20.9930   86.1060    7.1160 C.2       1 5TF        -0.0182
     15 C15        21.7460   86.2200    8.2870 C.2       1 5TF         0.0254
     16 N16        23.0780   86.1120    7.9810 N.pl3     1 5TF        -0.2738
     17 C17        23.2170   85.9280    6.6370 C.ar      1 5TF         0.1323
     18 N18        24.4070   85.7810    5.9820 N.ar      1 5TF        -0.2873
     19 C19        24.2870   85.6090    4.6190 C.ar      1 5TF        -0.0063
     20 C20        23.0700   85.5790    3.9080 C.ar      1 5TF        -0.0511
     21 C21        21.8650   85.7380    4.6430 C.ar      1 5TF        -0.0552
     22 C22        21.9330   85.9190    6.0610 C.ar      1 5TF         0.0080
     23 N23        18.6360   83.7850    6.7640 N.pl3     1 5TF        -0.1161
     24 N24        18.9260   83.6050    5.4400 N.2       1 5TF        -0.1433
     25 H1         20.8563   82.6918    0.9315 H         1 5TF         0.0251
     26 H2         19.4712   81.5547    1.0541 H         1 5TF         0.0251
     27 H3         20.9216   81.3183    2.0872 H         1 5TF         0.0251
     28 H4         20.4406   83.4455    3.2614 H         1 5TF         0.0545
     29 H5         18.2984   84.6209    2.8662 H         1 5TF         0.0251
     30 H6         17.9362   83.5057    1.5054 H         1 5TF         0.0251
     31 H7         19.3305   84.6330    1.3961 H         1 5TF         0.0251
     32 H8         18.4573   81.2383    3.2346 H         1 5TF         0.1794
     33 H9         17.7244   80.3680    5.3631 H         1 5TF         0.0704
     34 H10        17.2653   80.8452    7.7282 H         1 5TF         0.0755
     35 H11        19.2546   86.2068    5.8849 H         1 5TF         0.0608
     36 H12        17.8022   87.4196    7.4803 H         1 5TF         0.0272
     37 H13        19.3247   88.3112    7.1435 H         1 5TF         0.0272
     38 H14        19.1319   87.4144    8.6880 H         1 5TF         0.0272
     39 H15        21.3390   86.3709    9.2858 H         1 5TF         0.0835
     40 H16        23.8516   86.1620    8.6592 H         1 5TF         0.2258
     41 H17        25.2010   85.4872    4.0491 H         1 5TF         0.0747
     42 H18        23.0543   85.4389    2.8332 H         1 5TF         0.0594
     43 H19        20.9067   85.7225    4.1366 H         1 5TF         0.0672
@<TRIPOS>BOND
     1    1    2 1  
     2    2    3 1  
     3    2    4 1  
     4    4    5 1  
     5    5    6 1  
     6    5   24 2  
     7    6    7 2  
     8    7    8 1  
     9    8    9 2  
    10    8   23 1  
    11    9   10 1  
    12   10   11 2  
    13   11   12 1  
    14   11   23 1  
    15   12   13 1  
    16   12   14 1  
    17   14   15 2  
    18   14   22 1  
    19   15   16 1  
    20   16   17 1  
    21   17   18 ar 
    22   17   22 ar 
    23   18   19 ar 
    24   19   20 ar 
    25   20   21 ar 
    26   21   22 ar 
    27   23   24 1  
    28    1   25 1  
    29    1   26 1  
    30    1   27 1  
    31    2   28 1  
    32    3   29 1  
    33    3   30 1  
    34    3   31 1  
    35    4   32 1  
    36    6   33 1  
    37    7   34 1  
    38   12   35 1  
    39   13   36 1  
    40   13   37 1  
    41   13   38 1  
    42   15   39 1  
    43   16   40 1  
    44   19   41 1  
    45   20   42 1  
    46   21   43 1  
@<TRIPOS>SUBSTRUCTURE
     1 5TF         1

