### 
### Created by X-TOOL on Mon Sep 10 21:13:14 2018
### 

@<TRIPOS>MOLECULE
3zcw_ligand
   49    52     1     0     0
SMALL
GAST_HUCK


@<TRIPOS>ATOM
      1 FAA        -2.9620   -5.8180   12.6990 F         1 4A2        -0.2263
      2 CAC        -1.6840   -5.6420   12.5050 C.3       1 4A2         0.3706
      3 FAB        -1.0290   -6.0040   13.5880 F         1 4A2        -0.2263
      4 FAG        -1.3320   -6.4500   11.4950 F         1 4A2        -0.2263
      5 CAD        -1.3780   -4.1690   12.1960 C.ar      1 4A2         0.0515
      6 CAE        -0.3580   -3.5260   12.9450 C.ar      1 4A2        -0.0379
      7 CAF        -0.0470   -2.2110   12.6690 C.ar      1 4A2        -0.0392
      8 CAK        -0.7440   -1.5430   11.6660 C.ar      1 4A2        -0.0405
      9 CAJ        -1.7450   -2.1600   10.9340 C.ar      1 4A2        -0.0267
     10 CAI        -2.0620   -3.4870   11.2000 C.ar      1 4A2         0.0199
     11 CAH        -3.1910   -4.1740   10.3780 C.3       1 4A2         0.1067
     12 NAP        -3.4540   -3.4850    9.0980 N.pl3     1 4A2        -0.1951
     13 CAO        -2.7890   -3.7480    7.9930 C.ar      1 4A2         0.0843
     14 CAN        -1.7260   -4.6350    7.7430 C.ar      1 4A2        -0.0407
     15 CAM        -1.2060   -4.7040    6.4490 C.ar      1 4A2        -0.0645
     16 CAW        -1.7540   -3.8730    5.4540 C.ar      1 4A2        -0.0086
     17 CAV        -1.2090   -3.9140    4.0320 C.2       1 4A2         0.0544
     18 OAL        -1.9160   -3.4550    3.0880 O.co2     1 4A2        -0.5634
     19 OBG        -0.0980   -4.4270    3.8110 O.co2     1 4A2        -0.5634
     20 CAX        -2.7990   -2.9870    5.7330 C.ar      1 4A2        -0.0542
     21 CAY        -3.3340   -2.9330    7.0130 C.ar      1 4A2         0.0173
     22 NAZ        -4.3010   -2.1940    7.5680 N.2       1 4A2        -0.3076
     23 CBA        -4.3750   -2.5490    8.8710 C.2       1 4A2         0.2371
     24 NBB        -5.2440   -2.0790    9.7660 N.pl3     1 4A2        -0.2335
     25 CBC        -6.0270   -0.9950    9.6720 C.ar      1 4A2         0.0558
     26 CBD        -5.6460    0.0950    8.9050 C.ar      1 4A2        -0.0126
     27 CBE        -6.4800    1.2050    8.8360 C.ar      1 4A2         0.1510
     28 FBF        -6.1240    2.2710    8.1170 F         1 4A2        -0.1929
     29 CAS        -7.6710    1.2720    9.5440 C.ar      1 4A2         0.1127
     30 OAT        -8.4470    2.3880    9.4500 O.3       1 4A2        -0.3283
     31 CAU        -9.4170    2.5720   10.5220 C.3       1 4A2         0.0561
     32 CAR        -8.0600    0.1740   10.3020 C.ar      1 4A2        -0.0435
     33 CAQ        -7.2370   -0.9590   10.3760 C.ar      1 4A2        -0.0501
     34 H1          0.1704   -4.0623   13.7249 H         1 4A2         0.0820
     35 H2          0.7315   -1.7032   13.2269 H         1 4A2         0.0648
     36 H3         -0.4961   -0.5097   11.4516 H         1 4A2         0.0834
     37 H4         -2.2754   -1.6140   10.1622 H         1 4A2         0.0637
     38 H5         -4.1142   -4.1729   10.9760 H         1 4A2         0.0843
     39 H6         -2.8926   -5.2113   10.1661 H         1 4A2         0.0843
     40 H7         -1.3198   -5.2510    8.5371 H         1 4A2         0.0540
     41 H8         -0.3955   -5.3848    6.2151 H         1 4A2         0.0545
     42 H9         -3.1902   -2.3444    4.9525 H         1 4A2         0.0556
     43 H10        -5.3239   -2.6170   10.6407 H         1 4A2         0.2183
     44 H11        -4.7066    0.0819    8.3642 H         1 4A2         0.0496
     45 H12        -9.9855    3.4974   10.3472 H         1 4A2         0.0572
     46 H13        -8.8903    2.6417   11.4852 H         1 4A2         0.0572
     47 H14       -10.1074    1.7159   10.5427 H         1 4A2         0.0572
     48 H15        -9.0023    0.1935   10.8375 H         1 4A2         0.0504
     49 H16        -7.5379   -1.8081   10.9790 H         1 4A2         0.0478
@<TRIPOS>BOND
     1    1    2 1  
     2    2    3 1  
     3    2    4 1  
     4    2    5 1  
     5    5    6 ar 
     6    5   10 ar 
     7    6    7 ar 
     8    7    8 ar 
     9    8    9 ar 
    10    9   10 ar 
    11   10   11 1  
    12   11   12 1  
    13   12   13 1  
    14   12   23 1  
    15   13   14 ar 
    16   13   21 ar 
    17   14   15 ar 
    18   15   16 ar 
    19   16   17 1  
    20   16   20 ar 
    21   17   18 ar 
    22   17   19 ar 
    23   20   21 ar 
    24   21   22 1  
    25   22   23 2  
    26   23   24 1  
    27   24   25 1  
    28   25   26 ar 
    29   25   33 ar 
    30   26   27 ar 
    31   27   28 1  
    32   27   29 ar 
    33   29   30 1  
    34   29   32 ar 
    35   30   31 1  
    36   32   33 ar 
    37    6   34 1  
    38    7   35 1  
    39    8   36 1  
    40    9   37 1  
    41   11   38 1  
    42   11   39 1  
    43   14   40 1  
    44   15   41 1  
    45   20   42 1  
    46   24   43 1  
    47   26   44 1  
    48   31   45 1  
    49   31   46 1  
    50   31   47 1  
    51   32   48 1  
    52   33   49 1  
@<TRIPOS>SUBSTRUCTURE
     1 4A2         1

