### 
### Created by X-TOOL on Mon Sep 10 21:13:14 2018
### 

@<TRIPOS>MOLECULE
3zcz_ligand
   39    38     1     0     0
SMALL
GAST_HUCK


@<TRIPOS>ATOM
      1 N          -1.7240   -1.2100   35.1790 N.am      1 TFR        -0.2814
      2 O          -5.6160    1.4030   29.5620 O.co2     1 TFR        -0.5643
      3 C1         -1.7600    0.1010   35.4840 C.2       1 TFR         0.1763
      4 O1         -0.8820    0.6610   36.1290 O.2       1 TFR        -0.3971
      5 CA         -0.7000   -1.9840   35.5770 C.3       1 TFR         0.0735
      6 CB          0.0750   -2.4040   34.3560 C.3       1 TFR        -0.0393
      7 CC         -1.1140   -3.1790   36.4170 C.3       1 TFR         0.1724
      8 CD         -1.5990   -2.7340   37.8090 C.3       1 TFR         0.4175
      9 FE         -1.9180   -3.7570   38.6120 F         1 TFR        -0.1678
     10 FF         -0.6110   -2.0420   38.3460 F         1 TFR        -0.1678
     11 FG         -2.6670   -1.9590   37.6970 F         1 TFR        -0.1678
     12 CA1        -2.9440    0.9100   34.9790 C.3       1 TFR         0.0372
     13 CB1        -2.5170    1.5410   33.6530 C.3       1 TFR        -0.0358
     14 OB1        -2.1460   -3.9020   35.7240 O.3       1 TFR        -0.3809
     15 CD1        -3.4160    2.5150   31.4950 C.3       1 TFR         0.0025
     16 CE1        -4.6300    3.1570   30.8200 C.3       1 TFR         0.0283
     17 CG1        -3.5840    2.4190   33.0110 C.3       1 TFR        -0.0443
     18 OH1        -6.6900    2.1020   31.3430 O.co2     1 TFR        -0.5643
     19 CZ1        -5.7180    2.1520   30.5600 C.2       1 TFR         0.0844
     20 NZ1        -4.2190    3.7150   29.5430 N.4       1 TFR         0.2327
     21 H1         -2.4698   -1.6134   34.6488 H         1 TFR         0.1855
     22 H2         -0.0405   -1.3658   36.2038 H         1 TFR         0.0582
     23 H3          0.9200   -3.0399   34.6588 H         1 TFR         0.0253
     24 H4          0.4552   -1.5112   33.8380 H         1 TFR         0.0253
     25 H5         -0.5840   -2.9677   33.6793 H         1 TFR         0.0253
     26 H6         -0.2439   -3.8393   36.5467 H         1 TFR         0.0707
     27 H7         -3.2035    1.6945   35.7051 H         1 TFR         0.0502
     28 H8         -3.8123    0.2529   34.8230 H         1 TFR         0.0502
     29 H9         -2.2660    0.7326   32.9505 H         1 TFR         0.0290
     30 H10        -1.6251    2.1585   33.8354 H         1 TFR         0.0290
     31 H11        -2.9071   -3.3432   35.6196 H         1 TFR         0.2103
     32 H12        -2.5256    3.1221   31.2748 H         1 TFR         0.0339
     33 H13        -3.2788    1.5020   31.0887 H         1 TFR         0.0339
     34 H14        -5.0210    3.9557   31.4675 H         1 TFR         0.1024
     35 H15        -3.5164    3.4297   33.4397 H         1 TFR         0.0270
     36 H16        -4.5737    1.9926   33.2315 H         1 TFR         0.0270
     37 H17        -5.0132    4.1404   29.0910 H         1 TFR         0.2010
     38 H18        -3.8528    2.9806   28.9576 H         1 TFR         0.2010
     39 H19        -3.5059    4.4112   29.6944 H         1 TFR         0.2010
@<TRIPOS>BOND
     1    3    1 am 
     2    1    5 1  
     3   19    2 ar 
     4    3    4 2  
     5   12    3 1  
     6    5    6 1  
     7    5    7 1  
     8    7    8 1  
     9    7   14 1  
    10    8    9 1  
    11    8   10 1  
    12    8   11 1  
    13   13   12 1  
    14   17   13 1  
    15   16   15 1  
    16   15   17 1  
    17   16   19 1  
    18   16   20 1  
    19   19   18 ar 
    20    1   21 1  
    21    5   22 1  
    22    6   23 1  
    23    6   24 1  
    24    6   25 1  
    25    7   26 1  
    26   12   27 1  
    27   12   28 1  
    28   13   29 1  
    29   13   30 1  
    30   14   31 1  
    31   15   32 1  
    32   15   33 1  
    33   16   34 1  
    34   17   35 1  
    35   17   36 1  
    36   20   37 1  
    37   20   38 1  
    38   20   39 1  
@<TRIPOS>SUBSTRUCTURE
     1 TFR         1

