### 
### Created by X-TOOL on Mon Sep 10 21:13:13 2018
### 

@<TRIPOS>MOLECULE
3zdg_ligand
   34    33     1     0     0
SMALL
GAST_HUCK


@<TRIPOS>ATOM
      1 N1       -100.2410   36.4870   27.2470 N.4       1 XRX         0.2329
      2 C2        -99.8940   38.8430   25.0890 C.3       1 XRX         0.0824
      3 O3       -101.2800   38.6950   25.4140 O.3       1 XRX        -0.2636
      4 C4       -100.8450   37.1220   28.4590 C.3       1 XRX        -0.0431
      5 N5       -103.4830   39.1630   25.1790 N.am      1 XRX        -0.2550
      6 O6       -102.0040   39.6250   23.4560 O.2       1 XRX        -0.3774
      7 C7        -98.9660   37.1360   26.8560 C.3       1 XRX        -0.0218
      8 C8        -99.1060   38.6130   26.4020 C.3       1 XRX         0.0178
      9 C9       -102.2250   39.2110   24.5860 C.2       1 XRX         0.3216
     10 C10       -99.9910   35.0350   27.4960 C.3       1 XRX        -0.0431
     11 C11       -98.0810   37.0580   28.1000 C.3       1 XRX        -0.0215
     12 C12      -104.6510   39.4980   24.3360 C.3       1 XRX         0.0242
     13 C13      -103.7190   38.4620   26.4480 C.3       1 XRX         0.0242
     14 H1       -100.8935   36.5790   26.4842 H         1 XRX         0.2030
     15 H2        -99.7005   39.8544   24.7022 H         1 XRX         0.0613
     16 H3        -99.5994   38.0992   24.3341 H         1 XRX         0.0613
     17 H4       -101.7854   36.6100   28.7111 H         1 XRX         0.0777
     18 H5       -101.0490   38.1833   28.2538 H         1 XRX         0.0777
     19 H6       -100.1450   37.0397   29.3035 H         1 XRX         0.0777
     20 H7        -98.5104   36.5661   26.0328 H         1 XRX         0.0849
     21 H8        -99.6178   39.1654   27.2039 H         1 XRX         0.0345
     22 H9        -98.0938   39.0209   26.2640 H         1 XRX         0.0345
     23 H10      -100.9322   34.5455   27.7868 H         1 XRX         0.0777
     24 H11       -99.2544   34.9232   28.3052 H         1 XRX         0.0777
     25 H12       -99.6025   34.5673   26.5793 H         1 XRX         0.0777
     26 H13       -97.1074   37.5237   27.8871 H         1 XRX         0.0284
     27 H14       -97.9305   36.0043   28.3775 H         1 XRX         0.0284
     28 H15       -98.5681   37.5900   28.9305 H         1 XRX         0.0284
     29 H16      -105.5703   39.4179   24.9347 H         1 XRX         0.0485
     30 H17      -104.7037   38.7993   23.4880 H         1 XRX         0.0485
     31 H18      -104.5479   40.5260   23.9583 H         1 XRX         0.0485
     32 H19      -102.7582   38.2865   26.9541 H         1 XRX         0.0485
     33 H20      -104.2098   37.4980   26.2486 H         1 XRX         0.0485
     34 H21      -104.3656   39.0765   27.0917 H         1 XRX         0.0485
@<TRIPOS>BOND
     1    1    4 1  
     2    7    1 1  
     3    1   10 1  
     4    2    3 1  
     5    8    2 1  
     6    3    9 1  
     7    9    5 am 
     8    5   12 1  
     9    5   13 1  
    10    9    6 2  
    11    7    8 1  
    12    7   11 1  
    13    1   14 1  
    14    2   15 1  
    15    2   16 1  
    16    4   17 1  
    17    4   18 1  
    18    4   19 1  
    19    7   20 1  
    20    8   21 1  
    21    8   22 1  
    22   10   23 1  
    23   10   24 1  
    24   10   25 1  
    25   11   26 1  
    26   11   27 1  
    27   11   28 1  
    28   12   29 1  
    29   12   30 1  
    30   12   31 1  
    31   13   32 1  
    32   13   33 1  
    33   13   34 1  
@<TRIPOS>SUBSTRUCTURE
     1 XRX         1

