### 
### Created by X-TOOL on Mon Sep 10 21:13:14 2018
### 

@<TRIPOS>MOLECULE
3zdh_ligand
   34    34     1     0     0
SMALL
GAST_HUCK


@<TRIPOS>ATOM
      1 C10        54.5300   -4.0710  -53.4570 C.2       1 XRS         0.2636
      2 N13        53.3550   -4.6400  -53.2060 N.2       1 XRS        -0.3198
      3 C9         53.0420   -4.2550  -51.9180 C.2       1 XRS        -0.0423
      4 C8         54.0570   -3.4620  -51.4380 C.2       1 XRS         0.0248
      5 N12        54.9980   -3.3530  -52.4440 N.pl3     1 XRS        -0.2291
      6 O14        55.2700   -4.1340  -54.5800 O.3       1 XRS        -0.2719
      7 C6         54.6820   -4.8500  -55.6570 C.3       1 XRS         0.0835
      8 C5         55.3980   -4.5080  -56.9800 C.3       1 XRS         0.0186
      9 C4         56.8640   -4.9910  -57.1220 C.3       1 XRS        -0.0217
     10 N11        57.7320   -4.5380  -55.9850 N.4       1 XRS         0.2329
     11 C3         57.4160   -4.5710  -58.5030 C.3       1 XRS        -0.0215
     12 C2         57.8920   -3.0650  -55.8480 C.3       1 XRS        -0.0431
     13 C1         59.0300   -5.2540  -55.8990 C.3       1 XRS        -0.0431
     14 C7         56.2460   -2.6180  -52.3960 C.3       1 XRS         0.0476
     15 H1         52.1412   -4.5331  -51.3730 H         1 XRS         0.0388
     16 H2         54.1096   -3.0055  -50.4507 H         1 XRS         0.0758
     17 H3         53.6197   -4.5764  -55.7379 H         1 XRS         0.0624
     18 H4         54.7690   -5.9297  -55.4657 H         1 XRS         0.0624
     19 H5         55.3957   -3.4132  -57.0872 H         1 XRS         0.0346
     20 H6         54.8179   -4.9578  -57.7992 H         1 XRS         0.0346
     21 H7         56.8525   -6.0906  -57.0940 H         1 XRS         0.0849
     22 H8         57.2261   -4.8168  -55.1590 H         1 XRS         0.2030
     23 H9         56.7397   -4.9300  -59.2928 H         1 XRS         0.0284
     24 H10        58.4143   -5.0097  -58.6478 H         1 XRS         0.0284
     25 H11        57.4869   -3.4744  -58.5515 H         1 XRS         0.0284
     26 H12        58.5430   -2.8452  -54.9890 H         1 XRS         0.0777
     27 H13        56.9068   -2.6023  -55.6892 H         1 XRS         0.0777
     28 H14        58.3446   -2.6585  -56.7645 H         1 XRS         0.0777
     29 H15        58.8599   -6.3355  -56.0054 H         1 XRS         0.0777
     30 H16        59.4971   -5.0505  -54.9241 H         1 XRS         0.0777
     31 H17        59.6945   -4.9065  -56.7037 H         1 XRS         0.0777
     32 H18        56.7725   -2.7265  -53.3557 H         1 XRS         0.0577
     33 H19        56.8748   -3.0156  -51.5858 H         1 XRS         0.0577
     34 H20        56.0380   -1.5540  -52.2102 H         1 XRS         0.0577
@<TRIPOS>BOND
     1    1    2 2  
     2    1    5 1  
     3    1    6 1  
     4    2    3 1  
     5    3    4 2  
     6    4    5 1  
     7    5   14 1  
     8    6    7 1  
     9    7    8 1  
    10    8    9 1  
    11    9   10 1  
    12    9   11 1  
    13   10   12 1  
    14   10   13 1  
    15    3   15 1  
    16    4   16 1  
    17    7   17 1  
    18    7   18 1  
    19    8   19 1  
    20    8   20 1  
    21    9   21 1  
    22   10   22 1  
    23   11   23 1  
    24   11   24 1  
    25   11   25 1  
    26   12   26 1  
    27   12   27 1  
    28   12   28 1  
    29   13   29 1  
    30   13   30 1  
    31   13   31 1  
    32   14   32 1  
    33   14   33 1  
    34   14   34 1  
@<TRIPOS>SUBSTRUCTURE
     1 XRS         1

