### 
### Created by X-TOOL on Mon Sep 10 21:13:12 2018
### 

@<TRIPOS>MOLECULE
3zdv_ligand
   50    51     1     0     0
SMALL
GAST_HUCK


@<TRIPOS>ATOM
      1 C1         -5.4500   18.4130   23.8760 C.3       1 MMA         0.1876
      2 C2         -4.6730   17.8180   22.7410 C.3       1 MMA         0.1341
      3 C3         -5.5570   17.5100   21.5500 C.3       1 MMA         0.1140
      4 C4         -6.7470   16.7060   21.9710 C.3       1 MMA         0.1113
      5 C5         -7.5090   17.5130   23.0480 C.3       1 MMA         0.1067
      6 C6         -8.7570   16.8290   23.5720 C.3       1 MMA         0.0552
      7 C7         -6.4580   20.4930   24.4840 C.3       1 MMA         0.0395
      8 O1         -5.7840   19.7210   23.4610 O.3       1 MMA        -0.3520
      9 O2         -4.0810   16.5800   23.1670 O.3       1 MMA        -0.3841
     10 O3         -4.7870   16.8080   20.5600 O.3       1 MMA        -0.3864
     11 O4         -7.5560   16.3780   20.8400 O.3       1 MMA        -0.3865
     12 O5         -6.6140   17.6430   24.1670 O.3       1 MMA        -0.3412
     13 N          -9.8900   17.0470   22.6850 N.am      1 F1A        -0.2473
     14 S         -11.0320   18.1240   23.1550 S.o2      1 F1A         0.0602
     15 O1        -12.1470   17.9850   22.2550 O.2       1 F1A        -0.1533
     16 O2        -10.3600   19.3800   23.2440 O.2       1 F1A        -0.1533
     17 C1        -11.4890   17.6320   24.7080 C.ar      1 F1A         0.1028
     18 C2        -11.1450   18.3610   25.9460 C.ar      1 F1A        -0.0331
     19 C3        -11.4790   17.8300   27.1830 C.ar      1 F1A        -0.0647
     20 C4        -12.1840   16.6580   27.3020 C.ar      1 F1A        -0.0594
     21 C5        -12.5320   15.9020   26.1960 C.ar      1 F1A        -0.0647
     22 C6        -12.2110   16.3680   24.9190 C.ar      1 F1A        -0.0331
     23 C7        -10.3880   19.6610   25.9560 C.3       1 F1A        -0.0324
     24 C9        -12.5850   15.5280   23.7340 C.3       1 F1A        -0.0324
     25 C8        -12.5620   16.1720   28.6720 C.3       1 F1A        -0.0343
     26 H1         -4.8214   18.4564   24.7776 H         1 MMA         0.0937
     27 H2         -3.8859   18.5240   22.4378 H         1 MMA         0.0671
     28 H3         -5.9115   18.4568   21.1166 H         1 MMA         0.0648
     29 H4         -6.4001   15.7649   22.4227 H         1 MMA         0.0646
     30 H5         -7.7774   18.4997   22.6425 H         1 MMA         0.0640
     31 H6         -8.9970   17.2337   24.5663 H         1 MMA         0.0502
     32 H7         -8.5670   15.7485   23.6519 H         1 MMA         0.0502
     33 H8         -6.6875   21.4960   24.0949 H         1 MMA         0.0525
     34 H9         -5.8060   20.5820   25.3654 H         1 MMA         0.0525
     35 H10        -7.3926   19.9876   24.7687 H         1 MMA         0.0525
     36 H11        -3.5185   16.7403   23.9157 H         1 MMA         0.2101
     37 H12        -4.0388   17.3367   20.3089 H         1 MMA         0.2100
     38 H13        -8.2964   15.8542   21.1229 H         1 MMA         0.2100
     39 H14        -9.9690   16.5558   21.8175 H         1 MMA         0.1670
     40 H15       -11.1748   18.3552   28.0812 H         1 MMA         0.0439
     41 H16       -13.0488   14.9572   26.3197 H         1 MMA         0.0439
     42 H17       -10.1846   19.9748   24.9215 H         1 MMA         0.0389
     43 H18        -9.4370   19.5274   26.4923 H         1 MMA         0.0389
     44 H19       -10.9889   20.4314   26.4613 H         1 MMA         0.0389
     45 H20       -12.2642   16.0329   22.8108 H         1 MMA         0.0389
     46 H21       -13.6757   15.3864   23.7145 H         1 MMA         0.0389
     47 H22       -12.0893   14.5488   23.8076 H         1 MMA         0.0389
     48 H23       -12.2091   16.8907   29.4263 H         1 MMA         0.0389
     49 H24       -12.0977   15.1916   28.8543 H         1 MMA         0.0389
     50 H25       -13.6559   16.0779   28.7388 H         1 MMA         0.0389
@<TRIPOS>BOND
     1    1    2 1  
     2    1    8 1  
     3    1   12 1  
     4    2    3 1  
     5    2    9 1  
     6    3    4 1  
     7    3   10 1  
     8    4    5 1  
     9    4   11 1  
    10    5    6 1  
    11    5   12 1  
    12    6   13 1  
    13    8    7 1  
    14   13   14 am 
    15   14   15 2  
    16   14   16 2  
    17   14   17 1  
    18   17   18 ar 
    19   17   22 ar 
    20   18   19 ar 
    21   18   23 1  
    22   19   20 ar 
    23   20   21 ar 
    24   20   25 1  
    25   21   22 ar 
    26   22   24 1  
    27    1   26 1  
    28    2   27 1  
    29    3   28 1  
    30    4   29 1  
    31    5   30 1  
    32    6   31 1  
    33    6   32 1  
    34    7   33 1  
    35    7   34 1  
    36    7   35 1  
    37    9   36 1  
    38   10   37 1  
    39   11   38 1  
    40   13   39 1  
    41   19   40 1  
    42   21   41 1  
    43   23   42 1  
    44   23   43 1  
    45   23   44 1  
    46   24   45 1  
    47   24   46 1  
    48   24   47 1  
    49   25   48 1  
    50   25   49 1  
    51   25   50 1  
@<TRIPOS>SUBSTRUCTURE
     1 MMA         1

