### 
### Created by X-TOOL on Mon Sep 10 21:13:15 2018
### 

@<TRIPOS>MOLECULE
3zeb_ligand
   38    39     1     0     0
SMALL
GAST_HUCK


@<TRIPOS>ATOM
      1 O1          8.7320   -4.6760   48.4330 O.2       1 SV1        -0.3675
      2 C8          8.9570   -4.8690   49.6050 C.2       1 SV1         0.2447
      3 C7         10.1310   -5.6430   50.1450 C.3       1 SV1         0.0798
      4 C6         11.3880   -4.8110   50.1040 C.ar      1 SV1        -0.0162
      5 C5         11.2640   -3.4190   50.1750 C.ar      1 SV1        -0.0625
      6 C4         12.3320   -2.5730   49.9500 C.ar      1 SV1        -0.0455
      7 C3         13.5960   -3.0930   49.6770 C.ar      1 SV1         0.0347
      8 N          14.6710   -2.2640   49.4630 N.pl3     1 SV1        -0.3396
      9 C2         13.7430   -4.4790   49.6490 C.ar      1 SV1        -0.0321
     10 C1         12.6720   -5.3530   49.8670 C.ar      1 SV1         0.0228
     11 C          12.9690   -6.8320   49.7720 C.2       1 SV1         0.1194
     12 O          12.1540   -7.7050   49.9850 O.2       1 SV1        -0.3663
     13 O2          8.2010   -4.3790   50.6020 O.3       1 SV1        -0.2733
     14 C9          7.1130   -3.4720   50.2650 C.3       1 SV1         0.0863
     15 C10         7.6140   -2.0460   50.3380 C.3       1 SV1         0.0089
     16 C11         6.5510   -1.0090   50.0530 C.ar      1 SV1        -0.0405
     17 C16         6.1220   -0.7670   48.7550 C.ar      1 SV1        -0.0603
     18 C15         5.1500    0.1870   48.4940 C.ar      1 SV1        -0.0686
     19 C14         4.5980    0.9150   49.5250 C.ar      1 SV1        -0.0687
     20 C13         5.0130    0.6870   50.8170 C.ar      1 SV1        -0.0686
     21 C12         5.9830   -0.2690   51.0810 C.ar      1 SV1        -0.0603
     22 H1         10.2774   -6.5471   49.5358 H         1 SV1         0.0666
     23 H2          9.9240   -5.9318   51.1860 H         1 SV1         0.0666
     24 H3         10.2975   -2.9905   50.4146 H         1 SV1         0.0543
     25 H4         12.1866   -1.4994   49.9859 H         1 SV1         0.0541
     26 H5         15.5984   -2.6647   49.2624 H         1 SV1         0.1699
     27 H6         14.5493   -1.2420   49.5032 H         1 SV1         0.1699
     28 H7         14.7240   -4.8955   49.4509 H         1 SV1         0.0550
     29 H8         13.9783   -7.1329   49.4949 H         1 SV1         0.1321
     30 H9          6.2861   -3.6084   50.9775 H         1 SV1         0.0636
     31 H10         6.7581   -3.6856   49.2460 H         1 SV1         0.0636
     32 H11         8.4226   -1.9246   49.6022 H         1 SV1         0.0452
     33 H12         8.0088   -1.8687   51.3493 H         1 SV1         0.0452
     34 H13         6.5522   -1.3309   47.9352 H         1 SV1         0.0557
     35 H14         4.8234    0.3605   47.4750 H         1 SV1         0.0599
     36 H15         3.8410    1.6632   49.3197 H         1 SV1         0.0559
     37 H16         4.5804    1.2565   51.6316 H         1 SV1         0.0599
     38 H17         6.3014   -0.4403   52.1029 H         1 SV1         0.0557
@<TRIPOS>BOND
     1    1    2 2  
     2    2    3 1  
     3    2   13 1  
     4    3    4 1  
     5    4    5 ar 
     6    4   10 ar 
     7    5    6 ar 
     8    6    7 ar 
     9    7    8 1  
    10    7    9 ar 
    11    9   10 ar 
    12   10   11 1  
    13   11   12 2  
    14   13   14 1  
    15   14   15 1  
    16   15   16 1  
    17   16   17 ar 
    18   16   21 ar 
    19   17   18 ar 
    20   18   19 ar 
    21   19   20 ar 
    22   20   21 ar 
    23    3   22 1  
    24    3   23 1  
    25    5   24 1  
    26    6   25 1  
    27    8   26 1  
    28    8   27 1  
    29    9   28 1  
    30   11   29 1  
    31   14   30 1  
    32   14   31 1  
    33   15   32 1  
    34   15   33 1  
    35   17   34 1  
    36   18   35 1  
    37   19   36 1  
    38   20   37 1  
    39   21   38 1  
@<TRIPOS>SUBSTRUCTURE
     1 SV1         1

