### 
### Created by X-TOOL on Mon Sep 10 21:13:15 2018
### 

@<TRIPOS>MOLECULE
3zep_ligand
   56    60     1     0     0
SMALL
GAST_HUCK


@<TRIPOS>ATOM
      1 C1         -6.4650  -10.1050   10.2560 C.3       1 1NX        -0.0419
      2 C2         -7.2150  -11.0820    9.3550 C.3       1 1NX         0.0407
      3 N4         -8.0450  -10.3250    8.4150 N.am      1 1NX        -0.2885
      4 C5         -7.9810  -10.4510    7.0590 C.2       1 1NX         0.1819
      5 O6         -7.2070  -11.2160    6.5090 O.2       1 1NX        -0.4022
      6 C7         -8.8870   -9.6430    6.2270 C.2       1 1NX         0.0712
      7 C8         -9.0630   -9.7010    4.8730 C.2       1 1NX         0.0595
      8 N9         -9.9980   -8.7960    4.4890 N.pl3     1 1NX        -0.2513
      9 C10       -10.4760   -8.1070    5.5810 C.ar      1 1NX         0.1603
     10 N11       -11.3760   -7.1410    5.7520 N.ar      1 1NX        -0.2654
     11 C12       -11.6300   -6.6680    6.9670 C.ar      1 1NX         0.0612
     12 C13       -10.9700   -7.1610    8.0990 C.ar      1 1NX         0.1980
     13 N14       -10.0650   -8.1210    7.9270 N.ar      1 1NX        -0.2703
     14 C15        -9.8060   -8.6060    6.7130 C.ar      1 1NX         0.0752
     15 O16       -11.2900   -6.6230    9.3180 O.3       1 1NX        -0.2443
     16 C17       -10.8910   -7.0480   10.5620 C.ar      1 1NX         0.1066
     17 C18       -10.8070   -6.0870   11.5720 C.ar      1 1NX        -0.0306
     18 C19       -10.4180   -6.4330   12.8640 C.ar      1 1NX        -0.0229
     19 C20       -10.2460   -5.5870   14.1110 C.3       1 1NX         0.0725
     20 N22        -9.5740   -4.3170   13.7980 N.am      1 1NX        -0.2740
     21 C23       -10.1200   -3.0980   14.0280 C.2       1 1NX         0.1748
     22 C24        -9.3240   -1.8720   13.6650 C.3       1 1NX         0.0258
     23 O25       -11.2250   -2.9560   14.5130 O.2       1 1NX        -0.3972
     24 C26        -9.3590   -6.4370   15.0450 C.3       1 1NX        -0.0137
     25 C27        -9.7240   -7.8740   14.6180 C.3       1 1NX        -0.0224
     26 C28       -10.1170   -7.7550   13.1630 C.ar      1 1NX        -0.0483
     27 C29       -10.2040   -8.7220   12.1690 C.ar      1 1NX        -0.0737
     28 C30       -10.5930   -8.3800   10.8830 C.ar      1 1NX        -0.0411
     29 C31        -8.1620  -11.9430   10.1930 C.3       1 1NX        -0.0184
     30 C32        -8.8780  -13.0890    9.4790 C.3       1 1NX        -0.0478
     31 C33        -7.7640  -13.3900   10.4820 C.3       1 1NX        -0.0478
     32 H1         -5.8391  -10.6667   10.9651 H         1 1NX         0.0252
     33 H2         -7.1879   -9.4903   10.8123 H         1 1NX         0.0252
     34 H3         -5.8272   -9.4539    9.6402 H         1 1NX         0.0252
     35 H4         -6.4992  -11.7173    8.8127 H         1 1NX         0.0554
     36 H5         -8.7020   -9.6726    8.7929 H         1 1NX         0.1836
     37 H6         -8.5315  -10.3739    4.2017 H         1 1NX         0.1136
     38 H7        -10.3066   -8.6456    3.5179 H         1 1NX         0.2366
     39 H8        -12.3662   -5.8811    7.0849 H         1 1NX         0.0796
     40 H9        -11.0486   -5.0546   11.3467 H         1 1NX         0.0476
     41 H10       -11.2210   -5.3827   14.5775 H         1 1NX         0.0704
     42 H11        -8.6610   -4.3550   13.3918 H         1 1NX         0.1879
     43 H12        -9.9045   -0.9712   13.9132 H         1 1NX         0.0467
     44 H13        -9.1061   -1.8822   12.5869 H         1 1NX         0.0467
     45 H14        -8.3801   -1.8671   14.2299 H         1 1NX         0.0467
     46 H15        -9.6070   -6.2594   16.1019 H         1 1NX         0.0326
     47 H16        -8.2914   -6.2302   14.8791 H         1 1NX         0.0326
     48 H17       -10.5646   -8.2547   15.2167 H         1 1NX         0.0395
     49 H18        -8.8591   -8.5440   14.7324 H         1 1NX         0.0395
     50 H19        -9.9655   -9.7536   12.4013 H         1 1NX         0.0514
     51 H20       -10.6672   -9.1472   10.1208 H         1 1NX         0.0481
     52 H21        -8.6736  -11.3351   10.9537 H         1 1NX         0.0323
     53 H22        -8.7113  -13.2575    8.4049 H         1 1NX         0.0269
     54 H23        -9.9225  -13.3261    9.7296 H         1 1NX         0.0269
     55 H24        -8.0070  -13.8436   11.4542 H         1 1NX         0.0269
     56 H25        -6.7958  -13.7750   10.1295 H         1 1NX         0.0269
@<TRIPOS>BOND
     1    1    2 1  
     2    2    3 1  
     3    2   29 1  
     4    3    4 am 
     5    4    5 2  
     6    4    6 1  
     7    6    7 2  
     8    6   14 1  
     9    7    8 1  
    10    8    9 1  
    11    9   10 ar 
    12    9   14 ar 
    13   10   11 ar 
    14   11   12 ar 
    15   12   13 ar 
    16   12   15 1  
    17   13   14 ar 
    18   15   16 1  
    19   16   17 ar 
    20   16   28 ar 
    21   17   18 ar 
    22   18   19 1  
    23   18   26 ar 
    24   19   20 1  
    25   19   24 1  
    26   20   21 am 
    27   21   22 1  
    28   21   23 2  
    29   24   25 1  
    30   25   26 1  
    31   26   27 ar 
    32   27   28 ar 
    33   29   30 1  
    34   29   31 1  
    35   30   31 1  
    36    1   32 1  
    37    1   33 1  
    38    1   34 1  
    39    2   35 1  
    40    3   36 1  
    41    7   37 1  
    42    8   38 1  
    43   11   39 1  
    44   17   40 1  
    45   19   41 1  
    46   20   42 1  
    47   22   43 1  
    48   22   44 1  
    49   22   45 1  
    50   24   46 1  
    51   24   47 1  
    52   25   48 1  
    53   25   49 1  
    54   27   50 1  
    55   28   51 1  
    56   29   52 1  
    57   30   53 1  
    58   30   54 1  
    59   31   55 1  
    60   31   56 1  
@<TRIPOS>SUBSTRUCTURE
     1 1NX         1

