### 
### Created by X-TOOL on Mon Sep 10 21:13:15 2018
### 

@<TRIPOS>MOLECULE
3zh8_ligand
   56    60     1     0     0
SMALL
GAST_HUCK


@<TRIPOS>ATOM
      1 C          16.2100   16.8050   15.2430 C.3       1 C58         0.0060
      2 N          15.0990   15.9500   14.7990 N.4       1 C58         0.2237
      3 S          16.7000   18.0790    8.5650 S.3       1 C58        -0.0194
      4 C1         17.5440   16.3000   14.5980 C.3       1 C58         0.0740
      5 N1         17.4150   16.1500   13.1550 N.pl3     1 C58        -0.2965
      6 C2         17.3480   17.2150   12.3460 C.ar      1 C58         0.1223
      7 N2         17.4650   18.4400   12.8850 N.ar      1 C58        -0.2631
      8 C3         17.3650   19.5220   12.1050 C.ar      1 C58         0.1014
      9 N3         17.1110   19.5200   10.7900 N.ar      1 C58        -0.2751
     10 C4         17.0010   18.3010   10.2650 C.ar      1 C58         0.1034
     11 N4         18.2010   23.3140   13.9200 N.ar      1 C58        -0.2962
     12 C5         17.1220   17.0870   10.9420 C.ar      1 C58         0.0417
     13 C6         16.9890   15.9540   10.0300 C.2       1 C58        -0.0365
     14 C7         16.7570   16.3500    8.7590 C.2       1 C58         0.0179
     15 C8         16.5500   15.4510    7.5790 C.3       1 C58        -0.0101
     16 C9         16.9920   14.0390    7.9110 C.3       1 C58        -0.0414
     17 C10        16.5360   13.6280    9.2940 C.3       1 C58        -0.0467
     18 C11        17.1250   14.5050   10.3840 C.3       1 C58        -0.0348
     19 C12        17.6310   20.8380   12.7390 C.ar      1 C58         0.0277
     20 C13        17.5650   22.0190   12.0090 C.ar      1 C58        -0.0224
     21 C14        17.8580   23.2140   12.6340 C.ar      1 C58         0.0128
     22 C15        18.2540   22.1770   14.6170 C.ar      1 C58         0.0128
     23 C16        17.9830   20.9350   14.0800 C.ar      1 C58        -0.0224
     24 C17        16.3900   16.8010   16.7790 C.3       1 C58         0.0259
     25 C18        17.4760   17.7560   17.2070 C.ar      1 C58        -0.0376
     26 C19        18.8000   17.3540   17.2480 C.ar      1 C58        -0.0601
     27 C20        19.7960   18.2320   17.6420 C.ar      1 C58        -0.0686
     28 C21        19.4790   19.5220   17.9980 C.ar      1 C58        -0.0687
     29 C22        18.1680   19.9360   17.9620 C.ar      1 C58        -0.0686
     30 C23        17.1720   19.0590   17.5700 C.ar      1 C58        -0.0601
     31 H1         16.0109   17.8352   14.9129 H         1 C58         0.0894
     32 H2         15.0260   15.9887   13.7944 H         1 C58         0.1999
     33 H3         14.2388   16.2758   15.2112 H         1 C58         0.1999
     34 H4         15.2707   14.9994   15.0869 H         1 C58         0.1999
     35 H5         17.8070   15.3261   15.0366 H         1 C58         0.0583
     36 H6         18.3420   17.0262   14.8121 H         1 C58         0.0583
     37 H7         17.3744   15.2046   12.7481 H         1 C58         0.1855
     38 H8         17.1395   15.8256    6.7292 H         1 C58         0.0440
     39 H9         15.4833   15.4439    7.3106 H         1 C58         0.0440
     40 H10        18.0899   13.9879    7.8664 H         1 C58         0.0290
     41 H11        16.5624   13.3465    7.1722 H         1 C58         0.0290
     42 H12        16.8450   12.5875    9.4728 H         1 C58         0.0281
     43 H13        15.4392   13.6977    9.3392 H         1 C58         0.0281
     44 H14        16.5943   14.3127   11.3281 H         1 C58         0.0350
     45 H15        18.1908   14.2618   10.5064 H         1 C58         0.0350
     46 H16        17.2868   22.0016   10.9615 H         1 C58         0.0733
     47 H17        17.8066   24.1237   12.0467 H         1 C58         0.0826
     48 H18        18.5255   22.2323   15.6650 H         1 C58         0.0826
     49 H19        18.0439   20.0456   14.6968 H         1 C58         0.0733
     50 H20        16.6573   15.7852   17.1056 H         1 C58         0.0482
     51 H21        15.4429   17.1008   17.2514 H         1 C58         0.0482
     52 H22        19.0604   16.3396   16.9683 H         1 C58         0.0557
     53 H23        20.8280   17.9016   17.6698 H         1 C58         0.0599
     54 H24        20.2588   20.2093   18.3055 H         1 C58         0.0559
     55 H25        17.9142   20.9521   18.2415 H         1 C58         0.0599
     56 H26        16.1416   19.3949   17.5465 H         1 C58         0.0557
@<TRIPOS>BOND
     1    1    2 1  
     2    4    1 1  
     3    1   24 1  
     4   10    3 1  
     5    3   14 1  
     6    5    4 1  
     7    6    5 1  
     8    7    6 ar 
     9    6   12 ar 
    10    8    7 ar 
    11    8    9 ar 
    12   19    8 1  
    13    9   10 ar 
    14   10   12 ar 
    15   21   11 ar 
    16   11   22 ar 
    17   12   13 1  
    18   13   14 2  
    19   13   18 1  
    20   14   15 1  
    21   15   16 1  
    22   17   16 1  
    23   18   17 1  
    24   20   19 ar 
    25   19   23 ar 
    26   20   21 ar 
    27   22   23 ar 
    28   24   25 1  
    29   25   26 ar 
    30   25   30 ar 
    31   26   27 ar 
    32   27   28 ar 
    33   28   29 ar 
    34   29   30 ar 
    35    1   31 1  
    36    2   32 1  
    37    2   33 1  
    38    2   34 1  
    39    4   35 1  
    40    4   36 1  
    41    5   37 1  
    42   15   38 1  
    43   15   39 1  
    44   16   40 1  
    45   16   41 1  
    46   17   42 1  
    47   17   43 1  
    48   18   44 1  
    49   18   45 1  
    50   20   46 1  
    51   21   47 1  
    52   22   48 1  
    53   23   49 1  
    54   24   50 1  
    55   24   51 1  
    56   26   52 1  
    57   27   53 1  
    58   28   54 1  
    59   29   55 1  
    60   30   56 1  
@<TRIPOS>SUBSTRUCTURE
     1 C58         1

