### 
### Created by X-TOOL on Sun Sep  9 21:52:04 2018
### 

@<TRIPOS>MOLECULE
3zi8_ligand
   22    22     1     0     0
SMALL
GAST_HUCK


@<TRIPOS>ATOM
      1 C1         20.1410   11.5470  -19.1720 C.3       1 NON         0.0766
      2 C2         20.4790   11.3260  -17.6980 C.3       1 NON         0.1068
      3 C3         21.8470   10.6500  -17.6120 C.3       1 NON         0.1114
      4 C4         22.9450   11.4510  -18.3560 C.3       1 NON         0.1093
      5 C5         22.4460   11.7930  -19.7690 C.3       1 NON         0.0843
      6 C6         23.4440   12.6540  -20.4920 C.3       1 NON        -0.0362
      7 O2         19.4790   10.5190  -17.0700 O.3       1 NON        -0.3869
      8 O3         22.1230   10.3490  -16.2440 O.3       1 NON        -0.3865
      9 O4         23.3300   12.7020  -17.7870 O.3       1 NON        -0.3866
     10 O5         21.1460   12.3980  -19.7390 O.3       1 NON        -0.3716
     11 H1         19.1546   12.0257  -19.2602 H         1 NON         0.0586
     12 H2         20.1289   10.5821  -19.7001 H         1 NON         0.0586
     13 H3         20.5227   12.2987  -17.1863 H         1 NON         0.0643
     14 H4         21.7688    9.6862  -18.1364 H         1 NON         0.0647
     15 H5         23.8374   10.8109  -18.4184 H         1 NON         0.0646
     16 H6         22.3562   10.8493  -20.3269 H         1 NON         0.0620
     17 H7         23.0668   12.8859  -21.4989 H         1 NON         0.0255
     18 H8         24.4006   12.1171  -20.5735 H         1 NON         0.0255
     19 H9         23.5949   13.5891  -19.9327 H         1 NON         0.0255
     20 H10        19.7038   10.3927  -16.1557 H         1 NON         0.2100
     21 H11        22.2384   11.1582  -15.7599 H         1 NON         0.2100
     22 H12        23.6515   12.5615  -16.9041 H         1 NON         0.2100
@<TRIPOS>BOND
     1    1    2 1  
     2    1   10 1  
     3    2    3 1  
     4    2    7 1  
     5    3    4 1  
     6    3    8 1  
     7    4    5 1  
     8    4    9 1  
     9    5    6 1  
    10    5   10 1  
    11    1   11 1  
    12    1   12 1  
    13    2   13 1  
    14    3   14 1  
    15    4   15 1  
    16    5   16 1  
    17    6   17 1  
    18    6   18 1  
    19    6   19 1  
    20    7   20 1  
    21    8   21 1  
    22    9   22 1  
@<TRIPOS>SUBSTRUCTURE
     1 NON         1

