### 
### Created by X-TOOL on Mon Sep 10 21:13:15 2018
### 

@<TRIPOS>MOLECULE
3zim_ligand
   79    84     1     0     0
SMALL
GAST_HUCK


@<TRIPOS>ATOM
      1 C1        -32.9380   13.8670   29.8170 C.3       1 KKR        -0.0605
      2 C2        -31.9860   14.1480   28.6810 C.3       1 KKR        -0.0309
      3 C3        -32.2180   13.1580   27.5670 C.3       1 KKR        -0.0605
      4 C4        -30.5310   14.1240   29.1460 C.3       1 KKR         0.0235
      5 C5        -30.1170   12.8240   29.6890 C.2       1 KKR         0.1074
      6 O6        -30.4370   12.4920   30.8120 O.2       1 KKR        -0.3914
      7 C7        -29.2530   11.9050   28.8690 C.3       1 KKR         0.0379
      8 C8        -27.8030   12.1540   29.2930 C.3       1 KKR         0.0532
      9 C9        -26.7830   11.4290   28.4370 C.2       1 KKR         0.1811
     10 O10       -27.1790   10.6970   27.5490 O.2       1 KKR        -0.3967
     11 N11       -25.4400   11.5830   28.6580 N.am      1 KKR        -0.2629
     12 C12       -24.8800   12.4650   29.7100 C.3       1 KKR         0.0740
     13 C13       -23.9560   11.6460   30.6120 C.3       1 KKR        -0.0089
     14 N14       -22.8530   11.1330   29.7860 N.4       1 KKR         0.2550
     15 C15       -23.3700   10.2110   28.7490 C.3       1 KKR        -0.0089
     16 C16       -24.4080   10.8990   27.8370 C.3       1 KKR         0.0740
     17 C17       -21.8360   10.5040   30.6420 C.3       1 KKR         0.0228
     18 C18       -20.4810   10.4920   29.9850 C.2       1 KKR         0.0737
     19 C19       -20.0660    9.5450   29.1660 C.2       1 KKR        -0.0389
     20 C20       -18.7800    9.6940   28.6790 C.ar      1 KKR         0.0272
     21 N21       -18.1230    8.8400   27.8160 N.ar      1 KKR        -0.3055
     22 C22       -16.8650    9.1070   27.3780 C.ar      1 KKR         0.0833
     23 N23       -16.2600   10.2110   27.8290 N.ar      1 KKR        -0.2693
     24 C24       -16.7870   11.0860   28.7100 C.ar      1 KKR         0.1353
     25 C25       -18.1240   10.8300   29.1570 C.ar      1 KKR         0.0992
     26 S26       -19.2580   11.6480   30.2310 S.3       1 KKR        -0.0086
     27 N27       -16.0240   12.1750   29.1650 N.pl3     1 KKR        -0.2855
     28 C28       -16.6200   13.3890   29.7940 C.3       1 KKR         0.0548
     29 C29       -15.7550   14.6630   29.8020 C.3       1 KKR         0.0681
     30 O30       -14.3760   14.3480   29.8520 O.3       1 KKR        -0.3757
     31 C31       -13.9680   13.4730   28.8050 C.3       1 KKR         0.0681
     32 C32       -14.5440   12.1000   29.1570 C.3       1 KKR         0.0548
     33 C33       -16.2080    8.1790   26.4100 C.ar      1 KKR         0.0069
     34 C34       -16.8330    6.9950   25.9660 C.ar      1 KKR        -0.0580
     35 C35       -16.2190    6.1240   25.0760 C.ar      1 KKR        -0.0653
     36 C36       -15.0010    6.3850   24.5330 C.ar      1 KKR        -0.0314
     37 C37       -14.3170    7.5500   24.8820 C.ar      1 KKR         0.0913
     38 N38       -13.1470    8.0560   24.5160 N.pl3     1 KKR        -0.2116
     39 N39       -12.9460    9.1720   25.1070 N.2       1 KKR        -0.2040
     40 C40       -13.9410    9.4790   25.9110 C.2       1 KKR         0.0236
     41 C41       -14.8840    8.4600   25.8300 C.ar      1 KKR         0.0214
     42 H1        -33.9723   13.8929   29.4435 H         1 KKR         0.0234
     43 H2        -32.8113   14.6303   30.5989 H         1 KKR         0.0234
     44 H3        -32.7246   12.8729   30.2369 H         1 KKR         0.0234
     45 H4        -32.2002   15.1559   28.2960 H         1 KKR         0.0320
     46 H5        -31.5222   13.3661   26.7408 H         1 KKR         0.0234
     47 H6        -33.2532   13.2481   27.2060 H         1 KKR         0.0234
     48 H7        -32.0477   12.1379   27.9416 H         1 KKR         0.0234
     49 H8        -30.4017   14.8864   29.9283 H         1 KKR         0.0497
     50 H9        -29.8861   14.3656   28.2883 H         1 KKR         0.0497
     51 H10       -29.3765   12.1261   27.7986 H         1 KKR         0.0519
     52 H11       -29.5278   10.8573   29.0611 H         1 KKR         0.0519
     53 H12       -27.6834   11.8189   30.3338 H         1 KKR         0.0528
     54 H13       -27.6037   13.2340   29.2303 H         1 KKR         0.0528
     55 H14       -25.6991   12.8885   30.3097 H         1 KKR         0.0575
     56 H15       -24.3091   13.2802   29.2414 H         1 KKR         0.0575
     57 H16       -24.5132   10.8067   31.0537 H         1 KKR         0.0835
     58 H17       -23.5563   12.2835   31.4144 H         1 KKR         0.0835
     59 H18       -22.4212   11.9131   29.3159 H         1 KKR         0.2056
     60 H19       -23.8447    9.3501   29.2425 H         1 KKR         0.0835
     61 H20       -22.5292    9.8620   28.1315 H         1 KKR         0.0835
     62 H21       -23.8994   11.6395   27.2021 H         1 KKR         0.0575
     63 H22       -24.8918   10.1422   27.2021 H         1 KKR         0.0575
     64 H23       -22.1389    9.4676   30.8519 H         1 KKR         0.1055
     65 H24       -21.7689   11.0648   31.5859 H         1 KKR         0.1055
     66 H25       -20.6955    8.7000   28.8909 H         1 KKR         0.0317
     67 H26       -16.8558   13.1405   30.8393 H         1 KKR         0.0547
     68 H27       -17.5495   13.6214   29.2537 H         1 KKR         0.0547
     69 H28       -16.0164   15.2681   30.6826 H         1 KKR         0.0580
     70 H29       -15.9579   15.2396   28.8875 H         1 KKR         0.0580
     71 H30       -12.8703   13.4252   28.7523 H         1 KKR         0.0580
     72 H31       -14.3667   13.8191   27.8400 H         1 KKR         0.0580
     73 H32       -14.2178   11.3624   28.4090 H         1 KKR         0.0547
     74 H33       -14.1864   11.7961   30.1519 H         1 KKR         0.0547
     75 H34       -17.8254    6.7573   26.3317 H         1 KKR         0.0577
     76 H35       -16.7278    5.2059   24.8055 H         1 KKR         0.0590
     77 H36       -14.5608    5.6883   23.8288 H         1 KKR         0.0593
     78 H37       -12.4950    7.6143   23.8522 H         1 KKR         0.2461
     79 H38       -14.0134   10.3721   26.5299 H         1 KKR         0.0718
@<TRIPOS>BOND
     1    1    2 1  
     2    2    3 1  
     3    2    4 1  
     4    4    5 1  
     5    5    6 2  
     6    5    7 1  
     7    7    8 1  
     8    8    9 1  
     9    9   10 2  
    10    9   11 am 
    11   11   12 1  
    12   11   16 1  
    13   12   13 1  
    14   13   14 1  
    15   14   15 1  
    16   14   17 1  
    17   15   16 1  
    18   17   18 1  
    19   18   19 2  
    20   18   26 1  
    21   19   20 1  
    22   20   21 ar 
    23   20   25 ar 
    24   21   22 ar 
    25   22   23 ar 
    26   22   33 1  
    27   23   24 ar 
    28   24   25 ar 
    29   24   27 1  
    30   25   26 1  
    31   27   28 1  
    32   27   32 1  
    33   28   29 1  
    34   29   30 1  
    35   30   31 1  
    36   31   32 1  
    37   33   34 ar 
    38   33   41 ar 
    39   34   35 ar 
    40   35   36 ar 
    41   36   37 ar 
    42   37   38 1  
    43   37   41 ar 
    44   38   39 1  
    45   39   40 2  
    46   40   41 1  
    47    1   42 1  
    48    1   43 1  
    49    1   44 1  
    50    2   45 1  
    51    3   46 1  
    52    3   47 1  
    53    3   48 1  
    54    4   49 1  
    55    4   50 1  
    56    7   51 1  
    57    7   52 1  
    58    8   53 1  
    59    8   54 1  
    60   12   55 1  
    61   12   56 1  
    62   13   57 1  
    63   13   58 1  
    64   14   59 1  
    65   15   60 1  
    66   15   61 1  
    67   16   62 1  
    68   16   63 1  
    69   17   64 1  
    70   17   65 1  
    71   19   66 1  
    72   28   67 1  
    73   28   68 1  
    74   29   69 1  
    75   29   70 1  
    76   31   71 1  
    77   31   72 1  
    78   32   73 1  
    79   32   74 1  
    80   34   75 1  
    81   35   76 1  
    82   36   77 1  
    83   38   78 1  
    84   40   79 1  
@<TRIPOS>SUBSTRUCTURE
     1 KKR         1

