### 
### Created by X-TOOL on Mon Sep 10 21:13:17 2018
### 

@<TRIPOS>MOLECULE
3zj6_ligand
   44    45     1     0     0
SMALL
GAST_HUCK


@<TRIPOS>ATOM
      1 C1         19.3040   20.6390   37.7200 C.3       1 VM2        -0.0008
      2 C2         18.2550   19.9370   38.6140 C.3       1 VM2        -0.0454
      3 C3         17.8550   20.5750   39.9520 C.3       1 VM2        -0.0526
      4 C4         18.6310   21.8480   40.3540 C.3       1 VM2        -0.0530
      5 C5         18.6400   22.7640   39.1400 C.3       1 VM2        -0.0526
      6 C6         19.4890   22.1560   37.9950 C.3       1 VM2        -0.0454
      7 C2B        18.2080   17.2850   34.0690 C.3       1 VM2         0.1261
      8 C3B        17.3430   17.4280   32.8080 C.3       1 VM2         0.1126
      9 C4B        16.8100   18.8380   32.9350 C.3       1 VM2         0.0938
     10 C5B        18.1090   19.5830   33.2700 C.3       1 VM2         0.0559
     11 C6B        17.8980   21.0840   33.6120 C.3       1 VM2         0.0547
     12 O2B        19.2280   16.3150   33.8550 O.3       1 VM2        -0.3835
     13 O3B        16.2800   16.4700   32.7050 O.3       1 VM2        -0.3864
     14 O4B        16.0930   19.3330   31.7920 O.3       1 VM2        -0.3886
     15 O6B        16.8230   21.2260   34.5760 O.3       1 VM2        -0.3944
     16 CAR        18.7760   18.6840   34.3470 C.3       1 VM2         0.0139
     17 N2B        18.5900   19.0920   35.7650 N.4       1 VM2         0.2316
     18 C7B        18.9730   20.4460   36.2310 C.3       1 VM2        -0.0304
     19 H          20.2695   20.1515   37.9202 H         1 VM2         0.0352
     20 H          18.6476   18.9350   38.8418 H         1 VM2         0.0270
     21 H          17.3362   19.8437   38.0165 H         1 VM2         0.0270
     22 H          18.0076   19.8245   40.7416 H         1 VM2         0.0265
     23 H          16.7878   20.8355   39.8949 H         1 VM2         0.0265
     24 H          19.6612   21.5884   40.6392 H         1 VM2         0.0265
     25 H          18.1308   22.3447   41.1985 H         1 VM2         0.0265
     26 H          19.0655   23.7371   39.4262 H         1 VM2         0.0265
     27 H          17.6076   22.9047   38.7872 H         1 VM2         0.0265
     28 H          19.2368   22.6957   37.0703 H         1 VM2         0.0270
     29 H          20.5481   22.3237   38.2402 H         1 VM2         0.0270
     30 H          17.5873   16.9637   34.9184 H         1 VM2         0.0677
     31 H          17.9733   17.3354   31.9113 H         1 VM2         0.0647
     32 H          16.1198   18.8962   33.7895 H         1 VM2         0.0625
     33 H          18.7557   19.5699   32.3803 H         1 VM2         0.0405
     34 H          17.6401   21.6340   32.6950 H         1 VM2         0.0563
     35 H          18.8255   21.4948   34.0374 H         1 VM2         0.0563
     36 H          19.7766   16.5888   33.1293 H         1 VM2         0.2102
     37 H          15.7544   16.6631   31.9376 H         1 VM2         0.2100
     38 H          15.8531   20.2404   31.9387 H         1 VM2         0.2099
     39 H          16.0212   20.8725   34.2089 H         1 VM2         0.2094
     40 H          19.8603   18.6752   34.1621 H         1 VM2         0.0881
     41 H          19.1178   18.4383   36.3220 H         1 VM2         0.2017
     42 H          17.6077   18.9881   35.9657 H         1 VM2         0.2017
     43 H          19.8622   20.7479   35.6581 H         1 VM2         0.0816
     44 H          18.1372   21.1205   35.9933 H         1 VM2         0.0816
@<TRIPOS>BOND
     1    1    2 1  
     2    1    6 1  
     3   18    1 1  
     4    2    3 1  
     5    3    4 1  
     6    5    4 1  
     7    6    5 1  
     8    7    8 1  
     9    7   12 1  
    10   16    7 1  
    11    9    8 1  
    12    8   13 1  
    13   10    9 1  
    14    9   14 1  
    15   10   11 1  
    16   16   10 1  
    17   11   15 1  
    18   17   16 1  
    19   17   18 1  
    20    1   19 1  
    21    2   20 1  
    22    2   21 1  
    23    3   22 1  
    24    3   23 1  
    25    4   24 1  
    26    4   25 1  
    27    5   26 1  
    28    5   27 1  
    29    6   28 1  
    30    6   29 1  
    31    7   30 1  
    32    8   31 1  
    33    9   32 1  
    34   10   33 1  
    35   11   34 1  
    36   11   35 1  
    37   12   36 1  
    38   13   37 1  
    39   14   38 1  
    40   15   39 1  
    41   16   40 1  
    42   17   41 1  
    43   17   42 1  
    44   18   43 1  
    45   18   44 1  
@<TRIPOS>SUBSTRUCTURE
     1 VM2         1

