### 
### Created by X-TOOL on Mon Sep 10 21:13:19 2018
### 

@<TRIPOS>MOLECULE
3zj8_ligand
   38    39     1     0     0
SMALL
GAST_HUCK


@<TRIPOS>ATOM
      1 CAH       -36.3000    8.5430   -9.0560 C.ar      1 LR1        -0.0524
      2 CAF       -34.9900    8.6040   -8.5650 C.ar      1 LR1        -0.0588
      3 CAM       -34.2420    7.4240   -8.4850 C.ar      1 LR1         0.0056
      4 BR        -32.4430    7.4350   -7.8200 Br        1 LR1        -0.0561
      5 CAG       -34.7980    6.1970   -8.8790 C.ar      1 LR1        -0.0588
      6 CAI       -36.0950    6.1310   -9.3570 C.ar      1 LR1        -0.0524
      7 CAN       -36.8410    7.3110   -9.4450 C.ar      1 LR1         0.0042
      8 CAK       -38.1400    7.2360   -9.9200 C.3       1 LR1         0.0018
      9 NAL       -38.8900    6.1680   -9.2230 N.4       1 LR1         0.2439
     10 CAS       -40.3410    6.3200   -9.4140 C.3       1 LR1         0.0153
     11 CAQ       -41.1250    5.0500   -8.9970 C.3       1 LR1         0.1261
     12 OAD       -41.6400    4.3720  -10.1560 O.3       1 LR1        -0.3835
     13 CAO       -42.2790    5.5470   -8.1610 C.3       1 LR1         0.1126
     14 OAB       -42.5110    4.5410   -7.2020 O.3       1 LR1        -0.3864
     15 CAP       -41.6940    6.7800   -7.4540 C.3       1 LR1         0.0938
     16 OAC       -42.6930    7.7100   -6.9550 O.3       1 LR1        -0.3886
     17 CAR       -40.8900    7.4630   -8.5450 C.3       1 LR1         0.0559
     18 CAJ       -39.7460    8.2340   -7.9050 C.3       1 LR1         0.0547
     19 OAA       -40.2490    9.4990   -7.5830 O.3       1 LR1        -0.3944
     20 H         -36.8936    9.4466   -9.1348 H         1 LR1         0.0566
     21 H         -34.5624    9.5497   -8.2520 H         1 LR1         0.0626
     22 H         -34.2055    5.2920   -8.8082 H         1 LR1         0.0626
     23 H         -36.5249    5.1824   -9.6577 H         1 LR1         0.0566
     24 H         -38.1185    7.0178  -10.9979 H         1 LR1         0.0986
     25 H         -38.6427    8.1997   -9.7509 H         1 LR1         0.0986
     26 H         -38.6825    6.2109   -8.2375 H         1 LR1         0.2032
     27 H         -38.6029    5.2734   -9.5882 H         1 LR1         0.2032
     28 H         -40.5324    6.5360  -10.4755 H         1 LR1         0.0882
     29 H         -40.4834    4.3695   -8.4180 H         1 LR1         0.0677
     30 H         -42.2235    4.9539  -10.6287 H         1 LR1         0.2102
     31 H         -43.1789    5.7796   -8.7493 H         1 LR1         0.0647
     32 H         -43.2331    4.7998   -6.6416 H         1 LR1         0.2100
     33 H         -41.0478    6.4665   -6.6208 H         1 LR1         0.0625
     34 H         -42.2594    8.4424   -6.5330 H         1 LR1         0.2099
     35 H         -41.5200    8.1414   -9.1390 H         1 LR1         0.0405
     36 H         -38.9084    8.3271   -8.6119 H         1 LR1         0.0563
     37 H         -39.4028    7.7191   -6.9956 H         1 LR1         0.0563
     38 H         -40.9755    9.4051   -6.9782 H         1 LR1         0.2094
@<TRIPOS>BOND
     1    1    2 ar 
     2    1    7 ar 
     3    2    3 ar 
     4    3    4 1  
     5    3    5 ar 
     6    5    6 ar 
     7    6    7 ar 
     8    7    8 1  
     9    8    9 1  
    10    9   10 1  
    11   10   11 1  
    12   10   17 1  
    13   11   12 1  
    14   11   13 1  
    15   13   14 1  
    16   13   15 1  
    17   15   16 1  
    18   15   17 1  
    19   17   18 1  
    20   18   19 1  
    21    1   20 1  
    22    2   21 1  
    23    5   22 1  
    24    6   23 1  
    25    8   24 1  
    26    8   25 1  
    27    9   26 1  
    28    9   27 1  
    29   10   28 1  
    30   11   29 1  
    31   12   30 1  
    32   13   31 1  
    33   14   32 1  
    34   15   33 1  
    35   16   34 1  
    36   17   35 1  
    37   18   36 1  
    38   18   37 1  
    39   19   38 1  
@<TRIPOS>SUBSTRUCTURE
     1 LR1         1

