### 
### Created by X-TOOL on Mon Sep 10 21:13:15 2018
### 

@<TRIPOS>MOLECULE
3zk6_ligand
   71    75     1     0     0
SMALL
GAST_HUCK


@<TRIPOS>ATOM
      1 C1         30.7200   50.0570   -4.1500 C.ar      1 H1I        -0.0755
      2 C2         30.0050   48.8680   -4.2080 C.ar      1 H1I        -0.0745
      3 C3         28.9950   48.6220   -3.2860 C.ar      1 H1I        -0.0530
      4 C4         28.6870   49.5600   -2.3090 C.ar      1 H1I         0.0495
      5 C5         29.3850   50.7590   -2.2610 C.ar      1 H1I         0.0118
      6 C6         30.4020   51.0010   -3.1820 C.ar      1 H1I        -0.0629
      7 N7         28.9070   51.5040   -1.2270 N.2       1 H1I        -0.3027
      8 C8         27.9280   50.8200   -0.6180 C.2       1 H1I         0.2134
      9 S9         27.4550   49.2490   -1.1810 S.3       1 H1I         0.0311
     10 N10        27.2740   51.3280    0.4260 N.pl3     1 H1I        -0.1861
     11 N11        26.3240   50.5760    0.9220 N.2       1 H1I        -0.2052
     12 C12        25.6950   50.9540    1.9340 C.2       1 H1I         0.0746
     13 C13        25.9260   52.2890    2.5610 C.3       1 H1I        -0.0146
     14 C14        24.6210   50.1110    2.4470 C.2       1 H1I         0.1378
     15 C15        23.9950   49.9080    3.6590 C.2       1 H1I        -0.0460
     16 C16        23.0240   48.9530    3.3670 C.2       1 H1I        -0.0471
     17 C17        23.1170   48.6270    2.0090 C.2       1 H1I         0.1240
     18 O18        24.1180   49.3540    1.4410 O.3       1 H1I        -0.2526
     19 C19        22.2780   47.6810    1.2350 C.ar      1 H1I         0.0133
     20 C20        22.8400   46.9650    0.1930 C.ar      1 H1I        -0.0540
     21 C21        22.0330   46.1130   -0.5410 C.ar      1 H1I        -0.0618
     22 C22        20.6790   45.9720   -0.2580 C.ar      1 H1I        -0.0370
     23 C23        20.0910   46.7220    0.7640 C.ar      1 H1I         0.1113
     24 C24        20.9130   47.5770    1.5100 C.ar      1 H1I        -0.0271
     25 S25        18.5260   46.5680    1.1110 S.o2      1 H1I         0.0903
     26 O25        17.9090   45.6630    0.1930 O.2       1 H1I        -0.1456
     27 O26        18.3960   46.0230    2.4330 O.2       1 H1I        -0.1456
     28 N26        17.7830   47.8840    1.0070 N.am      1 H1I        -0.1539
     29 C27        17.8840   48.8250    1.9390 C.2       1 H1I         0.1960
     30 O27        18.5840   48.7180    2.9350 O.2       1 H1I        -0.3954
     31 C28        17.0880   50.0890    1.7020 C.3       1 H1I         0.0388
     32 C29        15.6610   49.9220    2.2120 C.3       1 H1I        -0.0359
     33 C30        15.1820   51.2400    2.8010 C.3       1 H1I        -0.0492
     34 C31        13.7870   51.1320    3.4030 C.3       1 H1I        -0.0431
     35 C32        13.4400   52.4000    4.1850 C.3       1 H1I        -0.0192
     36 C33        12.0250   52.3110    4.7190 C.ar      1 H1I        -0.0430
     37 C34        11.0490   51.6290    4.0040 C.ar      1 H1I        -0.0603
     38 C35         9.7460   51.5520    4.4870 C.ar      1 H1I        -0.0686
     39 C36         9.4190   52.1580    5.6980 C.ar      1 H1I        -0.0687
     40 C37        10.3960   52.8420    6.4130 C.ar      1 H1I        -0.0686
     41 C38        11.6940   52.9170    5.9230 C.ar      1 H1I        -0.0603
     42 H1         31.5209   50.2471   -4.8554 H         1 H1I         0.0546
     43 H2         30.2344   48.1331   -4.9712 H         1 H1I         0.0534
     44 H3         28.4428   47.6902   -3.3296 H         1 H1I         0.0557
     45 H4         30.9505   51.9352   -3.1427 H         1 H1I         0.0537
     46 H5         27.5013   52.2531    0.8177 H         1 H1I         0.2406
     47 H6         25.2652   52.4038    3.4329 H         1 H1I         0.0405
     48 H7         25.7080   53.0806    1.8290 H         1 H1I         0.0405
     49 H8         26.9749   52.3662    2.8832 H         1 H1I         0.0405
     50 H9         24.2089   50.3815    4.6161 H         1 H1I         0.0425
     51 H10        22.3127   48.5312    4.0756 H         1 H1I         0.0414
     52 H11        23.8926   47.0693   -0.0441 H         1 H1I         0.0605
     53 H12        22.4664   45.5429   -1.3548 H         1 H1I         0.0612
     54 H13        20.0770   45.2774   -0.8326 H         1 H1I         0.0617
     55 H14        20.4831   48.1661    2.3120 H         1 H1I         0.0624
     56 H15        17.1987   48.0493    0.2125 H         1 H1I         0.2145
     57 H16        17.0645   50.3057    0.6238 H         1 H1I         0.0503
     58 H17        17.5674   50.9242    2.2335 H         1 H1I         0.0503
     59 H18        15.6365   49.1422    2.9874 H         1 H1I         0.0290
     60 H19        15.0043   49.6314    1.3788 H         1 H1I         0.0290
     61 H20        15.1655   51.9982    2.0042 H         1 H1I         0.0268
     62 H21        15.8839   51.5511    3.5887 H         1 H1I         0.0268
     63 H22        13.7519   50.2673    4.0820 H         1 H1I         0.0287
     64 H23        13.0539   50.9935    2.5947 H         1 H1I         0.0287
     65 H24        13.5237   53.2721    3.5199 H         1 H1I         0.0426
     66 H25        14.1400   52.5118    5.0261 H         1 H1I         0.0426
     67 H26        11.3037   51.1536    3.0637 H         1 H1I         0.0557
     68 H27         8.9876   51.0219    3.9224 H         1 H1I         0.0599
     69 H28         8.4069   52.0966    6.0814 H         1 H1I         0.0559
     70 H29        10.1446   53.3175    7.3542 H         1 H1I         0.0599
     71 H30        12.4521   53.4516    6.4839 H         1 H1I         0.0557
@<TRIPOS>BOND
     1    1    2 ar 
     2    1    6 ar 
     3    2    3 ar 
     4    3    4 ar 
     5    4    5 ar 
     6    4    9 1  
     7    5    6 ar 
     8    5    7 1  
     9    7    8 2  
    10    8    9 1  
    11    8   10 1  
    12   10   11 1  
    13   11   12 2  
    14   12   13 1  
    15   12   14 1  
    16   14   15 2  
    17   14   18 1  
    18   15   16 1  
    19   16   17 2  
    20   17   18 1  
    21   17   19 1  
    22   19   20 ar 
    23   19   24 ar 
    24   20   21 ar 
    25   21   22 ar 
    26   22   23 ar 
    27   23   24 ar 
    28   23   25 1  
    29   25   26 2  
    30   25   27 2  
    31   25   28 am 
    32   28   29 am 
    33   29   30 2  
    34   29   31 1  
    35   31   32 1  
    36   32   33 1  
    37   33   34 1  
    38   34   35 1  
    39   35   36 1  
    40   36   37 ar 
    41   36   41 ar 
    42   37   38 ar 
    43   38   39 ar 
    44   39   40 ar 
    45   40   41 ar 
    46    1   42 1  
    47    2   43 1  
    48    3   44 1  
    49    6   45 1  
    50   10   46 1  
    51   13   47 1  
    52   13   48 1  
    53   13   49 1  
    54   15   50 1  
    55   16   51 1  
    56   20   52 1  
    57   21   53 1  
    58   22   54 1  
    59   24   55 1  
    60   28   56 1  
    61   31   57 1  
    62   31   58 1  
    63   32   59 1  
    64   32   60 1  
    65   33   61 1  
    66   33   62 1  
    67   34   63 1  
    68   34   64 1  
    69   35   65 1  
    70   35   66 1  
    71   37   67 1  
    72   38   68 1  
    73   39   69 1  
    74   40   70 1  
    75   41   71 1  
@<TRIPOS>SUBSTRUCTURE
     1 H1I         1

