### 
### Created by X-TOOL on Mon Sep 10 21:13:14 2018
### 

@<TRIPOS>MOLECULE
3zki_ligand
   52    54     1     0     0
SMALL
GAST_HUCK


@<TRIPOS>ATOM
      1 F30       -12.2870    0.2780  -32.4460 F         1 WZV        -0.1678
      2 C28       -13.0910    0.6520  -31.4880 C.3       1 WZV         0.4176
      3 F31       -12.6420    1.7810  -30.9620 F         1 WZV        -0.1678
      4 F29       -13.1260   -0.3250  -30.5980 F         1 WZV        -0.1678
      5 C27       -14.4820    0.8780  -32.0760 C.3       1 WZV         0.1681
      6 O26       -14.4700    2.0860  -32.8230 O.3       1 WZV        -0.2979
      7 C18       -15.6010    2.6330  -33.3430 C.ar      1 WZV         0.1249
      8 C23       -15.4840    3.4910  -34.4350 C.ar      1 WZV         0.0460
      9 N22       -16.5890    4.0620  -34.9610 N.ar      1 WZV        -0.2856
     10 C19       -16.8580    2.3520  -32.7900 C.ar      1 WZV        -0.0074
     11 C20       -17.9910    2.9540  -33.3470 C.ar      1 WZV        -0.0223
     12 C21       -17.8360    3.8010  -34.4510 C.ar      1 WZV         0.1167
     13 C24       -19.0410    4.4370  -35.0940 C.2       1 WZV         0.2432
     14 O25       -20.1190    4.3860  -34.5310 O.2       1 WZV        -0.3725
     15 N13       -18.8480    4.9950  -36.2990 N.am      1 WZV        -0.2270
     16 C7        -19.7510    5.6730  -37.1120 C.ar      1 WZV         0.0947
     17 C12       -19.2240    6.2970  -38.2420 C.ar      1 WZV        -0.0158
     18 C8        -21.1000    5.7810  -36.8050 C.ar      1 WZV        -0.0111
     19 C9        -21.9200    6.4960  -37.6790 C.ar      1 WZV        -0.0434
     20 C10       -21.4070    7.1140  -38.8300 C.ar      1 WZV        -0.0485
     21 C11       -20.0500    7.0150  -39.1270 C.ar      1 WZV        -0.0145
     22 C1        -19.4830    7.6900  -40.3560 C.3       1 WZV         0.1127
     23 C2        -19.9530    7.0620  -41.6580 C.3       1 WZV         0.0606
     24 C3        -19.3270    5.6920  -41.7770 C.2       1 WZV         0.1758
     25 O16       -20.0150    4.7720  -42.1920 O.2       1 WZV        -0.3979
     26 C14       -19.9220    9.1370  -40.2630 C.3       1 WZV        -0.0393
     27 N6        -18.0410    7.5860  -40.3510 N.pl3     1 WZV        -0.2669
     28 C5        -17.4110    6.5950  -40.8130 C.cat     1 WZV         0.3229
     29 N15       -16.1680    6.6270  -40.6980 N.pl3     1 WZV        -0.2547
     30 N4        -18.0310    5.5380  -41.4080 N.am      1 WZV        -0.2142
     31 C17       -17.3370    4.2690  -41.6440 C.3       1 WZV         0.0243
     32 H1        -15.2197    0.9527  -31.2635 H         1 WZV         0.0709
     33 H2        -14.7462    0.0379  -32.7351 H         1 WZV         0.0709
     34 H3        -14.5091    3.6994  -34.8608 H         1 WZV         0.0771
     35 H4        -16.9504    1.6795  -31.9449 H         1 WZV         0.0674
     36 H5        -18.9742    2.7676  -32.9302 H         1 WZV         0.0732
     37 H6        -17.9214    4.9115  -36.6656 H         1 WZV         0.2255
     38 H7        -18.1609    6.2280  -38.4422 H         1 WZV         0.0711
     39 H8        -21.5058    5.3224  -35.9105 H         1 WZV         0.0760
     40 H9        -22.9794    6.5761  -37.4636 H         1 WZV         0.0664
     41 H10       -22.0669    7.6682  -39.4876 H         1 WZV         0.0740
     42 H11       -19.6413    7.6883  -42.5069 H         1 WZV         0.0454
     43 H12       -21.0492    6.9708  -41.6526 H         1 WZV         0.0454
     44 H13       -19.5698    9.5667  -39.3136 H         1 WZV         0.0182
     45 H14       -21.0199    9.1905  -40.3047 H         1 WZV         0.0182
     46 H15       -19.4950    9.7045  -41.1030 H         1 WZV         0.0182
     47 H16       -17.4982    8.3633  -39.9483 H         1 WZV         0.3124
     48 H17       -15.7132    7.4329  -40.2457 H         1 WZV         0.3198
     49 H18       -15.5975    5.8475  -41.0554 H         1 WZV         0.3198
     50 H19       -18.0230    3.5613  -42.1325 H         1 WZV         0.0483
     51 H20       -17.0012    3.8506  -40.6837 H         1 WZV         0.0483
     52 H21       -16.4660    4.4426  -42.2930 H         1 WZV         0.0483
@<TRIPOS>BOND
     1    1    2 1  
     2    2    3 1  
     3    2    4 1  
     4    2    5 1  
     5    5    6 1  
     6    6    7 1  
     7    7    8 ar 
     8    7   10 ar 
     9    8    9 ar 
    10    9   12 ar 
    11   10   11 ar 
    12   11   12 ar 
    13   12   13 1  
    14   13   14 2  
    15   13   15 am 
    16   15   16 1  
    17   16   17 ar 
    18   16   18 ar 
    19   17   21 ar 
    20   18   19 ar 
    21   19   20 ar 
    22   20   21 ar 
    23   21   22 1  
    24   22   23 1  
    25   22   26 1  
    26   22   27 1  
    27   23   24 1  
    28   24   25 2  
    29   24   30 am 
    30   27   28 ar 
    31   28   29 ar 
    32   28   30 ar 
    33   30   31 1  
    34    5   32 1  
    35    5   33 1  
    36    8   34 1  
    37   10   35 1  
    38   11   36 1  
    39   15   37 1  
    40   17   38 1  
    41   18   39 1  
    42   19   40 1  
    43   20   41 1  
    44   23   42 1  
    45   23   43 1  
    46   26   44 1  
    47   26   45 1  
    48   26   46 1  
    49   27   47 1  
    50   29   48 1  
    51   29   49 1  
    52   31   50 1  
    53   31   51 1  
    54   31   52 1  
@<TRIPOS>SUBSTRUCTURE
     1 WZV         1

