### 
### Created by X-TOOL on Mon Sep 10 21:13:14 2018
### 

@<TRIPOS>MOLECULE
3zll_ligand
   28    29     1     0     0
SMALL
GAST_HUCK


@<TRIPOS>ATOM
      1 C          36.8260    4.0340   10.0790 C.2       1 4WF         0.2173
      2 N          34.9260    2.8040    9.3610 N.pl3     1 4WF        -0.3690
      3 O          36.4190    5.1200    9.3640 O.3       1 4WF        -0.3089
      4 CA         36.0620    2.8560   10.0780 C.2       1 4WF         0.1211
      5 CB         36.4740    1.7350   10.8140 C.2       1 4WF         0.1973
      6 OAC        39.4980    3.0930   12.1980 O.2       1 4WF        -0.3864
      7 CAE        38.1930    8.4900   13.6930 C.ar      1 4WF        -0.0687
      8 CAF        37.6640    7.2250   13.9270 C.ar      1 4WF        -0.0685
      9 CAG        38.9290    8.7370   12.5400 C.ar      1 4WF        -0.0685
     10 CAH        37.8580    6.1920   13.0120 C.ar      1 4WF        -0.0579
     11 CAI        39.1180    7.6990   11.6310 C.ar      1 4WF        -0.0579
     12 CA0        38.4530    3.0040   11.5530 C.2       1 4WF         0.3236
     13 CAJ        38.8430    5.3560   10.8050 C.3       1 4WF         0.0955
     14 NAL        38.0170    4.1250   10.8300 N.am      1 4WF        -0.1611
     15 OAN        35.8010    0.6850   10.8050 O.2       1 4WF        -0.4191
     16 NAB        37.6850    1.8160   11.5510 N.am      1 4WF        -0.1895
     17 CAQ        38.5830    6.4290   11.8580 C.ar      1 4WF        -0.0144
     18 H1         34.6207    3.6253    8.8195 H         1 4WF         0.1492
     19 H2         34.3609    1.9429    9.3531 H         1 4WF         0.1492
     20 H3         35.6090    4.9148    8.9121 H         1 4WF         0.2527
     21 H4         38.0309    9.2852   14.4116 H         1 4WF         0.0559
     22 H5         37.0947    7.0407   14.8309 H         1 4WF         0.0599
     23 H6         39.3479    9.7189   12.3519 H         1 4WF         0.0599
     24 H7         37.4434    5.2089   13.2034 H         1 4WF         0.0557
     25 H8         39.6918    7.8803   10.7293 H         1 4WF         0.0557
     26 H9         38.6971    5.8250    9.8208 H         1 4WF         0.0761
     27 H10        39.8927    5.0448   10.9109 H         1 4WF         0.0761
     28 H11        37.9986    1.0240   12.0748 H         1 4WF         0.2247
@<TRIPOS>BOND
     1    1    3 1  
     2    1    4 2  
     3   14    1 1  
     4    4    2 1  
     5    4    5 1  
     6    5   15 2  
     7   16    5 am 
     8   12    6 2  
     9    8    7 ar 
    10    9    7 ar 
    11   10    8 ar 
    12   11    9 ar 
    13   17   10 ar 
    14   17   11 ar 
    15   14   12 am 
    16   12   16 am 
    17   13   14 1  
    18   13   17 1  
    19    2   18 1  
    20    2   19 1  
    21    3   20 1  
    22    7   21 1  
    23    8   22 1  
    24    9   23 1  
    25   10   24 1  
    26   11   25 1  
    27   13   26 1  
    28   13   27 1  
    29   16   28 1  
@<TRIPOS>SUBSTRUCTURE
     1 4WF         1

