### 
### Created by X-TOOL on Mon Sep 10 21:13:14 2018
### 

@<TRIPOS>MOLECULE
3zlo_ligand
   62    67     1     0     0
SMALL
GAST_HUCK


@<TRIPOS>ATOM
      1 O2          8.7650  -31.1510    6.8190 O.co2     1 X8U        -0.5692
      2 C20         9.3840  -32.2090    6.5020 C.2       1 X8U         0.0528
      3 O1          8.9180  -32.9600    5.6190 O.co2     1 X8U        -0.5692
      4 C19        10.6860  -32.6750    7.1060 C.2       1 X8U         0.0578
      5 N4         11.2810  -33.8560    6.7660 N.2       1 X8U        -0.3086
      6 C21        11.4020  -31.9310    8.0640 C.2       1 X8U         0.0541
      7 C22        11.0520  -30.6070    8.6790 C.3       1 X8U         0.0020
      8 C23        10.6100  -30.8470   10.1190 C.3       1 X8U        -0.0375
      9 C24         9.9610  -29.5800   10.6550 C.3       1 X8U        -0.0409
     10 C25        10.9550  -28.4360   10.5340 C.3       1 X8U        -0.0190
     11 C26        10.4910  -27.1580   11.2200 C.ar      1 X8U        -0.0430
     12 C31        10.4450  -27.0840   12.6120 C.ar      1 X8U        -0.0603
     13 C30        10.0160  -25.9030   13.2200 C.ar      1 X8U        -0.0686
     14 C29         9.6510  -24.8010   12.4500 C.ar      1 X8U        -0.0687
     15 C28         9.7000  -24.8720   11.0590 C.ar      1 X8U        -0.0686
     16 C27        10.1220  -26.0540   10.4490 C.ar      1 X8U        -0.0603
     17 S2         12.8500  -32.7850    8.5250 S.3       1 X8U         0.0101
     18 C18        12.4450  -34.0800    7.4360 C.2       1 X8U         0.1104
     19 C15        13.4040  -35.1170    7.1980 C.ar      1 X8U         0.0169
     20 C16        13.3440  -35.8120    6.0040 C.ar      1 X8U        -0.0470
     21 C17        14.2550  -36.8280    5.7420 C.ar      1 X8U        -0.0493
     22 C12        15.2420  -37.1510    6.6620 C.ar      1 X8U        -0.0076
     23 C11        16.2260  -38.2580    6.3250 C.ar      1 X8U        -0.0447
     24 C10        16.6510  -39.0450    7.5620 C.ar      1 X8U        -0.0488
     25 C9         17.1500  -38.1490    8.6900 C.ar      1 X8U        -0.0255
     26 C14        14.3980  -35.4330    8.1310 C.ar      1 X8U        -0.0370
     27 C13        15.3120  -36.4630    7.8690 C.ar      1 X8U         0.0152
     28 C8         16.4220  -36.8230    8.8110 C.ar      1 X8U         0.0948
     29 N3         16.8080  -36.0010    9.6820 N.2       1 X8U        -0.1616
     30 N2         17.8100  -36.2560   10.5090 N.2       1 X8U        -0.1325
     31 C7         18.3820  -35.2210   11.1660 C.2       1 X8U         0.2111
     32 S1         17.9650  -33.5530   10.8620 S.3       1 X8U         0.0225
     33 C4         19.0920  -33.1100   12.0460 C.ar      1 X8U         0.0603
     34 C3         19.4150  -31.8270   12.4790 C.ar      1 X8U        -0.0453
     35 C2         20.3710  -31.6950   13.4820 C.ar      1 X8U        -0.0679
     36 N1         19.2590  -35.4410   12.0550 N.2       1 X8U        -0.2706
     37 C5         19.7000  -34.2400   12.6000 C.ar      1 X8U         0.0437
     38 C6         20.6560  -34.0870   13.6080 C.ar      1 X8U        -0.0508
     39 C1         20.9900  -32.8130   14.0440 C.ar      1 X8U        -0.0681
     40 H1         10.2336  -30.1388    8.1124 H         1 X8U         0.0485
     41 H2         11.9318  -29.9469    8.6656 H         1 X8U         0.0485
     42 H3         11.4843  -31.1028   10.7355 H         1 X8U         0.0295
     43 H4          9.8853  -31.6739   10.1495 H         1 X8U         0.0295
     44 H5          9.6869  -29.7223   11.7107 H         1 X8U         0.0289
     45 H6          9.0586  -29.3499   10.0696 H         1 X8U         0.0289
     46 H7         11.1121  -28.2217    9.4666 H         1 X8U         0.0426
     47 H8         11.9060  -28.7505   10.9887 H         1 X8U         0.0426
     48 H9         10.7394  -27.9349   13.2156 H         1 X8U         0.0557
     49 H10         9.9664  -25.8429   14.3012 H         1 X8U         0.0599
     50 H11         9.3282  -23.8862   12.9338 H         1 X8U         0.0559
     51 H12         9.4131  -24.0175   10.4569 H         1 X8U         0.0599
     52 H13        10.1637  -26.1156    9.3675 H         1 X8U         0.0557
     53 H14        12.5849  -35.5638    5.2711 H         1 X8U         0.0640
     54 H15        14.1938  -37.3746    4.8079 H         1 X8U         0.0643
     55 H16        16.5845  -38.4649    5.3232 H         1 X8U         0.0703
     56 H17        16.6031  -40.1257    7.6310 H         1 X8U         0.0646
     57 H18        17.9591  -38.4358    9.3519 H         1 X8U         0.0722
     58 H19        14.4614  -34.8788    9.0605 H         1 X8U         0.0651
     59 H20        18.9357  -30.9557   12.0474 H         1 X8U         0.0575
     60 H21        20.6400  -30.7054   13.8334 H         1 X8U         0.0587
     61 H22        21.1326  -34.9567   14.0456 H         1 X8U         0.0595
     62 H23        21.7332  -32.6854   14.8227 H         1 X8U         0.0566
@<TRIPOS>BOND
     1    1    2 ar 
     2    2    3 ar 
     3    2    4 1  
     4    4    5 1  
     5    4    6 2  
     6    5   18 2  
     7    6    7 1  
     8    6   17 1  
     9    7    8 1  
    10    8    9 1  
    11    9   10 1  
    12   10   11 1  
    13   11   12 ar 
    14   11   16 ar 
    15   12   13 ar 
    16   13   14 ar 
    17   14   15 ar 
    18   15   16 ar 
    19   17   18 1  
    20   18   19 1  
    21   19   20 ar 
    22   19   26 ar 
    23   20   21 ar 
    24   21   22 ar 
    25   22   23 ar 
    26   22   27 ar 
    27   23   24 ar 
    28   24   25 ar 
    29   25   28 ar 
    30   26   27 ar 
    31   27   28 ar 
    32   28   29 1  
    33   29   30 2  
    34   30   31 1  
    35   31   32 1  
    36   31   36 2  
    37   32   33 1  
    38   33   34 ar 
    39   33   37 ar 
    40   34   35 ar 
    41   35   39 ar 
    42   36   37 1  
    43   37   38 ar 
    44   38   39 ar 
    45    7   40 1  
    46    7   41 1  
    47    8   42 1  
    48    8   43 1  
    49    9   44 1  
    50    9   45 1  
    51   10   46 1  
    52   10   47 1  
    53   12   48 1  
    54   13   49 1  
    55   14   50 1  
    56   15   51 1  
    57   16   52 1  
    58   20   53 1  
    59   21   54 1  
    60   23   55 1  
    61   24   56 1  
    62   25   57 1  
    63   26   58 1  
    64   34   59 1  
    65   35   60 1  
    66   38   61 1  
    67   39   62 1  
@<TRIPOS>SUBSTRUCTURE
     1 X8U         1

