### 
### Created by X-TOOL on Mon Sep 10 21:13:15 2018
### 

@<TRIPOS>MOLECULE
3zlq_ligand
   49    51     1     0     0
SMALL
GAST_HUCK


@<TRIPOS>ATOM
      1 C1          3.9690  -24.1610   15.7570 C.3       1 6T9         0.1083
      2 C2          4.6600  -25.2650   16.6170 C.3       1 6T9         0.2930
      3 O3          2.5310  -24.1490   15.9220 O.3       1 6T9        -0.3167
      4 C4          2.0350  -24.6660   17.0920 C.cat     1 6T9         0.3457
      5 N5          2.7510  -25.1440   18.0750 N.pl3     1 6T9        -0.2638
      6 C6          4.2230  -25.2100   18.0900 C.3       1 6T9         0.1595
      7 C7          4.8380  -23.9650   18.7130 C.ar      1 6T9         0.0222
      8 C8          3.9890  -22.9280   18.9110 C.ar      1 6T9        -0.0185
      9 C9          4.4530  -21.7610   19.4530 C.ar      1 6T9         0.0907
     10 C10         5.7910  -21.6230   19.7640 C.ar      1 6T9        -0.0113
     11 C11         6.6720  -22.6650   19.5320 C.ar      1 6T9        -0.0062
     12 C12         6.1830  -23.8380   19.0140 C.ar      1 6T9         0.1529
     13 F13         7.0310  -24.8760   18.7830 F         1 6T9        -0.1644
     14 N14         0.6890  -24.6870   17.1950 N.pl3     1 6T9        -0.2512
     15 C15         4.7160  -26.4610   18.8330 C.3       1 6T9        -0.0386
     16 N16         3.4960  -20.7780   19.6230 N.am      1 6T9        -0.2289
     17 C17         3.9080  -19.6150   20.0650 C.2       1 6T9         0.2425
     18 C18         2.9280  -18.5500   20.1940 C.ar      1 6T9         0.1165
     19 O19         5.0650  -19.4470   20.2630 O.2       1 6T9        -0.3729
     20 N20         1.6490  -18.9340   20.2130 N.ar      1 6T9        -0.2856
     21 C21         0.6790  -18.0750   20.3080 C.ar      1 6T9         0.0460
     22 C22         1.0250  -16.7270   20.3880 C.ar      1 6T9         0.1245
     23 C23         2.3290  -16.2970   20.3510 C.ar      1 6T9        -0.0074
     24 C24         3.3430  -17.2300   20.2440 C.ar      1 6T9        -0.0224
     25 O25         0.0420  -15.8290   20.4320 O.3       1 6T9        -0.3071
     26 F26         4.3070  -26.5660   16.2630 F         1 6T9        -0.2089
     27 F27         6.0310  -24.9890   16.4810 F         1 6T9        -0.2089
     28 C28        -1.1980  -16.2370   19.8920 C.3       1 6T9         0.0706
     29 C29        -2.2520  -16.4410   20.9700 C.3       1 6T9        -0.0367
     30 H1          4.2009  -24.3427   14.6972 H         1 6T9         0.0607
     31 H2          4.3666  -23.1801   16.0565 H         1 6T9         0.0607
     32 H3          2.2493  -25.5011   18.9006 H         1 6T9         0.3118
     33 H4          2.9436  -23.0229   18.6403 H         1 6T9         0.0676
     34 H5          6.1530  -20.6950   20.1915 H         1 6T9         0.0762
     35 H6          7.7273  -22.5567   19.7550 H         1 6T9         0.0657
     36 H7          0.2433  -25.0610   18.0449 H         1 6T9         0.3201
     37 H8          0.1078  -24.3291   16.4236 H         1 6T9         0.3201
     38 H9          4.3983  -26.4117   19.8850 H         1 6T9         0.0173
     39 H10         5.8139  -26.5081   18.7834 H         1 6T9         0.0173
     40 H11         4.2888  -27.3590   18.3627 H         1 6T9         0.0173
     41 H12         2.5320  -20.9468   19.4178 H         1 6T9         0.2246
     42 H13        -0.3570  -18.3935   20.3244 H         1 6T9         0.0771
     43 H14         2.5599  -15.2392   20.4050 H         1 6T9         0.0674
     44 H15         4.3889  -16.9484   20.2022 H         1 6T9         0.0732
     45 H16        -1.0552  -17.1845   19.3518 H         1 6T9         0.0616
     46 H17        -1.5512  -15.4654   19.1921 H         1 6T9         0.0616
     47 H18        -3.1969  -16.7570   20.5038 H         1 6T9         0.0256
     48 H19        -2.4087  -15.4973   21.5129 H         1 6T9         0.0256
     49 H20        -1.9126  -17.2163   21.6726 H         1 6T9         0.0256
@<TRIPOS>BOND
     1    1    2 1  
     2    1    3 1  
     3    2    6 1  
     4    2   26 1  
     5    2   27 1  
     6    3    4 1  
     7    4    5 ar 
     8    4   14 ar 
     9    5    6 1  
    10    6    7 1  
    11    6   15 1  
    12    7    8 ar 
    13    7   12 ar 
    14    8    9 ar 
    15    9   10 ar 
    16    9   16 1  
    17   10   11 ar 
    18   11   12 ar 
    19   12   13 1  
    20   16   17 am 
    21   17   18 1  
    22   17   19 2  
    23   18   20 ar 
    24   18   24 ar 
    25   20   21 ar 
    26   21   22 ar 
    27   22   23 ar 
    28   22   25 1  
    29   23   24 ar 
    30   25   28 1  
    31   28   29 1  
    32    1   30 1  
    33    1   31 1  
    34    5   32 1  
    35    8   33 1  
    36   10   34 1  
    37   11   35 1  
    38   14   36 1  
    39   14   37 1  
    40   15   38 1  
    41   15   39 1  
    42   15   40 1  
    43   16   41 1  
    44   21   42 1  
    45   23   43 1  
    46   24   44 1  
    47   28   45 1  
    48   28   46 1  
    49   29   47 1  
    50   29   48 1  
    51   29   49 1  
@<TRIPOS>SUBSTRUCTURE
     1 6T9         1

