### 
### Created by X-TOOL on Mon Sep 10 21:13:12 2018
### 

@<TRIPOS>MOLECULE
3zlr_ligand
   70    75     1     0     0
SMALL
GAST_HUCK


@<TRIPOS>ATOM
      1 O1        -14.2260  -18.1680  -47.1010 O.co2     1 X0B        -0.5694
      2 C19       -14.1850  -17.0040  -47.5570 C.2       1 X0B         0.0514
      3 O         -13.2320  -16.5780  -48.2490 O.co2     1 X0B        -0.5694
      4 C18       -15.3460  -16.1480  -47.2150 C.2       1 X0B         0.0531
      5 N3        -16.5280  -16.6380  -46.7930 N.2       1 X0B        -0.3141
      6 C20       -15.3110  -14.7540  -47.2660 C.2       1 X0B         0.0509
      7 C21       -14.2380  -13.7680  -47.6800 C.3       1 X0B         0.0028
      8 C22       -14.3280  -13.5970  -49.2060 C.3       1 X0B        -0.0120
      9 C23       -13.0080  -13.1710  -49.8490 C.3       1 X0B         0.0712
     10 O24       -12.5890  -11.9130  -49.2920 O.3       1 X0B        -0.3222
     11 C25       -11.4300  -11.3080  -49.7060 C.ar      1 X0B         0.0840
     12 C30       -11.1000  -10.0490  -49.2100 C.ar      1 X0B        -0.0394
     13 C29        -9.9220   -9.4330  -49.6190 C.ar      1 X0B        -0.0637
     14 C28        -9.0740  -10.0690  -50.5240 C.ar      1 X0B        -0.0095
     15 C31        -7.7880   -9.3970  -50.9680 C.3       1 X0B        -0.0065
     16 N4         -7.1660  -10.1790  -52.0240 N.4       1 X0B         0.2294
     17 C27        -9.4040  -11.3270  -51.0180 C.ar      1 X0B        -0.0637
     18 C26       -10.5810  -11.9550  -50.6020 C.ar      1 X0B        -0.0394
     19 S1        -16.8270  -14.0470  -46.7680 S.3       1 X0B         0.0067
     20 C17       -17.4330  -15.6750  -46.5220 C.2       1 X0B         0.1040
     21 C14       -18.7370  -15.8530  -46.0690 C.ar      1 X0B         0.0101
     22 C15       -19.0530  -17.0980  -45.5100 C.ar      1 X0B        -0.0539
     23 C16       -20.3440  -17.3430  -45.0450 C.ar      1 X0B        -0.0547
     24 C11       -21.3130  -16.3560  -45.1410 C.ar      1 X0B        -0.0278
     25 C10       -22.7200  -16.6030  -44.6420 C.3       1 X0B        -0.0138
     26 C9        -23.6980  -15.9710  -45.6360 C.3       1 X0B        -0.0308
     27 C8        -23.5380  -14.4510  -45.6970 C.3       1 X0B        -0.0022
     28 C13       -19.7080  -14.8580  -46.1530 C.ar      1 X0B        -0.0438
     29 C12       -20.9990  -15.1200  -45.6910 C.ar      1 X0B         0.0054
     30 C7        -22.0730  -14.0700  -45.7690 C.2       1 X0B         0.0489
     31 N2        -21.7840  -12.8400  -45.8920 N.2       1 X0B        -0.2040
     32 N1        -22.7340  -11.9080  -45.9490 N.pl3     1 X0B        -0.1848
     33 C6        -22.3620  -10.6230  -45.7310 C.2       1 X0B         0.2135
     34 S         -20.7050  -10.2520  -45.3620 S.3       1 X0B         0.0313
     35 C3        -21.2620   -8.6490  -45.3060 C.ar      1 X0B         0.0496
     36 C2        -20.3840   -7.6060  -45.0290 C.ar      1 X0B        -0.0530
     37 C1        -20.8720   -6.3030  -44.9860 C.ar      1 X0B        -0.0745
     38 N         -23.2460   -9.5980  -45.8020 N.2       1 X0B        -0.3027
     39 C4        -22.6110   -8.4100  -45.5560 C.ar      1 X0B         0.0118
     40 C5        -23.0950   -7.1030  -45.5180 C.ar      1 X0B        -0.0629
     41 C         -22.2230   -6.0510  -45.2350 C.ar      1 X0B        -0.0755
     42 H1        -13.2461  -14.1550  -47.4037 H         1 X0B         0.0479
     43 H2        -14.4056  -12.8008  -47.1836 H         1 X0B         0.0479
     44 H3        -15.0863  -12.8313  -49.4268 H         1 X0B         0.0319
     45 H4        -14.6366  -14.5565  -49.6466 H         1 X0B         0.0319
     46 H5        -13.1467  -13.0634  -50.9349 H         1 X0B         0.0613
     47 H6        -12.2405  -13.9337  -49.6511 H         1 X0B         0.0613
     48 H7        -11.7589   -9.5511  -48.5078 H         1 X0B         0.0525
     49 H8         -9.6623   -8.4542  -49.2323 H         1 X0B         0.0532
     50 H9         -7.0995   -9.3240  -50.1132 H         1 X0B         0.0957
     51 H10        -8.0135   -8.3883  -51.3444 H         1 X0B         0.0957
     52 H11        -6.3123   -9.7298  -52.3164 H         1 X0B         0.2006
     53 H12        -7.7959  -10.2460  -52.8080 H         1 X0B         0.2006
     54 H13        -6.9584  -11.1034  -51.6798 H         1 X0B         0.2006
     55 H14        -8.7478  -11.8203  -51.7259 H         1 X0B         0.0532
     56 H15       -10.8326  -12.9413  -50.9747 H         1 X0B         0.0525
     57 H16       -18.2949  -17.8695  -45.4392 H         1 X0B         0.0633
     58 H17       -20.5902  -18.3043  -44.6087 H         1 X0B         0.0567
     59 H18       -22.8492  -16.1450  -43.6503 H         1 X0B         0.0445
     60 H19       -22.9062  -17.6849  -44.5733 H         1 X0B         0.0445
     61 H20       -24.7260  -16.2092  -45.3254 H         1 X0B         0.0313
     62 H21       -23.5107  -16.3897  -46.6358 H         1 X0B         0.0313
     63 H22       -23.9835  -14.0044  -44.7959 H         1 X0B         0.0448
     64 H23       -24.0549  -14.0688  -46.5896 H         1 X0B         0.0448
     65 H24       -19.4635  -13.8891  -46.5732 H         1 X0B         0.0639
     66 H25       -23.7135  -12.1543  -46.1510 H         1 X0B         0.2403
     67 H26       -19.3338   -7.8053  -44.8490 H         1 X0B         0.0557
     68 H27       -20.2018   -5.4819  -44.7587 H         1 X0B         0.0534
     69 H28       -24.1438   -6.9050  -45.7074 H         1 X0B         0.0537
     70 H29       -22.5959   -5.0335  -45.2083 H         1 X0B         0.0546
@<TRIPOS>BOND
     1    1    2 ar 
     2    2    3 ar 
     3    2    4 1  
     4    4    5 1  
     5    4    6 2  
     6    5   20 2  
     7    6    7 1  
     8    6   19 1  
     9    7    8 1  
    10    8    9 1  
    11    9   10 1  
    12   10   11 1  
    13   11   12 ar 
    14   11   18 ar 
    15   12   13 ar 
    16   13   14 ar 
    17   14   15 1  
    18   14   17 ar 
    19   15   16 1  
    20   17   18 ar 
    21   19   20 1  
    22   20   21 1  
    23   21   22 ar 
    24   21   28 ar 
    25   22   23 ar 
    26   23   24 ar 
    27   24   25 1  
    28   24   29 ar 
    29   25   26 1  
    30   26   27 1  
    31   27   30 1  
    32   28   29 ar 
    33   29   30 1  
    34   30   31 2  
    35   31   32 1  
    36   32   33 1  
    37   33   34 1  
    38   33   38 2  
    39   34   35 1  
    40   35   36 ar 
    41   35   39 ar 
    42   36   37 ar 
    43   37   41 ar 
    44   38   39 1  
    45   39   40 ar 
    46   40   41 ar 
    47    7   42 1  
    48    7   43 1  
    49    8   44 1  
    50    8   45 1  
    51    9   46 1  
    52    9   47 1  
    53   12   48 1  
    54   13   49 1  
    55   15   50 1  
    56   15   51 1  
    57   16   52 1  
    58   16   53 1  
    59   16   54 1  
    60   17   55 1  
    61   18   56 1  
    62   22   57 1  
    63   23   58 1  
    64   25   59 1  
    65   25   60 1  
    66   26   61 1  
    67   26   62 1  
    68   27   63 1  
    69   27   64 1  
    70   28   65 1  
    71   32   66 1  
    72   36   67 1  
    73   37   68 1  
    74   40   69 1  
    75   41   70 1  
@<TRIPOS>SUBSTRUCTURE
     1 X0B         1

