### 
### Created by X-TOOL on Mon Sep 10 21:13:14 2018
### 

@<TRIPOS>MOLECULE
3zls_ligand
   21    22     1     0     0
SMALL
GAST_HUCK


@<TRIPOS>ATOM
      1 C1        -20.8130   26.5030   -3.0130 C.ar      1 92P        -0.0502
      2 C2        -22.0960   27.0270   -2.9910 C.ar      1 92P        -0.0050
      3 N3        -22.3640   28.3400   -2.8990 N.ar      1 92P        -0.2846
      4 C4        -19.7350   27.3720   -2.9290 C.ar      1 92P        -0.0535
      5 N5        -21.3460   30.5430   -2.7430 N.pl3     1 92P        -0.2550
      6 C6        -20.0550   30.9960   -2.7100 C.2       1 92P         0.0565
      7 C7        -19.1760   29.9330   -2.7550 C.2       1 92P         0.0705
      8 C8        -19.9890   28.7380   -2.8200 C.ar      1 92P         0.0202
      9 C9        -21.3130   29.1800   -2.8090 C.ar      1 92P         0.1414
     10 C10       -17.6920   29.9480   -2.7900 C.2       1 92P         0.2375
     11 O11       -16.9990   28.9590   -2.8270 O.2       1 92P        -0.3756
     12 O12       -17.2110   31.1930   -2.8010 O.3       1 92P        -0.2862
     13 C13       -15.7750   31.3290   -2.6990 C.3       1 92P         0.0639
     14 H1        -20.6549   25.4337   -3.0944 H         1 92P         0.0604
     15 H2        -22.9306   26.3380   -3.0515 H         1 92P         0.0750
     16 H3        -18.7181   26.9971   -2.9477 H         1 92P         0.0669
     17 H4        -22.1936   31.1278   -2.7218 H         1 92P         0.2358
     18 H5        -19.7634   32.0439   -2.6560 H         1 92P         0.1099
     19 H6        -15.5054   32.3953   -2.7190 H         1 92P         0.0574
     20 H7        -15.2969   30.8140   -3.5452 H         1 92P         0.0574
     21 H8        -15.4304   30.8814   -1.7552 H         1 92P         0.0574
@<TRIPOS>BOND
     1    2    1 ar 
     2    1    4 ar 
     3    3    2 ar 
     4    9    3 ar 
     5    4    8 ar 
     6    5    6 1  
     7    5    9 1  
     8    6    7 2  
     9    7    8 1  
    10    7   10 1  
    11    8    9 ar 
    12   10   11 2  
    13   10   12 1  
    14   12   13 1  
    15    1   14 1  
    16    2   15 1  
    17    4   16 1  
    18    5   17 1  
    19    6   18 1  
    20   13   19 1  
    21   13   20 1  
    22   13   21 1  
@<TRIPOS>SUBSTRUCTURE
     1 92P         1

