### 
### Created by X-TOOL on Mon Sep 10 21:13:13 2018
### 

@<TRIPOS>MOLECULE
3zlv_ligand
   23    23     1     0     0
SMALL
GAST_HUCK


@<TRIPOS>ATOM
      1 O3         38.0160   19.1120    9.8320 O.2       1 HI6        -0.2094
      2 C14        38.0310   20.2490   10.2740 C.2       1 HI6         0.4031
      3 N4         39.0650   20.6880   10.9880 N.am      1 HI6        -0.1963
      4 C11        36.8650   21.1730   10.0470 C.ar      1 HI6         0.1356
      5 C10        36.7570   22.3330   10.7990 C.ar      1 HI6         0.0036
      6 C9         35.6810   23.1910   10.5970 C.ar      1 HI6         0.0142
      7 N3         34.7370   22.9020    9.6910 N.ar      1 HI6        -0.3316
      8 C13        34.8180   21.7830    8.9480 C.ar      1 HI6         0.0142
      9 C12        35.8810   20.8920    9.1060 C.ar      1 HI6         0.0036
     10 C8         33.6160   23.8350    9.5210 C.3       1 HI6         0.1146
     11 O2         32.3970   23.0990    9.6350 O.3       1 HI6        -0.3652
     12 C7         31.2530   23.9200    9.8780 C.3       1 HI6         0.0384
     13 H1         39.0656   21.6221   11.3449 H         1 HI6         0.3630
     14 H2         39.8413   20.0837   11.1675 H         1 HI6         0.3630
     15 H3         37.5093   22.5706   11.5425 H         1 HI6         0.0837
     16 H4         35.6054   24.1027   11.1784 H         1 HI6         0.0862
     17 H5         34.0469   21.5704    8.2164 H         1 HI6         0.0862
     18 H6         35.9384   19.9930    8.5030 H         1 HI6         0.0837
     19 H7         33.6732   24.3081    8.5296 H         1 HI6         0.0761
     20 H8         33.6563   24.6104   10.3002 H         1 HI6         0.0761
     21 H9         30.3567   23.2868    9.9535 H         1 HI6         0.0524
     22 H10        31.1299   24.6322    9.0488 H         1 HI6         0.0524
     23 H11        31.3916   24.4729   10.8188 H         1 HI6         0.0524
@<TRIPOS>BOND
     1    1    2 2  
     2    2    3 am 
     3    2    4 1  
     4    4    5 ar 
     5    4    9 ar 
     6    5    6 ar 
     7    6    7 ar 
     8    7    8 ar 
     9    7   10 1  
    10    8    9 ar 
    11   10   11 1  
    12   11   12 1  
    13    3   13 1  
    14    3   14 1  
    15    5   15 1  
    16    6   16 1  
    17    8   17 1  
    18    9   18 1  
    19   10   19 1  
    20   10   20 1  
    21   12   21 1  
    22   12   22 1  
    23   12   23 1  
@<TRIPOS>SUBSTRUCTURE
     1 HI6         1

