### 
### Created by X-TOOL on Mon Sep 10 21:13:14 2018
### 

@<TRIPOS>MOLECULE
3zlw_ligand
   31    33     1     0     0
SMALL
GAST_HUCK


@<TRIPOS>ATOM
      1 C1        -17.2690   29.3540   -3.0350 C.3       1 MT8         0.0356
      2 O1        -16.8550   29.5960   -1.7480 O.3       1 MT8        -0.4409
      3 C2        -18.4940   30.2360   -3.2510 C.3       1 MT8        -0.0323
      4 C3        -19.6990   29.7600   -2.4490 C.3       1 MT8         0.0601
      5 C6        -16.1080   29.7550   -3.9590 C.3       1 MT8        -0.0729
      6 N7        -20.1020   28.3910   -2.8250 N.am      1 MT8        -0.1946
      7 C8        -21.4240   28.0340   -2.8800 C.2       1 MT8         0.2258
      8 O8        -22.3440   28.8000   -2.5950 O.2       1 MT8        -0.3741
      9 C9        -21.7330   26.6230   -3.3000 C.3       1 MT8         0.0560
     10 C10       -20.6930   25.5980   -2.9400 C.3       1 MT8         0.0026
     11 C11       -19.2780   26.0680   -3.1640 C.ar      1 MT8         0.0165
     12 C12       -18.2440   25.1560   -3.3830 C.ar      1 MT8        -0.0451
     13 C13       -16.9280   25.5800   -3.5040 C.ar      1 MT8        -0.0561
     14 C14       -16.6120   26.9280   -3.3950 C.ar      1 MT8        -0.0592
     15 C15       -18.9760   27.4450   -3.0600 C.ar      1 MT8         0.1129
     16 C20       -17.6190   27.8650   -3.1680 C.ar      1 MT8        -0.0129
     17 H1        -16.0883   29.0681   -1.5586 H         1 MT8         0.1903
     18 H2        -18.7538   30.2247   -4.3198 H         1 MT8         0.0183
     19 H3        -18.2485   31.2634   -2.9441 H         1 MT8         0.0183
     20 H4        -20.5417   30.4425   -2.6337 H         1 MT8         0.0615
     21 H5        -19.4430   29.7745   -1.3793 H         1 MT8         0.0615
     22 H6        -16.3948   29.5778   -5.0061 H         1 MT8         0.0121
     23 H7        -15.2204   29.1528   -3.7151 H         1 MT8         0.0121
     24 H8        -15.8780   30.8213   -3.8172 H         1 MT8         0.0121
     25 H9        -21.8539   26.6136   -4.3933 H         1 MT8         0.0532
     26 H10       -22.6794   26.3272   -2.8238 H         1 MT8         0.0532
     27 H11       -20.8624   24.7007   -3.5534 H         1 MT8         0.0433
     28 H12       -20.8101   25.3427   -1.8765 H         1 MT8         0.0433
     29 H13       -18.4727   24.0992   -3.4598 H         1 MT8         0.0717
     30 H14       -16.1425   24.8551   -3.6846 H         1 MT8         0.0579
     31 H15       -15.5815   27.2518   -3.4865 H         1 MT8         0.0698
@<TRIPOS>BOND
     1    1    2 1  
     2    1    3 1  
     3    1    5 1  
     4    1   16 1  
     5    3    4 1  
     6    4    6 1  
     7    6    7 am 
     8    6   15 1  
     9    7    8 2  
    10    7    9 1  
    11    9   10 1  
    12   10   11 1  
    13   11   12 ar 
    14   11   15 ar 
    15   12   13 ar 
    16   13   14 ar 
    17   14   16 ar 
    18   15   16 ar 
    19    2   17 1  
    20    3   18 1  
    21    3   19 1  
    22    4   20 1  
    23    4   21 1  
    24    5   22 1  
    25    5   23 1  
    26    5   24 1  
    27    9   25 1  
    28    9   26 1  
    29   10   27 1  
    30   10   28 1  
    31   12   29 1  
    32   13   30 1  
    33   14   31 1  
@<TRIPOS>SUBSTRUCTURE
     1 MT8         1

