### 
### Created by X-TOOL on Mon Sep 10 21:13:15 2018
### 

@<TRIPOS>MOLECULE
3zlx_ligand
   39    41     1     0     0
SMALL
GAST_HUCK


@<TRIPOS>ATOM
      1 N1        -14.1690   23.0800   -4.4850 N.4       1 5EZ         0.2272
      2 C2        -15.4140   23.9130   -4.5070 C.3       1 5EZ        -0.0285
      3 C3        -13.0530   24.0640   -4.3720 C.3       1 5EZ        -0.0331
      4 C4        -15.1250   25.0650   -3.5010 C.3       1 5EZ         0.0275
      5 C5        -13.6420   25.3560   -3.7290 C.3       1 5EZ        -0.0028
      6 C6        -15.9810   26.2860   -3.7710 C.3       1 5EZ         0.0588
      7 O7        -17.2070   25.9850   -3.0950 O.3       1 5EZ        -0.3624
      8 C8        -20.8020   26.9370   -2.8900 C.2       1 5EZ        -0.0671
      9 C9        -19.5430   26.1450   -2.7100 C.3       1 5EZ         0.0854
     10 C11       -18.3750   26.7320   -3.4670 C.3       1 5EZ         0.1005
     11 C13       -18.2270   28.1830   -3.1140 C.2       1 5EZ        -0.0635
     12 C14       -20.6990   28.2640   -2.9350 C.2       1 5EZ        -0.0173
     13 C15       -19.3650   28.9500   -2.9700 C.2       1 5EZ        -0.0649
     14 C16       -19.3280   30.3680   -2.7360 C.2       1 5EZ        -0.0734
     15 C17       -20.4720   31.0810   -2.6400 C.2       1 5EZ         0.0036
     16 N18       -21.7660   30.5260   -2.7670 N.pl3     1 5EZ        -0.2913
     17 C19       -21.9410   29.1280   -3.0660 C.3       1 5EZ         0.1603
     18 O21       -22.9780   28.5220   -2.4240 O.3       1 5EZ        -0.3607
     19 CL2       -19.8050   24.4160   -3.2950 Cl        1 5EZ        -0.1039
     20 H1        -14.0852   22.5444   -5.3348 H         1 5EZ         0.2013
     21 H2        -14.1734   22.4559   -3.6935 H         1 5EZ         0.2013
     22 H3        -16.2836   23.3223   -4.1833 H         1 5EZ         0.0817
     23 H4        -15.5972   24.3131   -5.5151 H         1 5EZ         0.0817
     24 H5        -12.6475   24.2903   -5.3692 H         1 5EZ         0.0814
     25 H6        -12.2541   23.6565   -3.7351 H         1 5EZ         0.0814
     26 H7        -15.3003   24.7291   -2.4683 H         1 5EZ         0.0377
     27 H8        -13.5192   26.2127   -4.4080 H         1 5EZ         0.0322
     28 H9        -13.1420   25.5710   -2.7731 H         1 5EZ         0.0322
     29 H10       -16.1484   26.4191   -4.8500 H         1 5EZ         0.0567
     30 H11       -15.5155   27.1928   -3.3576 H         1 5EZ         0.0567
     31 H12       -21.7688   26.4441   -2.9810 H         1 5EZ         0.0461
     32 H13       -19.2944   26.1297   -1.6386 H         1 5EZ         0.0646
     33 H14       -18.5440   26.6388   -4.5499 H         1 5EZ         0.0779
     34 H15       -17.2404   28.6223   -2.9742 H         1 5EZ         0.0488
     35 H16       -18.3683   30.8727   -2.6351 H         1 5EZ         0.0255
     36 H17       -20.3920   32.1508   -2.4530 H         1 5EZ         0.0955
     37 H18       -22.5927   31.1280   -2.6444 H         1 5EZ         0.1881
     38 H19       -22.2019   29.1082   -4.1344 H         1 5EZ         0.0996
     39 H20       -23.0169   27.6081   -2.6801 H         1 5EZ         0.2149
@<TRIPOS>BOND
     1    2    1 1  
     2    3    1 1  
     3    4    2 1  
     4    5    3 1  
     5    4    5 1  
     6    6    4 1  
     7    7    6 1  
     8   10    7 1  
     9    9    8 1  
    10    8   12 2  
    11    9   10 1  
    12    9   19 1  
    13   10   11 1  
    14   11   13 2  
    15   12   13 1  
    16   12   17 1  
    17   13   14 1  
    18   14   15 2  
    19   15   16 1  
    20   16   17 1  
    21   17   18 1  
    22    1   20 1  
    23    1   21 1  
    24    2   22 1  
    25    2   23 1  
    26    3   24 1  
    27    3   25 1  
    28    4   26 1  
    29    5   27 1  
    30    5   28 1  
    31    6   29 1  
    32    6   30 1  
    33    8   31 1  
    34    9   32 1  
    35   10   33 1  
    36   11   34 1  
    37   14   35 1  
    38   15   36 1  
    39   16   37 1  
    40   17   38 1  
    41   18   39 1  
@<TRIPOS>SUBSTRUCTURE
     1 5EZ         1

