### 
### Created by X-TOOL on Mon Sep 10 21:13:14 2018
### 

@<TRIPOS>MOLECULE
3zly_ligand
   18    19     1     0     0
SMALL
GAST_HUCK


@<TRIPOS>ATOM
      1 CAK       -18.5080   26.5200   -3.1050 C.1       1 YSO         0.1022
      2 NAA       -18.2710   25.4210   -3.2890 N.1       1 YSO        -0.3283
      3 CAC       -18.7500   27.9220   -2.8960 C.ar      1 YSO         0.1185
      4 CAB       -17.6590   28.7860   -2.8010 C.ar      1 YSO        -0.0253
      5 CAD       -17.8520   30.1490   -2.6800 C.ar      1 YSO        -0.0511
      6 CAL       -19.1350   30.6740   -2.6270 C.ar      1 YSO        -0.0576
      7 CAH       -20.2320   29.8190   -2.7170 C.ar      1 YSO        -0.0407
      8 NAM       -21.5620   30.0650   -2.7450 N.2       1 YSO        -0.4383
      9 NAJ       -22.2870   28.9180   -2.8650 N.pl3     1 YSO        -0.2538
     10 CAE       -21.4100   27.8870   -2.9340 C.2       1 YSO         0.2462
     11 C5        -20.0700   28.4240   -2.8480 C.ar      1 YSO         0.1103
     12 NAI       -21.8090   26.6140   -3.0700 N.pl3     1 YSO        -0.2599
     13 H1        -16.6520   28.3852   -2.8223 H         1 YSO         0.0719
     14 H2        -16.9959   30.8118   -2.6262 H         1 YSO         0.0641
     15 H3        -19.2833   31.7421   -2.5163 H         1 YSO         0.0683
     16 H4        -23.3141   28.8472   -2.8974 H         1 YSO         0.2539
     17 H5        -21.1112   25.8580   -3.1187 H         1 YSO         0.2098
     18 H6        -22.8133   26.3922   -3.1257 H         1 YSO         0.2098
@<TRIPOS>BOND
     1    1    2 3  
     2    1    3 1  
     3    3    4 ar 
     4    3   11 ar 
     5    4    5 ar 
     6    5    6 ar 
     7    6    7 ar 
     8    7    8 2  
     9    7   11 ar 
    10    8    9 1  
    11    9   10 1  
    12   10   11 2  
    13   10   12 1  
    14    4   13 1  
    15    5   14 1  
    16    6   15 1  
    17    9   16 1  
    18   12   17 1  
    19   12   18 1  
@<TRIPOS>SUBSTRUCTURE
     1 YSO         1

