### 
### Created by X-TOOL on Mon Sep 10 21:13:15 2018
### 

@<TRIPOS>MOLECULE
3zm4_ligand
   32    34     1     0     0
SMALL
GAST_HUCK


@<TRIPOS>ATOM
      1 CL21      -19.0190   25.2900   -3.2610 Cl        1 22T        -0.0821
      2 C14       -19.1530   27.0080   -3.0440 C.ar      1 22T         0.0683
      3 C13       -20.4100   27.5660   -2.9160 C.ar      1 22T        -0.0416
      4 C10       -20.5510   28.9490   -2.8100 C.ar      1 22T         0.0363
      5 C11       -21.8970   29.5390   -2.7600 C.2       1 22T         0.1797
      6 O13       -22.9180   28.8770   -2.6270 O.2       1 22T        -0.3846
      7 N20       -21.9360   30.9280   -2.7640 N.2       1 22T        -0.2514
      8 C12       -20.8210   31.7060   -2.7600 C.2       1 22T         0.0363
      9 C9        -19.3930   29.7700   -2.8130 C.ar      1 22T        -0.0075
     10 C8        -18.1330   29.1770   -2.9160 C.ar      1 22T        -0.0203
     11 C7        -18.0050   27.8000   -3.0320 C.ar      1 22T         0.1064
     12 O9        -16.8080   27.1270   -3.1150 O.3       1 22T        -0.3063
     13 C5        -15.5420   27.8730   -3.1080 C.3       1 22T         0.1268
     14 C6        -15.1170   28.1720   -4.5800 C.3       1 22T        -0.0019
     15 C15       -19.5480   31.2000   -2.7690 C.3       1 22T         0.0482
     16 C4        -14.5230   26.8800   -2.5820 C.3       1 22T         0.0234
     17 C3        -13.9880   26.1850   -3.8560 C.3       1 22T        -0.0306
     18 N1        -14.0970   27.1730   -4.9730 N.4       1 22T         0.2292
     19 H1        -21.2867   26.9287   -2.8980 H         1 22T         0.0635
     20 H2        -20.9464   32.7877   -2.7491 H         1 22T         0.1324
     21 H3        -17.2452   29.7990   -2.9052 H         1 22T         0.0501
     22 H4        -15.6014   28.7891   -2.5020 H         1 22T         0.0709
     23 H5        -14.6933   29.1848   -4.6479 H         1 22T         0.0844
     24 H6        -15.9906   28.0947   -5.2440 H         1 22T         0.0844
     25 H7        -19.0473   31.5560   -1.8565 H         1 22T         0.0753
     26 H8        -19.0376   31.6123   -3.6519 H         1 22T         0.0753
     27 H9        -14.9982   26.1511   -1.9090 H         1 22T         0.0348
     28 H10       -13.7119   27.3972   -2.0486 H         1 22T         0.0348
     29 H11       -14.5909   25.2929   -4.0809 H         1 22T         0.0815
     30 H12       -12.9377   25.8912   -3.7130 H         1 22T         0.0815
     31 H13       -13.2089   27.6265   -5.1201 H         1 22T         0.2014
     32 H14       -14.3802   26.7059   -5.8201 H         1 22T         0.2014
@<TRIPOS>BOND
     1    1    2 1  
     2    2    3 ar 
     3    2   11 ar 
     4    3    4 ar 
     5    4    5 1  
     6    4    9 ar 
     7    5    6 2  
     8    5    7 1  
     9    7    8 2  
    10    8   15 1  
    11    9   10 ar 
    12    9   15 1  
    13   10   11 ar 
    14   11   12 1  
    15   12   13 1  
    16   13   14 1  
    17   13   16 1  
    18   14   18 1  
    19   16   17 1  
    20   17   18 1  
    21    3   19 1  
    22    8   20 1  
    23   10   21 1  
    24   13   22 1  
    25   14   23 1  
    26   14   24 1  
    27   15   25 1  
    28   15   26 1  
    29   16   27 1  
    30   16   28 1  
    31   17   29 1  
    32   17   30 1  
    33   18   31 1  
    34   18   32 1  
@<TRIPOS>SUBSTRUCTURE
     1 22T         1

