### 
### Created by X-TOOL on Mon Sep 10 21:13:15 2018
### 

@<TRIPOS>MOLECULE
3zm5_ligand
   64    68     1     0     0
SMALL
GAST_HUCK


@<TRIPOS>ATOM
      1 O25       -29.9260   41.3280   -4.0830 O.2       1 IGM        -0.1500
      2 S21       -29.0830   41.6910   -2.9870 S.o2      1 IGM         0.0722
      3 O24       -29.6750   42.8310   -2.3350 O.2       1 IGM        -0.1500
      4 N23       -27.6470   42.0600   -3.4110 N.am      1 IGM        -0.2296
      5 C27       -27.0240   41.0780   -4.3150 C.3       1 IGM         0.0531
      6 C29       -25.5980   41.4970   -4.6620 C.3       1 IGM         0.0647
      7 O31       -25.2530   42.7240   -3.9970 O.3       1 IGM        -0.3766
      8 C30       -26.1230   43.8290   -4.2630 C.3       1 IGM         0.0647
      9 C28       -27.5600   43.4510   -3.9070 C.3       1 IGM         0.0531
     10 C18       -29.0500   40.4010   -1.9160 C.ar      1 IGM         0.1278
     11 C22       -28.0540   40.3280   -0.9710 C.ar      1 IGM         0.0719
     12 CL2       -26.7850   41.6080   -0.9010 Cl        1 IGM        -0.0646
     13 C19       -28.0320   39.2730   -0.0810 C.ar      1 IGM        -0.0265
     14 C17       -29.0060   38.3050   -0.1540 C.ar      1 IGM         0.0617
     15 CL1       -28.9490   36.9560    1.0050 Cl        1 IGM        -0.0648
     16 C16       -30.0370   39.4340   -1.9950 C.ar      1 IGM        -0.0138
     17 C14       -30.0050   38.3850   -1.1010 C.ar      1 IGM         0.0746
     18 C13       -31.0710   37.3540   -1.2070 C.2       1 IGM         0.2464
     19 O15       -31.2340   36.8690   -2.3080 O.2       1 IGM        -0.3665
     20 N10       -31.8130   37.0120   -0.1500 N.am      1 IGM        -0.2018
     21 C5        -32.7840   36.0640   -0.2990 C.2       1 IGM         0.1701
     22 C2        -33.7230   35.5900    0.7400 C.2       1 IGM         0.0893
     23 C6        -33.7030   36.0720    2.0660 C.1       1 IGM         0.0356
     24 N11       -33.6900   36.3930    3.1780 N.1       1 IGM        -0.3857
     25 S7        -33.1110   35.2270   -1.7720 S.3       1 IGM         0.0014
     26 C3        -34.4100   34.2560   -1.1450 C.2       1 IGM         0.0408
     27 C1        -34.6780   34.5290    0.2750 C.2       1 IGM        -0.0460
     28 C8        -35.1190   33.2670   -2.0050 C.3       1 IGM        -0.0015
     29 N12       -36.3530   32.8890   -1.3260 N.4       1 IGM         0.2553
     30 C9        -36.8270   33.3660   -0.0220 C.3       1 IGM        -0.0255
     31 C4        -35.7530   33.7640    0.9840 C.3       1 IGM         0.0005
     32 C32       -37.2330   32.0230   -2.0780 C.3       1 IGM        -0.0018
     33 C33       -37.8040   30.8790   -1.2750 C.ar      1 IGM        -0.0093
     34 C38       -39.1800   30.6920   -1.2600 C.ar      1 IGM        -0.0637
     35 C37       -39.7420   29.6400   -0.5440 C.ar      1 IGM        -0.0396
     36 C36       -38.9240   28.7520    0.1430 C.ar      1 IGM         0.0805
     37 O39       -39.4780   27.7140    0.8470 O.3       1 IGM        -0.3376
     38 C35       -37.5460   28.9360    0.1050 C.ar      1 IGM        -0.0396
     39 C34       -36.9850   29.9890   -0.6040 C.ar      1 IGM        -0.0637
     40 H1        -27.6162   41.0110   -5.2395 H         1 IGM         0.0501
     41 H2        -27.0021   40.0952   -3.8215 H         1 IGM         0.0501
     42 H3        -25.5184   41.6410   -5.7496 H         1 IGM         0.0576
     43 H4        -24.9020   40.7064   -4.3449 H         1 IGM         0.0576
     44 H5        -26.0673   44.0895   -5.3302 H         1 IGM         0.0576
     45 H6        -25.8118   44.6932   -3.6579 H         1 IGM         0.0576
     46 H7        -27.9258   44.1329   -3.1253 H         1 IGM         0.0501
     47 H8        -28.1886   43.5507   -4.8041 H         1 IGM         0.0501
     48 H9        -27.2528   39.2081    0.6698 H         1 IGM         0.0641
     49 H10       -30.8183   39.5000   -2.7436 H         1 IGM         0.0688
     50 H11       -31.6592   37.4446    0.7384 H         1 IGM         0.2444
     51 H12       -34.4867   32.3792   -2.1536 H         1 IGM         0.0927
     52 H13       -35.3521   33.7187   -2.9805 H         1 IGM         0.0927
     53 H14       -35.8879   32.1130   -0.8815 H         1 IGM         0.2058
     54 H15       -37.4282   32.5633    0.4299 H         1 IGM         0.0830
     55 H16       -37.4633   34.2458   -0.1983 H         1 IGM         0.0830
     56 H17       -36.1980   34.3943    1.7680 H         1 IGM         0.0402
     57 H18       -35.3225   32.8604    1.4403 H         1 IGM         0.0402
     58 H19       -36.6665   31.6036   -2.9225 H         1 IGM         0.0958
     59 H20       -38.0685   32.6274   -2.4609 H         1 IGM         0.0958
     60 H21       -39.8211   31.3710   -1.8105 H         1 IGM         0.0532
     61 H22       -40.8183   29.5132   -0.5222 H         1 IGM         0.0525
     62 H23       -39.9733   27.1600    0.2551 H         1 IGM         0.2458
     63 H24       -36.9004   28.2467    0.6371 H         1 IGM         0.0525
     64 H25       -35.9085   30.1135   -0.6318 H         1 IGM         0.0532
@<TRIPOS>BOND
     1    1    2 2  
     2    2    3 2  
     3    2    4 am 
     4    2   10 1  
     5    4    5 1  
     6    4    9 1  
     7    5    6 1  
     8    6    7 1  
     9    7    8 1  
    10    8    9 1  
    11   10   11 ar 
    12   10   16 ar 
    13   11   12 1  
    14   11   13 ar 
    15   13   14 ar 
    16   14   15 1  
    17   14   17 ar 
    18   16   17 ar 
    19   17   18 1  
    20   18   19 2  
    21   18   20 am 
    22   20   21 1  
    23   21   22 2  
    24   21   25 1  
    25   22   23 1  
    26   22   27 1  
    27   23   24 3  
    28   25   26 1  
    29   26   27 2  
    30   26   28 1  
    31   27   31 1  
    32   28   29 1  
    33   29   30 1  
    34   29   32 1  
    35   30   31 1  
    36   32   33 1  
    37   33   34 ar 
    38   33   39 ar 
    39   34   35 ar 
    40   35   36 ar 
    41   36   37 1  
    42   36   38 ar 
    43   38   39 ar 
    44    5   40 1  
    45    5   41 1  
    46    6   42 1  
    47    6   43 1  
    48    8   44 1  
    49    8   45 1  
    50    9   46 1  
    51    9   47 1  
    52   13   48 1  
    53   16   49 1  
    54   20   50 1  
    55   28   51 1  
    56   28   52 1  
    57   29   53 1  
    58   30   54 1  
    59   30   55 1  
    60   31   56 1  
    61   31   57 1  
    62   32   58 1  
    63   32   59 1  
    64   34   60 1  
    65   35   61 1  
    66   37   62 1  
    67   38   63 1  
    68   39   64 1  
@<TRIPOS>SUBSTRUCTURE
     1 IGM         1

