### 
### Created by X-TOOL on Mon Sep 10 21:13:15 2018
### 

@<TRIPOS>MOLECULE
3zm6_ligand
   68    73     1     0     0
SMALL
GAST_HUCK


@<TRIPOS>ATOM
      1 O25        28.8350   40.2950    4.0350 O.2       1 2GN        -0.1500
      2 S21        27.9670   40.6770    2.9610 S.o2      1 2GN         0.0722
      3 O24        28.3410   41.9140    2.3580 O.2       1 2GN        -0.1500
      4 N23        26.4060   40.8590    3.6050 N.am      1 2GN        -0.2296
      5 C28        26.0320   42.2320    3.9300 C.3       1 2GN         0.0531
      6 C30        24.5210   42.1240    3.9000 C.3       1 2GN         0.0647
      7 O31        24.0830   41.1800    4.8800 O.3       1 2GN        -0.3766
      8 C29        24.5450   39.8570    4.5840 C.3       1 2GN         0.0647
      9 C27        26.0760   39.8720    4.6000 C.3       1 2GN         0.0531
     10 C18        27.8870   39.4450    1.8990 C.ar      1 2GN         0.1278
     11 C16        28.7780   38.4010    2.0730 C.ar      1 2GN        -0.0138
     12 C22        26.9330   39.3770    0.8740 C.ar      1 2GN         0.0719
     13 CL2        25.7360   40.6340    0.5320 Cl        1 2GN        -0.0646
     14 C19        26.9020   38.2960    0.0120 C.ar      1 2GN        -0.0265
     15 C17        27.8130   37.2760    0.1490 C.ar      1 2GN         0.0617
     16 CL1        27.6890   35.9240   -0.9970 Cl        1 2GN        -0.0648
     17 C14        28.7420   37.3140    1.1930 C.ar      1 2GN         0.0746
     18 C13        29.7780   36.2750    1.3660 C.2       1 2GN         0.2464
     19 O15        30.0090   35.8050    2.4660 O.2       1 2GN        -0.3665
     20 N10        30.5810   35.9880    0.1880 N.am      1 2GN        -0.2018
     21 C5         31.5640   35.0640    0.2900 C.2       1 2GN         0.1701
     22 C2         32.4070   34.6700   -0.7470 C.2       1 2GN         0.0893
     23 C6         32.3050   35.2280   -2.0370 C.1       1 2GN         0.0356
     24 N11        32.2390   35.7320   -3.0890 N.1       1 2GN        -0.3857
     25 S7         32.0000   34.2250    1.7130 S.3       1 2GN         0.0014
     26 C3         33.2690   33.2890    0.9140 C.2       1 2GN         0.0408
     27 C8         34.0460   32.3210    1.7150 C.3       1 2GN        -0.0012
     28 N12        34.9070   31.5690    0.8200 N.4       1 2GN         0.2569
     29 C9         34.9850   31.7280   -0.6370 C.3       1 2GN        -0.0253
     30 C4         34.4450   32.9960   -1.2970 C.3       1 2GN         0.0005
     31 C1         33.4220   33.6360   -0.4060 C.2       1 2GN        -0.0460
     32 C32        35.7400   30.5780    1.4710 C.3       1 2GN         0.0035
     33 C33        36.2520   29.4820    0.5460 C.ar      1 2GN         0.0024
     34 C38        35.4630   28.9210   -0.4630 C.ar      1 2GN        -0.0538
     35 C37        35.9800   27.9230   -1.2870 C.ar      1 2GN        -0.0578
     36 C36        37.2970   27.4900   -1.0770 C.ar      1 2GN         0.0031
     37 C35        38.0880   28.0470   -0.0640 C.ar      1 2GN        -0.0578
     38 C34        37.5650   29.0460    0.7450 C.ar      1 2GN        -0.0538
     39 C06        37.9100   26.4310   -1.9350 C.2       1 2GN         0.1437
     40 N01        37.7560   26.3410   -3.2820 N.2       1 2GN        -0.1771
     41 N02        38.7360   25.4450   -1.5060 N.2       1 2GN        -0.1473
     42 N05        39.1220   24.6740   -2.6130 N.pl3     1 2GN        -0.1053
     43 N04        38.4970   25.2370   -3.7380 N.2       1 2GN        -0.0528
     44 H1         26.4029   42.9426    3.1767 H         1 2GN         0.0501
     45 H2         26.3978   42.5275    4.9244 H         1 2GN         0.0501
     46 H3         24.1985   41.7909    2.9025 H         1 2GN         0.0576
     47 H4         24.0802   43.1079    4.1183 H         1 2GN         0.0576
     48 H5         24.1857   39.5503    3.5906 H         1 2GN         0.0576
     49 H6         24.1713   39.1533    5.3424 H         1 2GN         0.0576
     50 H7         26.4572   40.1662    5.5890 H         1 2GN         0.0501
     51 H8         26.4829   38.8868    4.3284 H         1 2GN         0.0501
     52 H9         29.4973   38.4250    2.8836 H         1 2GN         0.0688
     53 H10        26.1569   38.2530   -0.7742 H         1 2GN         0.0641
     54 H11        30.4108   36.4619   -0.6760 H         1 2GN         0.2444
     55 H12        33.3611   31.6348    2.2346 H         1 2GN         0.0927
     56 H13        34.6581   32.8579    2.4546 H         1 2GN         0.0927
     57 H14        35.6231   32.2715    0.9188 H         1 2GN         0.2060
     58 H15        34.4374   30.8823   -1.0785 H         1 2GN         0.0830
     59 H16        36.0488   31.6575   -0.9077 H         1 2GN         0.0830
     60 H17        33.9800   32.7371   -2.2597 H         1 2GN         0.0402
     61 H18        35.2728   33.7001   -1.4672 H         1 2GN         0.0402
     62 H19        35.1514   30.1057    2.2713 H         1 2GN         0.0984
     63 H20        36.6082   31.0922    1.9089 H         1 2GN         0.0984
     64 H21        34.4445   29.2639   -0.6049 H         1 2GN         0.0562
     65 H22        35.3753   27.4896   -2.0754 H         1 2GN         0.0609
     66 H23        39.1036   27.6995    0.0873 H         1 2GN         0.0609
     67 H24        38.1721   29.4862    1.5278 H         1 2GN         0.0562
     68 H25        39.7440   23.8531   -2.6027 H         1 2GN         0.2937
@<TRIPOS>BOND
     1    1    2 2  
     2    2    3 2  
     3    2    4 am 
     4    2   10 1  
     5    4    5 1  
     6    4    9 1  
     7    5    6 1  
     8    6    7 1  
     9    7    8 1  
    10    8    9 1  
    11   10   11 ar 
    12   10   12 ar 
    13   11   17 ar 
    14   12   13 1  
    15   12   14 ar 
    16   14   15 ar 
    17   15   16 1  
    18   15   17 ar 
    19   17   18 1  
    20   18   19 2  
    21   18   20 am 
    22   20   21 1  
    23   21   22 2  
    24   21   25 1  
    25   22   23 1  
    26   22   31 1  
    27   23   24 3  
    28   25   26 1  
    29   26   27 1  
    30   26   31 2  
    31   27   28 1  
    32   28   29 1  
    33   28   32 1  
    34   29   30 1  
    35   30   31 1  
    36   32   33 1  
    37   33   34 ar 
    38   33   38 ar 
    39   34   35 ar 
    40   35   36 ar 
    41   36   37 ar 
    42   36   39 1  
    43   37   38 ar 
    44   39   40 1  
    45   39   41 2  
    46   40   43 2  
    47   41   42 1  
    48   42   43 1  
    49    5   44 1  
    50    5   45 1  
    51    6   46 1  
    52    6   47 1  
    53    8   48 1  
    54    8   49 1  
    55    9   50 1  
    56    9   51 1  
    57   11   52 1  
    58   14   53 1  
    59   20   54 1  
    60   27   55 1  
    61   27   56 1  
    62   28   57 1  
    63   29   58 1  
    64   29   59 1  
    65   30   60 1  
    66   30   61 1  
    67   32   62 1  
    68   32   63 1  
    69   34   64 1  
    70   35   65 1  
    71   37   66 1  
    72   38   67 1  
    73   42   68 1  
@<TRIPOS>SUBSTRUCTURE
     1 2GN         1

