### 
### Created by X-TOOL on Mon Sep 10 21:13:14 2018
### 

@<TRIPOS>MOLECULE
3zm9_ligand
   72    76     1     0     0
SMALL
GAST_HUCK


@<TRIPOS>ATOM
      1 CAA        -9.4750   12.8270   -2.3820 C.3       1 QMQ         0.0110
      2 NBI        -9.0910   12.8470   -3.8110 N.pl3     1 QMQ        -0.3315
      3 CAB        -8.1510   11.8420   -4.3640 C.3       1 QMQ         0.0110
      4 CBE        -9.6500   13.7720   -4.6430 C.2       1 QMQ        -0.0083
      5 CAM        -9.4850   13.6890   -6.0430 C.2       1 QMQ        -0.0804
      6 CAP       -10.0590   14.6280   -6.9160 C.3       1 QMQ         0.0359
      7 CAL       -10.4100   14.8340   -4.1270 C.2       1 QMQ        -0.0503
      8 CAO       -10.9940   15.7780   -4.9860 C.2       1 QMQ         0.0110
      9 NBK       -10.8350   15.7040   -6.3870 N.pl3     1 QMQ        -0.2945
     10 CAW       -11.4860   16.7320   -7.2850 C.3       1 QMQ         0.0630
     11 CBD       -12.5080   16.1580   -8.0850 C.ar      1 QMQ        -0.0267
     12 CAK       -12.7380   16.6060   -9.3950 C.ar      1 QMQ        -0.0648
     13 CAG       -13.7460   16.0210  -10.1740 C.ar      1 QMQ        -0.0668
     14 CAJ       -13.3050   15.1160   -7.5840 C.ar      1 QMQ        -0.0648
     15 CAF       -14.3070   14.5260   -8.3570 C.ar      1 QMQ        -0.0668
     16 CBB       -14.5370   14.9800   -9.6620 C.ar      1 QMQ        -0.0497
     17 CAU       -15.5370   14.3720  -10.4480 C.3       1 QMQ        -0.0222
     18 CAS       -15.0500   12.9510  -10.8560 C.3       1 QMQ        -0.0425
     19 CAR       -15.6760   12.4430  -12.1720 C.3       1 QMQ        -0.0425
     20 CAT       -15.2490   10.9720  -12.4240 C.3       1 QMQ        -0.0222
     21 CBA       -16.2680   10.1870  -13.0230 C.ar      1 QMQ        -0.0497
     22 CAE       -16.6620   10.3750  -14.3620 C.ar      1 QMQ        -0.0667
     23 CAI       -17.6740    9.5830  -14.9390 C.ar      1 QMQ        -0.0642
     24 CAD       -16.8910    9.1810  -12.2760 C.ar      1 QMQ        -0.0667
     25 CAH       -17.9000    8.3910  -12.8570 C.ar      1 QMQ        -0.0642
     26 CBC       -18.2940    8.5750  -14.1870 C.ar      1 QMQ        -0.0197
     27 CAV       -19.3160    7.7750  -14.7490 C.3       1 QMQ         0.0912
     28 N9        -18.8470    6.3630  -15.1670 N.pl3     1 QMQ        -0.2110
     29 C8        -17.6580    5.7950  -14.9480 C.2       1 QMQ         0.1116
     30 N7        -17.6520    4.5670  -15.4550 N.2       1 QMQ        -0.2957
     31 C5        -18.8450    4.3610  -16.0070 C.ar      1 QMQ         0.1046
     32 C4        -19.5870    5.4690  -15.8190 C.ar      1 QMQ         0.1609
     33 N3        -20.8410    5.5480  -16.2860 N.ar      1 QMQ        -0.2713
     34 C2        -21.3880    4.4570  -16.9650 C.ar      1 QMQ         0.0533
     35 N1        -20.5900    3.3230  -17.1320 N.ar      1 QMQ        -0.2698
     36 C6        -19.3320    3.3020  -16.6540 C.ar      1 QMQ         0.1298
     37 N6        -18.5120    2.2330  -16.7950 N.pl3     1 QMQ        -0.3152
     38 H1         -8.9299   12.0221   -1.8671 H         1 QMQ         0.0470
     39 H2        -10.5573   12.6504   -2.2956 H         1 QMQ         0.0470
     40 H3         -9.2232   13.7935   -1.9211 H         1 QMQ         0.0470
     41 H4         -7.9999   12.0326   -5.4368 H         1 QMQ         0.0470
     42 H5         -8.5690   10.8339   -4.2260 H         1 QMQ         0.0470
     43 H6         -7.1868   11.9141   -3.8395 H         1 QMQ         0.0470
     44 H7         -8.8954   12.8730   -6.4581 H         1 QMQ         0.0170
     45 H8        -10.7140   14.0687   -7.6003 H         1 QMQ         0.0594
     46 H9         -9.2338   15.0800   -7.4858 H         1 QMQ         0.0594
     47 H10       -10.5475   14.9260   -3.0506 H         1 QMQ         0.0279
     48 H11       -11.5848   16.5881   -4.5611 H         1 QMQ         0.0991
     49 H12       -10.7196   17.1665   -7.9436 H         1 QMQ         0.0682
     50 H13       -11.9248   17.5241   -6.6605 H         1 QMQ         0.0682
     51 H14       -12.1342   17.4071   -9.8058 H         1 QMQ         0.0540
     52 H15       -13.9168   16.3765  -11.1837 H         1 QMQ         0.0540
     53 H16       -13.1384   14.7613   -6.5733 H         1 QMQ         0.0540
     54 H17       -14.9049   13.7193   -7.9486 H         1 QMQ         0.0540
     55 H18       -15.7177   14.9752  -11.3499 H         1 QMQ         0.0413
     56 H19       -16.4679   14.2925   -9.8674 H         1 QMQ         0.0413
     57 H20       -15.3118   12.2482  -10.0513 H         1 QMQ         0.0287
     58 H21       -13.9571   12.9785  -10.9776 H         1 QMQ         0.0287
     59 H22       -15.3316   13.0713  -13.0066 H         1 QMQ         0.0287
     60 H23       -16.7723   12.4977  -12.0999 H         1 QMQ         0.0287
     61 H24       -14.9788   10.5167  -11.4598 H         1 QMQ         0.0413
     62 H25       -14.3722   10.9718  -13.0882 H         1 QMQ         0.0413
     63 H26       -16.1790   11.1410  -14.9578 H         1 QMQ         0.0540
     64 H27       -17.9741    9.7532  -15.9666 H         1 QMQ         0.0541
     65 H28       -16.5955    9.0099  -11.2472 H         1 QMQ         0.0540
     66 H29       -18.3821    7.6239  -12.2619 H         1 QMQ         0.0541
     67 H30       -19.7070    8.2880  -15.6400 H         1 QMQ         0.0765
     68 H31       -20.1197    7.6671  -14.0057 H         1 QMQ         0.0765
     69 H32       -16.8221    6.2661  -14.4330 H         1 QMQ         0.1349
     70 H33       -22.4006    4.4893  -17.3505 H         1 QMQ         0.0996
     71 H34       -18.8433    1.3912  -17.2875 H         1 QMQ         0.1820
     72 H35       -17.5572    2.2620  -16.4097 H         1 QMQ         0.1820
@<TRIPOS>BOND
     1    1    2 1  
     2    2    3 1  
     3    2    4 1  
     4    4    5 2  
     5    4    7 1  
     6    5    6 1  
     7    6    9 1  
     8    7    8 2  
     9    8    9 1  
    10    9   10 1  
    11   10   11 1  
    12   11   12 ar 
    13   11   14 ar 
    14   12   13 ar 
    15   13   16 ar 
    16   14   15 ar 
    17   15   16 ar 
    18   16   17 1  
    19   17   18 1  
    20   18   19 1  
    21   19   20 1  
    22   20   21 1  
    23   21   22 ar 
    24   21   24 ar 
    25   22   23 ar 
    26   23   26 ar 
    27   24   25 ar 
    28   25   26 ar 
    29   26   27 1  
    30   27   28 1  
    31   28   29 1  
    32   28   32 1  
    33   29   30 2  
    34   30   31 1  
    35   31   32 ar 
    36   31   36 ar 
    37   32   33 ar 
    38   33   34 ar 
    39   34   35 ar 
    40   35   36 ar 
    41   36   37 1  
    42    1   38 1  
    43    1   39 1  
    44    1   40 1  
    45    3   41 1  
    46    3   42 1  
    47    3   43 1  
    48    5   44 1  
    49    6   45 1  
    50    6   46 1  
    51    7   47 1  
    52    8   48 1  
    53   10   49 1  
    54   10   50 1  
    55   12   51 1  
    56   13   52 1  
    57   14   53 1  
    58   15   54 1  
    59   17   55 1  
    60   17   56 1  
    61   18   57 1  
    62   18   58 1  
    63   19   59 1  
    64   19   60 1  
    65   20   61 1  
    66   20   62 1  
    67   22   63 1  
    68   23   64 1  
    69   24   65 1  
    70   25   66 1  
    71   27   67 1  
    72   27   68 1  
    73   29   69 1  
    74   34   70 1  
    75   37   71 1  
    76   37   72 1  
@<TRIPOS>SUBSTRUCTURE
     1 QMQ         1

