### 
### Created by X-TOOL on Mon Sep 10 21:13:13 2018
### 

@<TRIPOS>MOLECULE
3zmg_ligand
   43    45     1     0     0
SMALL
GAST_HUCK


@<TRIPOS>ATOM
      1 C2        -21.5890   43.6970    2.4360 C.ar      1 6Z0        -0.0031
      2 C3        -21.7590   43.0680    3.6480 C.ar      1 6Z0        -0.0036
      3 C4        -20.8190   42.1320    4.0770 C.ar      1 6Z0         0.1362
      4 N5        -19.7380   41.8690    3.3570 N.ar      1 6Z0        -0.2641
      5 C6        -19.5260   42.4900    2.2200 C.ar      1 6Z0         0.0510
      6 N9        -19.8300   40.8870    5.8690 N.am      1 6Z0        -0.2263
      7 C15       -19.0540   39.1320    9.5560 C.ar      1 6Z0         0.1529
      8 C1        -20.4280   43.4170    1.7080 C.ar      1 6Z0         0.1267
      9 C7        -20.9470   41.4840    5.3860 C.2       1 6Z0         0.2558
     10 O8        -22.0160   41.5370    5.9750 O.2       1 6Z0        -0.3646
     11 C10       -20.2130   44.0230    0.4280 C.1       1 6Z0         0.1128
     12 N11       -20.0060   44.4920   -0.5990 N.1       1 6Z0        -0.3219
     13 C12       -19.6310   40.2560    7.1000 C.ar      1 6Z0         0.0911
     14 C13       -20.6660   39.8530    7.9530 C.ar      1 6Z0        -0.0112
     15 C14       -20.3610   39.2870    9.1700 C.ar      1 6Z0        -0.0061
     16 C16       -18.0100   39.5260    8.7150 C.ar      1 6Z0         0.0222
     17 C17       -18.3180   40.0960    7.5270 C.ar      1 6Z0        -0.0184
     18 F18       -18.7580   38.5860   10.7390 F         1 6Z0        -0.1644
     19 C20       -16.3260   37.9570    9.7040 C.3       1 6Z0        -0.0386
     20 O22       -15.0900   41.6650    8.2420 O.3       1 6Z0        -0.3167
     21 C23       -15.0710   40.5010    7.6170 C.cat     1 6Z0         0.3457
     22 N28       -15.7170   39.4190    7.9390 N.pl3     1 6Z0        -0.2638
     23 C25       -16.1120   40.4920   10.0690 C.3       1 6Z0         0.2930
     24 C60       -16.0340   41.8090    9.3270 C.3       1 6Z0         0.1084
     25 F26       -14.8480   40.2290   10.6070 F         1 6Z0        -0.2089
     26 F27       -17.0180   40.6140   11.1340 F         1 6Z0        -0.2089
     27 C5        -16.5790   39.3550    9.1250 C.3       1 6Z0         0.1595
     28 N24       -14.2580   40.5230    6.5210 N.pl3     1 6Z0        -0.2512
     29 H1        -22.3325   44.3887    2.0568 H         1 6Z0         0.0844
     30 H2        -22.6192   43.2990    4.2659 H         1 6Z0         0.0781
     31 H3        -18.6211   42.2740    1.6636 H         1 6Z0         0.0939
     32 H4        -19.0375   40.8999    5.2592 H         1 6Z0         0.2251
     33 H5        -21.7003   39.9859    7.6568 H         1 6Z0         0.0763
     34 H6        -21.1589   38.9616    9.8277 H         1 6Z0         0.0657
     35 H7        -17.5135   40.4394    6.8867 H         1 6Z0         0.0677
     36 H8        -15.2688   37.8660    9.9938 H         1 6Z0         0.0173
     37 H9        -16.5649   37.1972    8.9454 H         1 6Z0         0.0173
     38 H10       -16.9628   37.8055   10.5880 H         1 6Z0         0.0173
     39 H11       -15.6208   38.5833    7.3447 H         1 6Z0         0.3118
     40 H12       -17.0247   42.0687    8.9257 H         1 6Z0         0.0607
     41 H13       -15.6961   42.6015   10.0110 H         1 6Z0         0.0607
     42 H14       -14.1518   39.6781    5.9415 H         1 6Z0         0.3201
     43 H15       -13.7506   41.3845    6.2734 H         1 6Z0         0.3201
@<TRIPOS>BOND
     1    2    1 ar 
     2    1    8 ar 
     3    3    2 ar 
     4    3    4 ar 
     5    9    3 1  
     6    4    5 ar 
     7    5    8 ar 
     8    6    9 am 
     9   13    6 1  
    10    7   15 ar 
    11   16    7 ar 
    12    7   18 1  
    13    8   11 1  
    14    9   10 2  
    15   11   12 3  
    16   13   14 ar 
    17   17   13 ar 
    18   15   14 ar 
    19   16   17 ar 
    20   27   16 1  
    21   27   19 1  
    22   21   20 1  
    23   20   24 1  
    24   22   21 ar 
    25   21   28 ar 
    26   22   27 1  
    27   24   23 1  
    28   23   25 1  
    29   23   26 1  
    30   23   27 1  
    31    1   29 1  
    32    2   30 1  
    33    5   31 1  
    34    6   32 1  
    35   14   33 1  
    36   15   34 1  
    37   17   35 1  
    38   19   36 1  
    39   19   37 1  
    40   19   38 1  
    41   22   39 1  
    42   24   40 1  
    43   24   41 1  
    44   28   42 1  
    45   28   43 1  
@<TRIPOS>SUBSTRUCTURE
     1 6Z0         1

