### 
### Created by X-TOOL on Mon Sep 10 21:13:14 2018
### 

@<TRIPOS>MOLECULE
3zmh_ligand
   38    39     1     0     0
SMALL
GAST_HUCK


@<TRIPOS>ATOM
      1 O2         -9.3550    9.4660  -49.0620 O.2       1 L62        -0.3774
      2 C5         -9.9230    8.6400  -48.3530 C.2       1 L62         0.3220
      3 O3         -9.9900    8.8760  -46.9950 O.3       1 L62        -0.2605
      4 C6         -9.0750    9.7390  -46.4100 C.3       1 L62         0.0882
      5 C7         -9.7280   11.0550  -46.2470 C.3       1 L62        -0.0223
      6 C8        -10.4230   10.8250  -44.9430 C.3       1 L62        -0.0503
      7 C9         -9.3600   10.1470  -44.1130 C.3       1 L62        -0.0503
      8 C10        -8.6690    9.2340  -45.0700 C.3       1 L62        -0.0223
      9 N1        -10.4520    7.4330  -48.9160 N.am      1 L62        -0.2460
     10 C4        -10.4180    7.4640  -50.3510 C.3       1 L62         0.0929
     11 C3        -11.7960    7.2000  -50.8670 C.3       1 L62         0.0518
     12 C2        -12.7330    8.1680  -50.2290 C.2       1 L62         0.1033
     13 O1        -12.4980    9.3770  -50.2980 O.2       1 L62        -0.3747
     14 C11        -9.4640    6.4380  -50.8730 C.ar      1 L62        -0.0157
     15 C12        -9.8120    5.6680  -51.9780 C.ar      1 L62        -0.0580
     16 C13        -8.9360    4.7110  -52.4720 C.ar      1 L62        -0.0685
     17 C14        -7.6970    4.5200  -51.8690 C.ar      1 L62        -0.0687
     18 C15        -7.3360    5.2960  -50.7740 C.ar      1 L62        -0.0685
     19 C16        -8.2180    6.2430  -50.2780 C.ar      1 L62        -0.0580
     20 H1         -8.1880    9.8339  -47.0535 H         1 L62         0.0647
     21 H2        -10.4391   11.2639  -47.0598 H         1 L62         0.0293
     22 H3         -8.9944   11.8721  -46.1826 H         1 L62         0.0293
     23 H4        -11.3007   10.1744  -45.0710 H         1 L62         0.0266
     24 H5        -10.7350   11.7762  -44.4870 H         1 L62         0.0266
     25 H6         -9.8140    9.5764  -43.2894 H         1 L62         0.0266
     26 H7         -8.6561   10.8860  -43.7027 H         1 L62         0.0266
     27 H8         -7.5776    9.2910  -44.9453 H         1 L62         0.0293
     28 H9         -9.0006    8.1950  -44.9272 H         1 L62         0.0293
     29 H10       -10.8008    6.6660  -48.3774 H         1 L62         0.1899
     30 H11       -10.0894    8.4593  -50.6848 H         1 L62         0.0745
     31 H12       -12.0960    6.1721  -50.6151 H         1 L62         0.0539
     32 H13       -11.8147    7.3303  -51.9591 H         1 L62         0.0539
     33 H14       -13.6186    7.8104  -49.7058 H         1 L62         0.1351
     34 H15       -10.7734    5.8162  -52.4564 H         1 L62         0.0557
     35 H16        -9.2181    4.1111  -53.3297 H         1 L62         0.0599
     36 H17        -7.0157    3.7688  -52.2517 H         1 L62         0.0559
     37 H18        -6.3663    5.1608  -50.3087 H         1 L62         0.0599
     38 H19        -7.9360    6.8390  -49.4176 H         1 L62         0.0557
@<TRIPOS>BOND
     1    1    2 2  
     2    2    3 1  
     3    2    9 am 
     4    3    4 1  
     5    4    5 1  
     6    4    8 1  
     7    5    6 1  
     8    6    7 1  
     9    7    8 1  
    10    9   10 1  
    11   10   11 1  
    12   10   14 1  
    13   11   12 1  
    14   12   13 2  
    15   14   15 ar 
    16   14   19 ar 
    17   15   16 ar 
    18   16   17 ar 
    19   17   18 ar 
    20   18   19 ar 
    21    4   20 1  
    22    5   21 1  
    23    5   22 1  
    24    6   23 1  
    25    6   24 1  
    26    7   25 1  
    27    7   26 1  
    28    8   27 1  
    29    8   28 1  
    30    9   29 1  
    31   10   30 1  
    32   11   31 1  
    33   11   32 1  
    34   12   33 1  
    35   15   34 1  
    36   16   35 1  
    37   17   36 1  
    38   18   37 1  
    39   19   38 1  
@<TRIPOS>SUBSTRUCTURE
     1 L62         1

