### 
### Created by X-TOOL on Mon Sep 10 21:13:15 2018
### 

@<TRIPOS>MOLECULE
3zmi_ligand
   35    36     1     0     0
SMALL
GAST_HUCK


@<TRIPOS>ATOM
      1 O1         14.1180   -6.3350   50.7370 O.2       1 L6C        -0.3747
      2 C2         13.3630   -7.2840   50.8450 C.2       1 L6C         0.1033
      3 C3         12.0430   -7.0940   51.4890 C.3       1 L6C         0.0518
      4 C4         11.5970   -5.8070   50.9380 C.3       1 L6C         0.0932
      5 C12        10.3150   -5.3050   51.5050 C.ar      1 L6C        -0.0157
      6 C17        10.2990   -4.2800   52.4570 C.ar      1 L6C        -0.0580
      7 C16         9.1040   -3.7890   52.9890 C.ar      1 L6C        -0.0685
      8 C15         7.8880   -4.3110   52.5710 C.ar      1 L6C        -0.0687
      9 C14         7.8820   -5.3130   51.6180 C.ar      1 L6C        -0.0685
     10 C13         9.0800   -5.7970   51.0890 C.ar      1 L6C        -0.0580
     11 N1         11.3990   -6.0290   49.5320 N.am      1 L6C        -0.2424
     12 C5         11.9590   -4.9270   48.8000 C.2       1 L6C         0.3464
     13 O2         12.6950   -4.1200   49.3790 O.2       1 L6C        -0.3721
     14 O3         12.0480   -5.0720   47.4370 O.3       1 L6C        -0.1997
     15 C6         12.9120   -4.2570   46.7520 C.ar      1 L6C         0.1233
     16 C7         14.2970   -4.4440   46.8400 C.ar      1 L6C        -0.0284
     17 C8         15.1560   -3.6110   46.1430 C.ar      1 L6C        -0.0696
     18 C9         14.6660   -2.5830   45.3480 C.ar      1 L6C        -0.0722
     19 C10        13.2960   -2.4070   45.2430 C.ar      1 L6C        -0.0696
     20 C11        12.4220   -3.2250   45.9380 C.ar      1 L6C        -0.0284
     21 H1         13.6558   -8.2641   50.4713 H         1 L6C         0.1351
     22 H2         12.1391   -7.0448   52.5837 H         1 L6C         0.0539
     23 H3         11.3492   -7.9033   51.2178 H         1 L6C         0.0539
     24 H4         12.3790   -5.0514   51.1039 H         1 L6C         0.0746
     25 H5         11.2389   -3.8554   52.7908 H         1 L6C         0.0557
     26 H6          9.1268   -2.9983   53.7302 H         1 L6C         0.0599
     27 H7          6.9577   -3.9392   52.9849 H         1 L6C         0.0559
     28 H8          6.9390   -5.7262   51.2787 H         1 L6C         0.0599
     29 H9          9.0483   -6.5755   50.3353 H         1 L6C         0.0557
     30 H10        10.9445   -6.8229   49.1281 H         1 L6C         0.1902
     31 H11        14.6973   -5.2421   47.4547 H         1 L6C         0.0552
     32 H12        16.2265   -3.7635   46.2190 H         1 L6C         0.0591
     33 H13        15.3464   -1.9273   44.8169 H         1 L6C         0.0529
     34 H14        12.9039   -1.6197   44.6093 H         1 L6C         0.0591
     35 H15        11.3529   -3.0672   45.8528 H         1 L6C         0.0552
@<TRIPOS>BOND
     1    1    2 2  
     2    2    3 1  
     3    3    4 1  
     4    4    5 1  
     5    4   11 1  
     6    5    6 ar 
     7    5   10 ar 
     8    6    7 ar 
     9    7    8 ar 
    10    8    9 ar 
    11    9   10 ar 
    12   11   12 am 
    13   12   13 2  
    14   12   14 1  
    15   14   15 1  
    16   15   16 ar 
    17   15   20 ar 
    18   16   17 ar 
    19   17   18 ar 
    20   18   19 ar 
    21   19   20 ar 
    22    2   21 1  
    23    3   22 1  
    24    3   23 1  
    25    4   24 1  
    26    6   25 1  
    27    7   26 1  
    28    8   27 1  
    29    9   28 1  
    30   10   29 1  
    31   11   30 1  
    32   16   31 1  
    33   17   32 1  
    34   18   33 1  
    35   19   34 1  
    36   20   35 1  
@<TRIPOS>SUBSTRUCTURE
     1 L6C         1

