### 
### Created by X-TOOL on Mon Sep 10 21:13:14 2018
### 

@<TRIPOS>MOLECULE
3zmj_ligand
   37    37     1     0     0
SMALL
GAST_HUCK


@<TRIPOS>ATOM
      1 O1        -12.2380   -9.1800   49.8770 O.2       1 L61        -0.3747
      2 C2        -12.6550   -8.0420   50.1590 C.2       1 L61         0.1033
      3 C3        -11.8200   -7.1110   50.9760 C.3       1 L61         0.0518
      4 C4        -10.4030   -7.2390   50.5270 C.3       1 L61         0.0929
      5 N1        -10.4020   -7.0590   49.0980 N.am      1 L61        -0.2460
      6 C5         -9.2250   -7.5900   48.4370 C.2       1 L61         0.3218
      7 O3         -9.4450   -8.7210   47.6400 O.3       1 L61        -0.2636
      8 C6         -8.9950   -8.5590   46.3700 C.3       1 L61         0.0796
      9 O2         -8.3710   -6.8310   48.0070 O.2       1 L61        -0.3774
     10 C10        -9.5950   -6.1990   51.2350 C.ar      1 L61        -0.0157
     11 C15        -8.3950   -5.7120   50.7460 C.ar      1 L61        -0.0580
     12 C14        -7.6630   -4.7450   51.4350 C.ar      1 L61        -0.0685
     13 C13        -8.1530   -4.2550   52.6490 C.ar      1 L61        -0.0687
     14 C12        -9.3460   -4.7270   53.1570 C.ar      1 L61        -0.0685
     15 C11       -10.0630   -5.6940   52.4630 C.ar      1 L61        -0.0580
     16 C7         -8.9090   -9.9470   45.7150 C.3       1 L61        -0.0189
     17 C8         -8.6810   -9.6470   44.3310 C.3       1 L61        -0.0603
     18 C9        -10.2080  -10.6250   45.9550 C.3       1 L61        -0.0603
     19 H1        -13.6351   -7.7227   49.8079 H         1 L61         0.1351
     20 H2        -11.8987   -7.3772   52.0404 H         1 L61         0.0539
     21 H3        -12.1647   -6.0766   50.8302 H         1 L61         0.0539
     22 H4        -10.0095   -8.2362   50.7736 H         1 L61         0.0745
     23 H5        -11.1464   -6.6081   48.6054 H         1 L61         0.1899
     24 H6         -7.9998   -8.0906   46.3836 H         1 L61         0.0614
     25 H7         -9.6922   -7.9225   45.8054 H         1 L61         0.0614
     26 H8         -8.0148   -6.0915   49.8044 H         1 L61         0.0557
     27 H9         -6.7253   -4.3779   51.0338 H         1 L61         0.0599
     28 H10        -7.5942   -3.5021   53.1929 H         1 L61         0.0559
     29 H11        -9.7240   -4.3433   54.0977 H         1 L61         0.0599
     30 H12       -10.9956   -6.0647   52.8728 H         1 L61         0.0557
     31 H13        -8.0855  -10.5490   46.1267 H         1 L61         0.0321
     32 H14        -8.6023  -10.5844   43.7608 H         1 L61         0.0233
     33 H15        -7.7464   -9.0760   44.2287 H         1 L61         0.0233
     34 H16        -9.5195   -9.0506   43.9421 H         1 L61         0.0233
     35 H17       -10.3229  -10.8271   47.0301 H         1 L61         0.0233
     36 H18       -10.2348  -11.5736   45.3987 H         1 L61         0.0233
     37 H19       -11.0286   -9.9766   45.6141 H         1 L61         0.0233
@<TRIPOS>BOND
     1    1    2 2  
     2    2    3 1  
     3    3    4 1  
     4    4    5 1  
     5    4   10 1  
     6    5    6 am 
     7    6    7 1  
     8    6    9 2  
     9    7    8 1  
    10    8   16 1  
    11   10   11 ar 
    12   10   15 ar 
    13   11   12 ar 
    14   12   13 ar 
    15   13   14 ar 
    16   14   15 ar 
    17   16   17 1  
    18   16   18 1  
    19    2   19 1  
    20    3   20 1  
    21    3   21 1  
    22    4   22 1  
    23    5   23 1  
    24    8   24 1  
    25    8   25 1  
    26   11   26 1  
    27   12   27 1  
    28   13   28 1  
    29   14   29 1  
    30   15   30 1  
    31   16   31 1  
    32   17   32 1  
    33   17   33 1  
    34   17   34 1  
    35   18   35 1  
    36   18   36 1  
    37   18   37 1  
@<TRIPOS>SUBSTRUCTURE
     1 L61         1

