### 
### Created by X-TOOL on Mon Sep 10 21:13:14 2018
### 

@<TRIPOS>MOLECULE
3zmm_ligand
   50    53     1     0     0
SMALL
GAST_HUCK


@<TRIPOS>ATOM
      1 C1          3.4120    1.3310   24.3740 C.3       1 F9J        -0.0327
      2 C2          2.5890    1.5260   25.5870 C.2       1 F9J        -0.0156
      3 C3          1.3260    2.0310   25.7770 C.2       1 F9J        -0.0277
      4 C4          1.0960    1.9570   27.1720 C.2       1 F9J         0.1732
      5 N1          2.1650    1.4320   27.7870 N.pl3     1 F9J        -0.2110
      6 N2          3.0500    1.1800   26.8210 N.2       1 F9J        -0.2529
      7 N3         -0.0520    2.3490   27.8050 N.pl3     1 F9J        -0.2226
      8 C5         -1.2130    2.9170   27.2730 C.ar      1 F9J         0.1818
      9 N4         -2.2120    3.0590   28.1590 N.ar      1 F9J        -0.2547
     10 C6         -3.3710    3.6030   27.7660 C.ar      1 F9J         0.1398
     11 C7         -3.4790    3.9930   26.4470 C.ar      1 F9J         0.2105
     12 C8         -2.4240    3.8210   25.5770 C.ar      1 F9J         0.1915
     13 N5         -1.2680    3.2810   25.9810 N.ar      1 F9J        -0.2462
     14 O1         -2.6270    4.2550   24.2520 O.3       1 F9J        -0.2770
     15 C9         -1.5950    3.8520   23.3030 C.3       1 F9J         0.1491
     16 C10        -2.1870    3.8430   21.9110 C.3       1 F9J        -0.0182
     17 C11        -0.4030    4.7670   23.3660 C.ar      1 F9J         0.1347
     18 N6         -0.6040    6.0350   23.7610 N.ar      1 F9J        -0.2634
     19 C12         0.4790    6.8220   23.8410 C.ar      1 F9J         0.0552
     20 C13         1.7270    6.3470   23.5230 C.ar      1 F9J         0.1779
     21 C14         1.8440    5.0390   23.1180 C.ar      1 F9J         0.0552
     22 N7          0.7760    4.2290   23.0380 N.ar      1 F9J        -0.2634
     23 F1          2.7910    7.1410   23.6010 F         1 F9J        -0.1730
     24 F2         -4.6030    4.5390   25.9930 F         1 F9J        -0.1955
     25 N8         -4.4310    3.7600   28.7200 N.pl3     1 F9J        -0.2884
     26 C15        -4.3100    3.0700   30.0050 C.3       1 F9J         0.0542
     27 C16        -5.5890    2.3190   30.3550 C.3       1 F9J         0.0680
     28 O2         -6.7480    3.1320   30.0840 O.3       1 F9J        -0.3757
     29 C17        -6.8000    3.5130   28.7060 C.3       1 F9J         0.0680
     30 C18        -5.6600    4.4820   28.4350 C.3       1 F9J         0.0542
     31 H1          2.8521    1.6749   23.4918 H         1 F9J         0.0373
     32 H2          3.6530    0.2636   24.2620 H         1 F9J         0.0373
     33 H3          4.3431    1.9095   24.4657 H         1 F9J         0.0373
     34 H4          0.6452    2.4086   25.0155 H         1 F9J         0.0176
     35 H5          2.2794    1.2590   28.7959 H         1 F9J         0.2465
     36 H6         -0.0621    2.2040   28.8247 H         1 F9J         0.2224
     37 H7         -1.2632    2.8338   23.5545 H         1 F9J         0.0889
     38 H8         -1.4164    3.5401   21.1868 H         1 F9J         0.0287
     39 H9         -2.5499    4.8507   21.6603 H         1 F9J         0.0287
     40 H10        -3.0251    3.1316   21.8736 H         1 F9J         0.0287
     41 H11         0.3669    7.8512   24.1624 H         1 F9J         0.0907
     42 H12         2.8222    4.6517   22.8568 H         1 F9J         0.0907
     43 H13        -4.1035    3.8111   30.7912 H         1 F9J         0.0545
     44 H14        -3.4777    2.3529   29.9493 H         1 F9J         0.0545
     45 H15        -5.5733    2.0575   31.4233 H         1 F9J         0.0580
     46 H16        -5.6441    1.3998   29.7533 H         1 F9J         0.0580
     47 H17        -7.7620    4.0012   28.4911 H         1 F9J         0.0580
     48 H18        -6.6904    2.6226   28.0695 H         1 F9J         0.0580
     49 H19        -5.6767    4.8044   27.3835 H         1 F9J         0.0545
     50 H20        -5.7449    5.3618   29.0897 H         1 F9J         0.0545
@<TRIPOS>BOND
     1    1    2 1  
     2    2    3 1  
     3    2    6 2  
     4    3    4 2  
     5    4    5 1  
     6    4    7 1  
     7    5    6 1  
     8    7    8 1  
     9    8    9 ar 
    10    8   13 ar 
    11    9   10 ar 
    12   10   11 ar 
    13   10   25 1  
    14   11   12 ar 
    15   11   24 1  
    16   12   13 ar 
    17   12   14 1  
    18   14   15 1  
    19   15   16 1  
    20   15   17 1  
    21   17   18 ar 
    22   17   22 ar 
    23   18   19 ar 
    24   19   20 ar 
    25   20   21 ar 
    26   20   23 1  
    27   21   22 ar 
    28   25   26 1  
    29   25   30 1  
    30   26   27 1  
    31   27   28 1  
    32   28   29 1  
    33   29   30 1  
    34    1   31 1  
    35    1   32 1  
    36    1   33 1  
    37    3   34 1  
    38    5   35 1  
    39    7   36 1  
    40   15   37 1  
    41   16   38 1  
    42   16   39 1  
    43   16   40 1  
    44   19   41 1  
    45   21   42 1  
    46   26   43 1  
    47   26   44 1  
    48   27   45 1  
    49   27   46 1  
    50   29   47 1  
    51   29   48 1  
    52   30   49 1  
    53   30   50 1  
@<TRIPOS>SUBSTRUCTURE
     1 F9J         1

