### 
### Created by X-TOOL on Mon Sep 10 21:13:15 2018
### 

@<TRIPOS>MOLECULE
3zmv_ligand
  102   103     1     0     0
SMALL
GAST_HUCK


@<TRIPOS>ATOM
      1 N          -1.6580   51.8650  -32.6570 N.4       1 PRO         0.2461
      2 CA         -1.3190   50.6110  -31.9890 C.3       1 PRO         0.0670
      3 C          -1.6650   49.3740  -32.8260 C.2       1 PRO         0.2268
      4 O          -2.2640   49.4970  -33.8990 O.2       1 PRO        -0.3907
      5 CB         -2.1560   50.6520  -30.6970 C.3       1 PRO         0.0127
      6 CG         -3.1560   51.7530  -30.8780 C.3       1 PRO        -0.0053
      7 CD         -2.9620   52.3870  -32.2270 C.3       1 PRO        -0.0313
      8 N          -1.2710   48.2000  -32.3320 N.am      1 LEU        -0.2610
      9 CA         -1.5170   46.9350  -33.0220 C.3       1 LEU         0.1313
     10 C          -2.9900   46.6650  -33.2460 C.2       1 LEU         0.2040
     11 O          -3.3850   46.2530  -34.3400 O.2       1 LEU        -0.3944
     12 CB         -0.9060   45.7590  -32.2570 C.3       1 LEU        -0.0101
     13 CG          0.2070   44.9720  -32.9500 C.3       1 LEU        -0.0425
     14 CD1         0.7220   43.8720  -32.0310 C.3       1 LEU        -0.0625
     15 CD2        -0.2720   44.3920  -34.2750 C.3       1 LEU        -0.0625
     16 N          -3.7930   46.8970  -32.2090 N.am      1 SER        -0.2616
     17 CA         -5.2280   46.6110  -32.2530 C.3       1 SER         0.1539
     18 C          -5.9330   47.2800  -33.4410 C.2       1 SER         0.2063
     19 O          -7.0550   46.9110  -33.7910 O.2       1 SER        -0.3943
     20 CB         -5.8970   46.9860  -30.9270 C.3       1 SER         0.0843
     21 OG         -5.6030   48.3210  -30.5540 O.3       1 SER        -0.3903
     22 N          -5.2580   48.2430  -34.0660 N.am      1 PHE        -0.2619
     23 CA         -5.7950   48.9430  -35.2280 C.3       1 PHE         0.1404
     24 C          -5.5880   48.1660  -36.5250 C.2       1 PHE         0.2060
     25 O          -6.2110   48.4950  -37.5320 O.2       1 PHE        -0.3942
     26 CB         -5.1680   50.3320  -35.3670 C.3       1 PHE         0.0214
     27 CG         -5.7490   51.3810  -34.4470 C.ar      1 PHE        -0.0386
     28 CD1        -6.0310   51.1020  -33.1120 C.ar      1 PHE        -0.0601
     29 CD2        -5.9730   52.6720  -34.9150 C.ar      1 PHE        -0.0601
     30 CE1        -6.5450   52.0810  -32.2750 C.ar      1 PHE        -0.0686
     31 CE2        -6.4840   53.6560  -34.0810 C.ar      1 PHE        -0.0686
     32 CZ         -6.7650   53.3600  -32.7590 C.ar      1 PHE        -0.0687
     33 N          -4.7140   47.1540  -36.5080 N.am      1 LEU        -0.2636
     34 CA         -4.4610   46.3140  -37.6970 C.3       1 LEU         0.1312
     35 C          -5.7410   45.7680  -38.3070 C.2       1 LEU         0.2034
     36 O          -6.5810   45.1970  -37.6080 O.2       1 LEU        -0.3944
     37 CB         -3.5260   45.1380  -37.3910 C.3       1 LEU        -0.0101
     38 CG         -2.1220   45.0810  -38.0010 C.3       1 LEU        -0.0425
     39 CD1        -1.7220   43.6320  -38.2200 C.3       1 LEU        -0.0625
     40 CD2        -2.0240   45.8360  -39.3160 C.3       1 LEU        -0.0625
     41 N          -5.8800   45.9450  -39.6130 N.am      1 VAL        -0.2692
     42 CA         -7.0620   45.4770  -40.3200 C.3       1 VAL         0.0967
     43 C          -6.9750   43.9720  -40.5580 C.2       1 VAL         0.0603
     44 O          -5.9048   43.4287  -40.9417 O.co2     1 VAL        -0.5666
     45 CB         -7.2770   46.2620  -41.6290 C.3       1 VAL        -0.0118
     46 CG1        -8.0860   45.4620  -42.6370 C.3       1 VAL        -0.0590
     47 CG2        -7.9580   47.5830  -41.3230 C.3       1 VAL        -0.0590
     48 O          -7.9951   43.2575  -40.3668 O.co2     1 VAL        -0.5666
     49 H1         -1.6839   51.7062  -33.6521 H         1 PRO         0.2035
     50 H2         -0.9484   52.5485  -32.4441 H         1 PRO         0.2035
     51 H3         -0.2450   50.5870  -31.7524 H         1 PRO         0.1099
     52 H4         -1.5105   50.8624  -29.8316 H         1 PRO         0.0347
     53 H5         -2.6704   49.6915  -30.5458 H         1 PRO         0.0347
     54 H6         -3.0142   52.5103  -30.0929 H         1 PRO         0.0320
     55 H7         -4.1731   51.3398  -30.8096 H         1 PRO         0.0320
     56 H8         -3.7576   52.0841  -32.9236 H         1 PRO         0.0814
     57 H9         -2.9416   53.4840  -32.1483 H         1 PRO         0.0814
     58 H10        -0.7888   48.1842  -31.4561 H         1 LEU         0.1884
     59 H11        -1.0303   46.9954  -34.0066 H         1 LEU         0.0800
     60 H12        -1.7191   45.0529  -32.0326 H         1 LEU         0.0315
     61 H13        -0.4943   46.1549  -31.3169 H         1 LEU         0.0315
     62 H14         1.0370   45.6627  -33.1601 H         1 LEU         0.0298
     63 H15         1.5214   43.3134  -32.5399 H         1 LEU         0.0232
     64 H16        -0.1019   43.1873  -31.7811 H         1 LEU         0.0232
     65 H17         1.1185   44.3208  -31.1083 H         1 LEU         0.0232
     66 H18        -0.6383   45.2044  -34.9198 H         1 LEU         0.0232
     67 H19        -1.0862   43.6762  -34.0890 H         1 LEU         0.0232
     68 H20         0.5626   43.8768  -34.7729 H         1 LEU         0.0232
     69 H21        -3.4023   47.2796  -31.3718 H         1 SER         0.1884
     70 H22        -5.3384   45.5243  -32.3827 H         1 SER         0.0823
     71 H23        -5.5354   46.3076  -30.1402 H         1 SER         0.0606
     72 H24        -6.9864   46.8767  -31.0332 H         1 SER         0.0606
     73 H25        -6.0320   48.5202  -29.7301 H         1 SER         0.2097
     74 H26        -4.3516   48.4951  -33.7271 H         1 PHE         0.1885
     75 H27        -6.8772   49.0657  -35.0738 H         1 PHE         0.0823
     76 H28        -5.3092   50.6697  -36.4043 H         1 PHE         0.0474
     77 H29        -4.0926   50.2457  -35.1526 H         1 PHE         0.0474
     78 H30        -5.8465   50.1074  -32.7224 H         1 PHE         0.0557
     79 H31        -5.7448   52.9127  -35.9470 H         1 PHE         0.0557
     80 H32        -6.7746   51.8453  -31.2421 H         1 PHE         0.0599
     81 H33        -6.6626   54.6542  -34.4642 H         1 PHE         0.0599
     82 H34        -7.1570   54.1284  -32.1026 H         1 PHE         0.0559
     83 H35        -4.2155   46.9594  -35.6632 H         1 LEU         0.1883
     84 H36        -3.9716   46.9512  -38.4483 H         1 LEU         0.0800
     85 H37        -4.0485   44.2268  -37.7177 H         1 LEU         0.0315
     86 H38        -3.3961   45.1147  -36.2990 H         1 LEU         0.0315
     87 H39        -1.4198   45.5392  -37.2889 H         1 LEU         0.0298
     88 H40        -0.7138   43.5922  -38.6580 H         1 LEU         0.0232
     89 H41        -2.4381   43.1533  -38.9041 H         1 LEU         0.0232
     90 H42        -1.7244   43.1013  -37.2565 H         1 LEU         0.0232
     91 H43        -2.3134   46.8855  -39.1587 H         1 LEU         0.0232
     92 H44        -2.6981   45.3764  -40.0538 H         1 LEU         0.0232
     93 H45        -0.9895   45.7927  -39.6875 H         1 LEU         0.0232
     94 H46        -5.1568   46.4103  -40.1234 H         1 VAL         0.1875
     95 H47        -7.9348   45.6628  -39.6768 H         1 VAL         0.0729
     96 H48        -6.2920   46.4717  -42.0715 H         1 VAL         0.0336
     97 H49        -8.2174   46.0543  -43.5545 H         1 VAL         0.0234
     98 H50        -9.0714   45.2238  -42.2101 H         1 VAL         0.0234
     99 H51        -7.5546   44.5290  -42.8759 H         1 VAL         0.0234
    100 H52        -7.3569   48.1449  -40.5929 H         1 VAL         0.0234
    101 H53        -8.9576   47.3922  -40.9056 H         1 VAL         0.0234
    102 H54        -8.0530   48.1696  -42.2486 H         1 VAL         0.0234
@<TRIPOS>BOND
     1    1    2 1  
     2    1    7 1  
     3    2    3 1  
     4    2    5 1  
     5    3    4 2  
     6    3    8 am 
     7    5    6 1  
     8    6    7 1  
     9    8    9 1  
    10    9   10 1  
    11    9   12 1  
    12   10   11 2  
    13   10   16 am 
    14   12   13 1  
    15   13   14 1  
    16   13   15 1  
    17   16   17 1  
    18   17   18 1  
    19   17   20 1  
    20   18   19 2  
    21   18   22 am 
    22   20   21 1  
    23   22   23 1  
    24   23   24 1  
    25   23   26 1  
    26   24   25 2  
    27   24   33 am 
    28   26   27 1  
    29   27   28 ar 
    30   27   29 ar 
    31   28   30 ar 
    32   29   31 ar 
    33   30   32 ar 
    34   31   32 ar 
    35   33   34 1  
    36   34   35 1  
    37   34   37 1  
    38   35   36 2  
    39   35   41 am 
    40   37   38 1  
    41   38   39 1  
    42   38   40 1  
    43   41   42 1  
    44   42   43 1  
    45   42   45 1  
    46   43   44 ar 
    47   45   46 1  
    48   45   47 1  
    49   43   48 ar 
    50    1   49 1  
    51    1   50 1  
    52    2   51 1  
    53    5   52 1  
    54    5   53 1  
    55    6   54 1  
    56    6   55 1  
    57    7   56 1  
    58    7   57 1  
    59    8   58 1  
    60    9   59 1  
    61   12   60 1  
    62   12   61 1  
    63   13   62 1  
    64   14   63 1  
    65   14   64 1  
    66   14   65 1  
    67   15   66 1  
    68   15   67 1  
    69   15   68 1  
    70   16   69 1  
    71   17   70 1  
    72   20   71 1  
    73   20   72 1  
    74   21   73 1  
    75   22   74 1  
    76   23   75 1  
    77   26   76 1  
    78   26   77 1  
    79   28   78 1  
    80   29   79 1  
    81   30   80 1  
    82   31   81 1  
    83   32   82 1  
    84   33   83 1  
    85   34   84 1  
    86   37   85 1  
    87   37   86 1  
    88   38   87 1  
    89   39   88 1  
    90   39   89 1  
    91   39   90 1  
    92   40   91 1  
    93   40   92 1  
    94   40   93 1  
    95   41   94 1  
    96   42   95 1  
    97   45   96 1  
    98   46   97 1  
    99   46   98 1  
   100   46   99 1  
   101   47  100 1  
   102   47  101 1  
   103   47  102 1  
@<TRIPOS>SUBSTRUCTURE
     1 PRO         1

