### 
### Created by X-TOOL on Mon Sep 10 21:13:15 2018
### 

@<TRIPOS>MOLECULE
3zmz_ligand
   98    99     1     0     0
SMALL
GAST_HUCK


@<TRIPOS>ATOM
      1 N          -1.6560   53.9980   84.8150 N.4       1 PRO         0.2461
      2 CA         -1.0610   52.7700   85.3310 C.3       1 PRO         0.0670
      3 C          -1.4130   51.5520   84.4730 C.2       1 PRO         0.2268
      4 O          -2.2100   51.6680   83.5350 O.2       1 PRO        -0.3907
      5 CB         -1.7000   52.6410   86.7130 C.3       1 PRO         0.0127
      6 CG         -3.0440   53.2670   86.5550 C.3       1 PRO        -0.0053
      7 CD         -2.8740   54.3750   85.5540 C.3       1 PRO        -0.0313
      8 N          -0.8330   50.3990   84.8120 N.am      1 ARG        -0.2610
      9 CA         -1.0440   49.1560   84.0640 C.3       1 ARG         0.1312
     10 C          -2.5210   48.8000   83.8780 C.2       1 ARG         0.2040
     11 O          -2.9190   48.3250   82.8160 O.2       1 ARG        -0.3944
     12 CB         -0.3150   47.9860   84.7290 C.3       1 ARG        -0.0092
     13 CG         -0.1270   46.7950   83.8050 C.3       1 ARG        -0.0156
     14 CD         -0.1410   45.4810   84.5630 C.3       1 ARG         0.0627
     15 NE          0.2230   44.3540   83.7010 N.pl3     1 ARG        -0.2723
     16 CZ          1.4000   43.7310   83.7210 C.cat     1 ARG         0.2882
     17 NH1         2.3550   44.1070   84.5660 N.pl3     1 ARG        -0.2849
     18 NH2         1.6230   42.7190   82.8950 N.pl3     1 ARG        -0.2849
     19 N          -3.3260   49.0390   84.9090 N.am      1 SER        -0.2616
     20 CA         -4.7450   48.6800   84.8850 C.3       1 SER         0.1539
     21 C          -5.5350   49.3240   83.7410 C.2       1 SER         0.2063
     22 O          -6.6320   48.8680   83.4120 O.2       1 SER        -0.3943
     23 CB         -5.4070   48.9750   86.2360 C.3       1 SER         0.0843
     24 OG         -4.9130   50.1740   86.8070 O.3       1 SER        -0.3903
     25 N          -4.9730   50.3680   83.1330 N.am      1 PHE        -0.2619
     26 CA         -5.6230   51.0450   82.0090 C.3       1 PHE         0.1404
     27 C          -5.5220   50.2490   80.7140 C.2       1 PHE         0.2059
     28 O          -6.3790   50.3830   79.8370 O.2       1 PHE        -0.3942
     29 CB         -5.0400   52.4460   81.7830 C.3       1 PHE         0.0214
     30 CG         -5.5180   53.4840   82.7640 C.ar      1 PHE        -0.0386
     31 CD1        -6.5820   53.2320   83.6300 C.ar      1 PHE        -0.0601
     32 CD2        -4.9190   54.7380   82.7950 C.ar      1 PHE        -0.0601
     33 CE1        -7.0130   54.1990   84.5240 C.ar      1 PHE        -0.0686
     34 CE2        -5.3520   55.7100   83.6830 C.ar      1 PHE        -0.0686
     35 CZ         -6.3950   55.4370   84.5500 C.ar      1 PHE        -0.0687
     36 N          -4.4710   49.4310   80.6040 N.am      1 ALA        -0.2639
     37 CA         -4.1700   48.6780   79.3820 C.3       1 ALA         0.1282
     38 C          -5.3100   47.7600   78.9720 C.2       1 ALA         0.2031
     39 O          -5.8550   47.0140   79.7890 O.2       1 ALA        -0.3944
     40 CB         -2.8760   47.8880   79.5350 C.3       1 ALA        -0.0244
     41 N          -5.6590   47.8370   77.6930 N.am      1 VAL        -0.2692
     42 CA         -6.7330   47.0480   77.1040 C.3       1 VAL         0.0967
     43 C          -6.4480   45.5530   77.1990 C.2       1 VAL         0.0603
     44 O          -5.2872   45.0897   77.0395 O.co2     1 VAL        -0.5666
     45 CB         -6.9430   47.4470   75.6350 C.3       1 VAL        -0.0118
     46 CG1        -7.8980   46.4940   74.9390 C.3       1 VAL        -0.0590
     47 CG2        -7.4540   48.8730   75.5600 C.3       1 VAL        -0.0590
     48 O          -7.3972   44.7611   77.4431 O.co2     1 VAL        -0.5666
     49 H1         -1.8932   53.8619   83.8448 H         1 PRO         0.2035
     50 H2         -0.9830   54.7442   84.8949 H         1 PRO         0.2035
     51 H3          0.0326   52.8639   85.4029 H         1 PRO         0.1099
     52 H4         -1.1067   53.1767   87.4686 H         1 PRO         0.0347
     53 H5         -1.7937   51.5839   87.0022 H         1 PRO         0.0347
     54 H6         -3.3918   53.6719   87.5168 H         1 PRO         0.0320
     55 H7         -3.7687   52.5267   86.1852 H         1 PRO         0.0320
     56 H8         -3.7408   54.4294   84.8789 H         1 PRO         0.0814
     57 H9         -2.7417   55.3429   86.0597 H         1 PRO         0.0814
     58 H10        -0.2295   50.3822   85.6092 H         1 ARG         0.1884
     59 H11        -0.6107   49.3011   83.0634 H         1 ARG         0.0800
     60 H12        -0.8989   47.6616   85.6030 H         1 ARG         0.0313
     61 H13         0.6756   48.3329   85.0580 H         1 ARG         0.0313
     62 H14         0.8381   46.8960   83.2870 H         1 ARG         0.0301
     63 H15        -0.9411   46.7871   83.0653 H         1 ARG         0.0301
     64 H16        -1.1513   45.3114   84.9637 H         1 ARG         0.0689
     65 H17         0.5776   45.5410   85.3936 H         1 ARG         0.0689
     66 H18        -0.4831   44.0187   83.0302 H         1 ARG         0.2642
     67 H19         3.2607   43.6165   84.5709 H         1 ARG         0.2615
     68 H20         2.1892   44.8888   85.2157 H         1 ARG         0.2615
     69 H21         0.8893   42.4203   82.2367 H         1 ARG         0.2615
     70 H22         2.5300   42.2311   82.9113 H         1 ARG         0.2615
     71 H23        -2.9506   49.4773   85.7257 H         1 SER         0.1884
     72 H24        -4.7922   47.5923   84.7280 H         1 SER         0.0823
     73 H25        -5.2024   48.1412   86.9237 H         1 SER         0.0606
     74 H26        -6.4928   49.0706   86.0884 H         1 SER         0.0606
     75 H27        -5.3424   50.3269   87.6405 H         1 SER         0.2097
     76 H28        -4.0846   50.6976   83.4525 H         1 PHE         0.1885
     77 H29        -6.6887   51.1531   82.2591 H         1 PHE         0.0823
     78 H30        -5.3180   52.7753   80.7709 H         1 PHE         0.0474
     79 H31        -3.9447   52.3793   81.8590 H         1 PHE         0.0474
     80 H32        -7.0776   52.2683   83.6033 H         1 PHE         0.0557
     81 H33        -4.1031   54.9584   82.1162 H         1 PHE         0.0557
     82 H34        -7.8322   53.9863   85.2013 H         1 PHE         0.0599
     83 H35        -4.8741   56.6829   83.6982 H         1 PHE         0.0599
     84 H36        -6.7286   56.1939   85.2507 H         1 PHE         0.0559
     85 H37        -3.8622   49.3276   81.3905 H         1 ALA         0.1883
     86 H38        -4.0249   49.4079   78.5720 H         1 ALA         0.0797
     87 H39        -2.6732   47.3333   78.6070 H         1 ALA         0.0277
     88 H40        -2.9752   47.1801   80.3711 H         1 ALA         0.0277
     89 H41        -2.0455   48.5803   79.7373 H         1 ALA         0.0277
     90 H42        -5.1581   48.4701   77.1028 H         1 VAL         0.1875
     91 H43        -7.6587   47.2588   77.6595 H         1 VAL         0.0729
     92 H44        -5.9725   47.3973   75.1197 H         1 VAL         0.0336
     93 H45        -8.0279   46.8049   73.8919 H         1 VAL         0.0234
     94 H46        -8.8718   46.5122   75.4503 H         1 VAL         0.0234
     95 H47        -7.4864   45.4744   74.9704 H         1 VAL         0.0234
     96 H48        -6.7465   49.5433   76.0701 H         1 VAL         0.0234
     97 H49        -8.4371   48.9365   76.0494 H         1 VAL         0.0234
     98 H50        -7.5489   49.1736   74.5061 H         1 VAL         0.0234
@<TRIPOS>BOND
     1    1    2 1  
     2    1    7 1  
     3    2    3 1  
     4    2    5 1  
     5    3    4 2  
     6    3    8 am 
     7    5    6 1  
     8    6    7 1  
     9    8    9 1  
    10    9   10 1  
    11    9   12 1  
    12   10   11 2  
    13   10   19 am 
    14   12   13 1  
    15   13   14 1  
    16   14   15 1  
    17   15   16 ar 
    18   16   17 ar 
    19   16   18 ar 
    20   19   20 1  
    21   20   21 1  
    22   20   23 1  
    23   21   22 2  
    24   21   25 am 
    25   23   24 1  
    26   25   26 1  
    27   26   27 1  
    28   26   29 1  
    29   27   28 2  
    30   27   36 am 
    31   29   30 1  
    32   30   31 ar 
    33   30   32 ar 
    34   31   33 ar 
    35   32   34 ar 
    36   33   35 ar 
    37   34   35 ar 
    38   36   37 1  
    39   37   38 1  
    40   37   40 1  
    41   38   39 2  
    42   38   41 am 
    43   41   42 1  
    44   42   43 1  
    45   42   45 1  
    46   43   44 ar 
    47   45   46 1  
    48   45   47 1  
    49   43   48 ar 
    50    1   49 1  
    51    1   50 1  
    52    2   51 1  
    53    5   52 1  
    54    5   53 1  
    55    6   54 1  
    56    6   55 1  
    57    7   56 1  
    58    7   57 1  
    59    8   58 1  
    60    9   59 1  
    61   12   60 1  
    62   12   61 1  
    63   13   62 1  
    64   13   63 1  
    65   14   64 1  
    66   14   65 1  
    67   15   66 1  
    68   17   67 1  
    69   17   68 1  
    70   18   69 1  
    71   18   70 1  
    72   19   71 1  
    73   20   72 1  
    74   23   73 1  
    75   23   74 1  
    76   24   75 1  
    77   25   76 1  
    78   26   77 1  
    79   29   78 1  
    80   29   79 1  
    81   31   80 1  
    82   32   81 1  
    83   33   82 1  
    84   34   83 1  
    85   35   84 1  
    86   36   85 1  
    87   37   86 1  
    88   40   87 1  
    89   40   88 1  
    90   40   89 1  
    91   41   90 1  
    92   42   91 1  
    93   45   92 1  
    94   46   93 1  
    95   46   94 1  
    96   46   95 1  
    97   47   96 1  
    98   47   97 1  
    99   47   98 1  
@<TRIPOS>SUBSTRUCTURE
     1 PRO         1

