### 
### Created by X-TOOL on Mon Sep 10 21:13:15 2018
### 

@<TRIPOS>MOLECULE
3zn0_ligand
   92    93     1     0     0
SMALL
GAST_HUCK


@<TRIPOS>ATOM
      1 N          -0.7970   54.1950   84.9750 N.4       1 PRO         0.2461
      2 CA         -0.9660   52.8370   85.4720 C.3       1 PRO         0.0670
      3 C          -1.2000   51.8250   84.3490 C.2       1 PRO         0.2268
      4 O          -1.7000   52.1920   83.2810 O.2       1 PRO        -0.3907
      5 CB         -2.2160   52.9480   86.3500 C.3       1 PRO         0.0127
      6 CG         -2.9980   54.0870   85.7780 C.3       1 PRO        -0.0053
      7 CD         -2.0660   54.9430   84.9620 C.3       1 PRO        -0.0313
      8 N          -0.8510   50.5640   84.6010 N.am      1 ARG        -0.2610
      9 CA         -1.1030   49.4810   83.6460 C.3       1 ARG         0.1312
     10 C          -2.6060   49.2280   83.4630 C.2       1 ARG         0.2040
     11 O          -3.0240   48.6390   82.4660 O.2       1 ARG        -0.3944
     12 CB         -0.3910   48.1900   84.0800 C.3       1 ARG        -0.0092
     13 CG         -0.2780   47.1510   82.9680 C.3       1 ARG        -0.0156
     14 CD         -0.1480   45.7300   83.5010 C.3       1 ARG         0.0627
     15 NE          1.2540   45.3520   83.7310 N.pl3     1 ARG        -0.2723
     16 CZ          1.7000   44.0970   83.7670 C.cat     1 ARG         0.2882
     17 NH1         0.8610   43.0750   83.5810 N.pl3     1 ARG        -0.2849
     18 NH2         2.9940   43.8610   83.9840 N.pl3     1 ARG        -0.2849
     19 N          -3.4040   49.6930   84.4230 N.am      1 SER        -0.2616
     20 CA         -4.8530   49.4680   84.4500 C.3       1 SER         0.1539
     21 C          -5.6030   49.9720   83.2120 C.2       1 SER         0.2063
     22 O          -6.6190   49.3920   82.8280 O.2       1 SER        -0.3943
     23 CB         -5.4650   50.0970   85.7070 C.3       1 SER         0.0843
     24 OG         -4.7780   49.6850   86.8770 O.3       1 SER        -0.3903
     25 N          -5.1050   51.0450   82.5970 N.am      1 PHE        -0.2619
     26 CA         -5.7780   51.6660   81.4480 C.3       1 PHE         0.1404
     27 C          -5.6590   50.8620   80.1530 C.2       1 PHE         0.2059
     28 O          -6.4850   51.0190   79.2490 O.2       1 PHE        -0.3942
     29 CB         -5.2730   53.0970   81.2060 C.3       1 PHE         0.0214
     30 CG         -5.6040   54.0670   82.3110 C.ar      1 PHE        -0.0386
     31 CD1        -6.7370   53.8980   83.1050 C.ar      1 PHE        -0.0601
     32 CD2        -4.7920   55.1720   82.5370 C.ar      1 PHE        -0.0601
     33 CE1        -7.0320   54.7960   84.1180 C.ar      1 PHE        -0.0686
     34 CE2        -5.0900   56.0770   83.5430 C.ar      1 PHE        -0.0686
     35 CZ         -6.2090   55.8880   84.3350 C.ar      1 PHE        -0.0687
     36 N          -4.6320   50.0130   80.0730 N.am      1 ALA        -0.2639
     37 CA         -4.3140   49.2430   78.8640 C.3       1 ALA         0.1282
     38 C          -5.5170   48.4860   78.2930 C.2       1 ALA         0.2031
     39 O          -6.2890   47.8680   79.0340 O.2       1 ALA        -0.3944
     40 CB         -3.1520   48.2920   79.1260 C.3       1 ALA        -0.0244
     41 N          -5.6610   48.5540   76.9700 N.am      1 ALA        -0.2698
     42 CA         -6.7520   47.9030   76.2480 C.3       1 ALA         0.0916
     43 C          -6.6890   46.3800   76.3630 C.2       1 ALA         0.0598
     44 O          -5.5882   45.7760   76.4683 O.co2     1 ALA        -0.5666
     45 CB         -6.7360   48.3260   74.7890 C.3       1 ALA        -0.0300
     46 O          -7.7594   45.7153   76.3522 O.co2     1 ALA        -0.5666
     47 H1         -0.4342   54.1543   84.0354 H         1 PRO         0.2035
     48 H2         -0.1409   54.6787   85.5679 H         1 PRO         0.2035
     49 H3         -0.0911   52.5278   86.0628 H         1 PRO         0.1099
     50 H4         -1.9371   53.1572   87.3933 H         1 PRO         0.0347
     51 H5         -2.8016   52.0179   86.3065 H         1 PRO         0.0347
     52 H6         -3.4334   54.6845   86.5925 H         1 PRO         0.0320
     53 H7         -3.8033   53.6995   85.1366 H         1 PRO         0.0320
     54 H8         -2.4409   55.0604   83.9345 H         1 PRO         0.0814
     55 H9         -1.9410   55.9342   85.4222 H         1 PRO         0.0814
     56 H10        -0.4030   50.3497   85.4690 H         1 ARG         0.1884
     57 H11        -0.6905   49.7871   82.6733 H         1 ARG         0.0800
     58 H12        -0.9537   47.7463   84.9146 H         1 ARG         0.0313
     59 H13         0.6232   48.4490   84.4182 H         1 ARG         0.0313
     60 H14         0.6095   47.3812   82.3603 H         1 ARG         0.0301
     61 H15        -1.1785   47.2097   82.3389 H         1 ARG         0.0301
     62 H16        -0.5873   45.0353   82.7700 H         1 ARG         0.0689
     63 H17        -0.6958   45.6563   84.4520 H         1 ARG         0.0689
     64 H18         1.9379   46.1088   83.8740 H         1 ARG         0.2642
     65 H19         1.2133   42.1076   83.6103 H         1 ARG         0.2615
     66 H20        -0.1385   43.2541   83.4082 H         1 ARG         0.2615
     67 H21         3.6438   44.6471   84.1278 H         1 ARG         0.2615
     68 H22         3.3440   42.8926   84.0078 H         1 ARG         0.2615
     69 H23        -2.9933   50.2236   85.1645 H         1 SER         0.1884
     70 H24        -5.0084   48.3803   84.5031 H         1 SER         0.0823
     71 H25        -6.5187   49.7909   85.7840 H         1 SER         0.0606
     72 H26        -5.4064   51.1923   85.6243 H         1 SER         0.0606
     73 H27        -5.1788   50.0898   87.6373 H         1 SER         0.2097
     74 H28        -4.2475   51.4391   82.9277 H         1 PHE         0.1885
     75 H29        -6.8474   51.7256   81.6986 H         1 PHE         0.0823
     76 H30        -5.7248   53.4688   80.2745 H         1 PHE         0.0474
     77 H31        -4.1792   53.0621   81.0946 H         1 PHE         0.0474
     78 H32        -7.3946   53.0546   82.9280 H         1 PHE         0.0557
     79 H33        -3.9152   55.3277   81.9190 H         1 PHE         0.0557
     80 H34        -7.9065   54.6437   84.7402 H         1 PHE         0.0599
     81 H35        -4.4465   56.9332   83.7097 H         1 PHE         0.0599
     82 H36        -6.4408   56.5940   85.1242 H         1 PHE         0.0559
     83 H37        -4.0496   49.8955   80.8774 H         1 ALA         0.1883
     84 H38        -3.9904   49.9621   78.0971 H         1 ALA         0.0797
     85 H39        -2.9288   47.7248   78.2103 H         1 ALA         0.0277
     86 H40        -3.4235   47.5946   79.9322 H         1 ALA         0.0277
     87 H41        -2.2651   48.8702   79.4245 H         1 ALA         0.0277
     88 H42        -4.9890   49.0765   76.4451 H         1 ALA         0.1875
     89 H43        -7.7007   48.2366   76.6938 H         1 ALA         0.0723
     90 H44        -7.5603   47.8310   74.2547 H         1 ALA         0.0270
     91 H45        -5.7775   48.0362   74.3337 H         1 ALA         0.0270
     92 H46        -6.8587   49.4171   74.7222 H         1 ALA         0.0270
@<TRIPOS>BOND
     1    1    2 1  
     2    1    7 1  
     3    2    3 1  
     4    2    5 1  
     5    3    4 2  
     6    3    8 am 
     7    5    6 1  
     8    6    7 1  
     9    8    9 1  
    10    9   10 1  
    11    9   12 1  
    12   10   11 2  
    13   10   19 am 
    14   12   13 1  
    15   13   14 1  
    16   14   15 1  
    17   15   16 ar 
    18   16   17 ar 
    19   16   18 ar 
    20   19   20 1  
    21   20   21 1  
    22   20   23 1  
    23   21   22 2  
    24   21   25 am 
    25   23   24 1  
    26   25   26 1  
    27   26   27 1  
    28   26   29 1  
    29   27   28 2  
    30   27   36 am 
    31   29   30 1  
    32   30   31 ar 
    33   30   32 ar 
    34   31   33 ar 
    35   32   34 ar 
    36   33   35 ar 
    37   34   35 ar 
    38   36   37 1  
    39   37   38 1  
    40   37   40 1  
    41   38   39 2  
    42   38   41 am 
    43   41   42 1  
    44   42   43 1  
    45   42   45 1  
    46   43   44 ar 
    47   43   46 ar 
    48    1   47 1  
    49    1   48 1  
    50    2   49 1  
    51    5   50 1  
    52    5   51 1  
    53    6   52 1  
    54    6   53 1  
    55    7   54 1  
    56    7   55 1  
    57    8   56 1  
    58    9   57 1  
    59   12   58 1  
    60   12   59 1  
    61   13   60 1  
    62   13   61 1  
    63   14   62 1  
    64   14   63 1  
    65   15   64 1  
    66   17   65 1  
    67   17   66 1  
    68   18   67 1  
    69   18   68 1  
    70   19   69 1  
    71   20   70 1  
    72   23   71 1  
    73   23   72 1  
    74   24   73 1  
    75   25   74 1  
    76   26   75 1  
    77   29   76 1  
    78   29   77 1  
    79   31   78 1  
    80   32   79 1  
    81   33   80 1  
    82   34   81 1  
    83   35   82 1  
    84   36   83 1  
    85   37   84 1  
    86   40   85 1  
    87   40   86 1  
    88   40   87 1  
    89   41   88 1  
    90   42   89 1  
    91   45   90 1  
    92   45   91 1  
    93   45   92 1  
@<TRIPOS>SUBSTRUCTURE
     1 PRO         1

