### 
### Created by X-TOOL on Mon Sep 10 21:12:47 2018
### 

@<TRIPOS>MOLECULE
3znc_ligand
   45    46     1     0     0
SMALL
GAST_HUCK


@<TRIPOS>ATOM
      1 C3          0.6630   37.8550   22.0150 C.3       1 BZ1        -0.0123
      2 C9          3.8590   35.6170   18.6050 C.2       1 BZ1         0.0145
      3 C10         4.7060   35.8980   19.8680 C.2       1 BZ1         0.1611
      4 C11         2.3400   35.3690   18.6830 C.3       1 BZ1         0.0179
      5 C12         1.9010   35.0770   20.1330 C.3       1 BZ1         0.0785
      6 S1          7.3100   35.9950   16.7560 S.o2      1 BZ1         0.0744
      7 C4          1.0710   39.0800   22.8340 C.3       1 BZ1         0.0488
      8 C5          3.2840   32.3460   17.4210 C.3       1 BZ1        -0.0245
      9 C6          2.1310   32.8140   18.3230 C.3       1 BZ1        -0.0353
     10 S2          6.4210   36.2290   19.4930 S.3       1 BZ1        -0.0013
     11 N2          7.1250   34.9090   15.5060 N.am      1 BZ1        -0.2605
     12 O3          7.5270   37.3600   15.9770 O.2       1 BZ1        -0.1500
     13 O4          8.5510   35.4710   17.5840 O.2       1 BZ1        -0.1500
     14 C7          5.9270   35.8850   17.8310 C.2       1 BZ1         0.1594
     15 C8          4.6580   35.6100   17.5270 C.2       1 BZ1        -0.0394
     16 S3          3.9340   35.9460   21.4910 S.o2      1 BZ1         0.0727
     17 O2          4.4310   37.2230   22.2880 O.2       1 BZ1        -0.1520
     18 O5          4.2010   34.6370   22.3620 O.2       1 BZ1        -0.1520
     19 N3          2.2460   36.0870   21.1820 N.am      1 BZ1        -0.2286
     20 N1          1.7690   34.2050   17.9020 N.4       1 BZ1         0.2389
     21 C2          1.7530   37.4810   21.0310 C.3       1 BZ1         0.0319
     22 O1          1.3040   38.6950   24.2040 O.3       1 BZ1        -0.3829
     23 C1          0.2150   38.2580   25.0580 C.3       1 BZ1         0.0364
     24 H1         -0.2604   38.0817   21.4619 H         1 BZ1         0.0303
     25 H2          0.4848   37.0090   22.6951 H         1 BZ1         0.0303
     26 H3          1.8520   36.2892   18.3294 H         1 BZ1         0.0982
     27 H4          2.3629   34.1240   20.4303 H         1 BZ1         0.0552
     28 H5          0.8064   34.9685   20.1291 H         1 BZ1         0.0552
     29 H6          0.2662   39.8289   22.7968 H         1 BZ1         0.0560
     30 H7          1.9920   39.5103   22.4138 H         1 BZ1         0.0560
     31 H8          3.5778   31.3239   17.7022 H         1 BZ1         0.0281
     32 H9          4.1434   33.0215   17.5442 H         1 BZ1         0.0281
     33 H10         2.9561   32.3575   16.3711 H         1 BZ1         0.0281
     34 H11         2.4518   32.8112   19.3752 H         1 BZ1         0.0811
     35 H12         1.2646   32.1472   18.2021 H         1 BZ1         0.0811
     36 H13         6.3911   35.0352   14.8385 H         1 BZ1         0.1635
     37 H14         7.7479   34.1311   15.4232 H         1 BZ1         0.1635
     38 H15         4.3090   35.4028   16.5164 H         1 BZ1         0.0415
     39 H16         2.0681   34.3134   16.9455 H         1 BZ1         0.2027
     40 H17         0.7649   34.2784   17.9505 H         1 BZ1         0.2027
     41 H18         2.6011   38.1662   21.1762 H         1 BZ1         0.0479
     42 H19         1.3559   37.5997   20.0121 H         1 BZ1         0.0479
     43 H20         0.6073   38.0131   26.0560 H         1 BZ1         0.0523
     44 H21        -0.2584   37.3663   24.6212 H         1 BZ1         0.0523
     45 H22        -0.5293   39.0633   25.1442 H         1 BZ1         0.0523
@<TRIPOS>BOND
     1    1    7 1  
     2   21    1 1  
     3    3    2 2  
     4    4    2 1  
     5    2   15 1  
     6    3   10 1  
     7   16    3 1  
     8    5    4 1  
     9    4   20 1  
    10   19    5 1  
    11    6   11 am 
    12    6   12 2  
    13    6   13 2  
    14   14    6 1  
    15    7   22 1  
    16    9    8 1  
    17   20    9 1  
    18   10   14 1  
    19   14   15 2  
    20   16   17 2  
    21   16   18 2  
    22   19   16 am 
    23   19   21 1  
    24    1   24 1  
    25   22   23 1  
    26    1   25 1  
    27    4   26 1  
    28    5   27 1  
    29    5   28 1  
    30    7   29 1  
    31    7   30 1  
    32    8   31 1  
    33    8   32 1  
    34    8   33 1  
    35    9   34 1  
    36    9   35 1  
    37   11   36 1  
    38   11   37 1  
    39   15   38 1  
    40   20   39 1  
    41   20   40 1  
    42   21   41 1  
    43   21   42 1  
    44   23   43 1  
    45   23   44 1  
    46   23   45 1  
@<TRIPOS>SUBSTRUCTURE
     1 BZ1         1

