### 
### Created by X-TOOL on Mon Sep 10 21:13:14 2018
### 

@<TRIPOS>MOLECULE
3zns_ligand
   62    66     1     0     0
SMALL
GAST_HUCK


@<TRIPOS>ATOM
      1 C1         -8.6360    6.4160  -21.3400 C.3       1 NU7        -0.0432
      2 N2         -9.8630    6.1430  -20.5640 N.4       1 NU7         0.2316
      3 F01        -2.6060   -1.0940  -12.6540 F         1 NU7        -0.2155
      4 C02        -3.7900   -1.4100  -12.1410 C.3       1 NU7         0.4382
      5 F03        -4.0880   -2.6420  -12.5280 F         1 NU7        -0.2155
      6 F04        -3.7880   -1.3210  -10.8150 F         1 NU7        -0.2155
      7 C05        -4.8300   -0.4430  -12.6230 C.2       1 NU7         0.3170
      8 N06        -5.9250   -0.7340  -13.3010 N.2       1 NU7        -0.2046
      9 C07        -6.6180    0.4560  -13.5390 C.2       1 NU7         0.1880
     10 N08        -5.9340    1.4530  -13.0120 N.2       1 NU7        -0.0454
     11 O09        -4.7880    0.9260  -12.4080 O.3       1 NU7        -0.0969
     12 C10        -7.8800    0.5880  -14.2860 C.ar      1 NU7         0.0262
     13 C11        -8.5900   -0.5500  -14.6850 C.ar      1 NU7        -0.0460
     14 C12        -9.7810   -0.4010  -15.4110 C.ar      1 NU7        -0.0549
     15 C13       -10.2540    0.8770  -15.7410 C.ar      1 NU7        -0.0413
     16 C14        -9.5370    2.0150  -15.3410 C.ar      1 NU7         0.0513
     17 C15        -8.3440    1.8660  -14.6210 C.ar      1 NU7        -0.0301
     18 C16       -10.0240    3.3650  -15.7100 C.2       1 NU7         0.2043
     19 O17       -11.2330    3.6150  -15.7010 O.2       1 NU7        -0.3846
     20 N18        -9.1200    4.2620  -16.1150 N.am      1 NU7        -0.2967
     21 C19        -9.4850    5.5720  -16.6920 C.3       1 NU7         0.0070
     22 C20        -8.5790    5.8860  -17.8960 C.3       1 NU7         0.0076
     23 C21        -8.9700    7.2590  -18.5040 C.3       1 NU7        -0.0354
     24 C22       -10.1020    7.1830  -19.5490 C.3       1 NU7        -0.0418
     25 C24        -9.7920    4.8220  -19.9250 C.3       1 NU7        -0.0418
     26 C25        -8.6180    4.7330  -18.9310 C.3       1 NU7        -0.0354
     27 C26        -7.1650    5.9680  -17.3580 C.2       1 NU7         0.0880
     28 N27        -6.3800    4.9630  -16.9980 N.2       1 NU7        -0.2474
     29 C28        -5.0930    5.2700  -16.5300 C.2       1 NU7         0.1052
     30 C29        -4.7760    6.5760  -16.4990 C.2       1 NU7         0.0818
     31 S30        -6.2070    7.4290  -17.0950 S.3       1 NU7         0.0330
     32 C31        -4.1380    4.2110  -16.0930 C.ar      1 NU7         0.0038
     33 C32        -2.7500    4.4460  -16.0500 C.ar      1 NU7        -0.0532
     34 C33        -1.8680    3.4410  -15.6350 C.ar      1 NU7        -0.0619
     35 C34        -2.3600    2.1880  -15.2530 C.ar      1 NU7        -0.0624
     36 C35        -3.7380    1.9460  -15.2900 C.ar      1 NU7        -0.0619
     37 C36        -4.6250    2.9520  -15.7060 C.ar      1 NU7        -0.0532
     38 H1         -8.7117    7.4084  -21.8085 H         1 NU7         0.0777
     39 H2         -8.5178    5.6501  -22.1207 H         1 NU7         0.0777
     40 H3         -7.7649    6.3929  -20.6688 H         1 NU7         0.0777
     41 H4        -10.6424    6.1435  -21.2032 H         1 NU7         0.2030
     42 H5         -8.2226   -1.5387  -14.4351 H         1 NU7         0.0665
     43 H6        -10.3385   -1.2783  -15.7184 H         1 NU7         0.0631
     44 H7        -11.1733    0.9859  -16.3050 H         1 NU7         0.0674
     45 H8         -7.7792    2.7419  -14.3228 H         1 NU7         0.0685
     46 H9         -8.1503    4.0357  -16.0231 H         1 NU7         0.1832
     47 H10        -9.3607    6.3540  -15.9285 H         1 NU7         0.0392
     48 H11       -10.5339    5.5454  -17.0223 H         1 NU7         0.0392
     49 H12        -8.0807    7.6888  -18.9881 H         1 NU7         0.0192
     50 H13        -9.2974    7.9185  -17.6868 H         1 NU7         0.0192
     51 H14       -11.0462    6.9599  -19.0307 H         1 NU7         0.0804
     52 H15       -10.1821    8.1570  -20.0538 H         1 NU7         0.0804
     53 H16        -9.6592    4.0560  -20.7032 H         1 NU7         0.0804
     54 H17       -10.7318    4.6364  -19.3844 H         1 NU7         0.0804
     55 H18        -8.6982    3.7812  -18.3855 H         1 NU7         0.0192
     56 H19        -7.6786    4.7498  -19.5030 H         1 NU7         0.0192
     57 H20        -3.8346    7.0171  -16.1747 H         1 NU7         0.1325
     58 H21        -2.3606    5.4149  -16.3412 H         1 NU7         0.0617
     59 H22        -0.8016    3.6340  -15.6096 H         1 NU7         0.0616
     60 H23        -1.6781    1.4096  -14.9304 H         1 NU7         0.0612
     61 H24        -4.1228    0.9763  -14.9958 H         1 NU7         0.0616
     62 H25        -5.6909    2.7558  -15.7285 H         1 NU7         0.0617
@<TRIPOS>BOND
     1    2    1 1  
     2   24    2 1  
     3    2   25 1  
     4    4    3 1  
     5    4    5 1  
     6    4    6 1  
     7    7    4 1  
     8    8    7 2  
     9   11    7 1  
    10    9    8 1  
    11    9   10 2  
    12   12    9 1  
    13   10   11 1  
    14   12   13 ar 
    15   17   12 ar 
    16   14   13 ar 
    17   15   14 ar 
    18   16   15 ar 
    19   16   17 ar 
    20   18   16 1  
    21   18   19 2  
    22   20   18 am 
    23   21   20 1  
    24   22   21 1  
    25   23   22 1  
    26   22   26 1  
    27   22   27 1  
    28   23   24 1  
    29   25   26 1  
    30   27   28 2  
    31   27   31 1  
    32   28   29 1  
    33   29   30 2  
    34   29   32 1  
    35   30   31 1  
    36   32   33 ar 
    37   32   37 ar 
    38   33   34 ar 
    39   34   35 ar 
    40   35   36 ar 
    41   36   37 ar 
    42    1   38 1  
    43    1   39 1  
    44    1   40 1  
    45    2   41 1  
    46   13   42 1  
    47   14   43 1  
    48   15   44 1  
    49   17   45 1  
    50   20   46 1  
    51   21   47 1  
    52   21   48 1  
    53   23   49 1  
    54   23   50 1  
    55   24   51 1  
    56   24   52 1  
    57   25   53 1  
    58   25   54 1  
    59   26   55 1  
    60   26   56 1  
    61   30   57 1  
    62   33   58 1  
    63   34   59 1  
    64   35   60 1  
    65   36   61 1  
    66   37   62 1  
@<TRIPOS>SUBSTRUCTURE
     1 NU7         1

