### 
### Created by X-TOOL on Mon Sep 10 21:13:12 2018
### 

@<TRIPOS>MOLECULE
3zo1_ligand
   41    44     1     0     0
SMALL
GAST_HUCK


@<TRIPOS>ATOM
      1 C12       -32.3810  -10.2550   -0.9710 C.2       1 SIJ         0.1112
      2 N3        -31.1970  -10.3640   -1.5410 N.pl3     1 SIJ        -0.2409
      3 N4        -33.4020  -10.1150   -1.8520 N.2       1 SIJ        -0.2857
      4 C13       -32.8440  -10.1360   -3.0970 C.ar      1 SIJ         0.1017
      5 N5        -33.4770  -10.0450   -4.2810 N.ar      1 SIJ        -0.2948
      6 C         -32.6710  -10.0780   -5.3450 C.ar      1 SIJ         0.0502
      7 C11       -31.4760  -10.2820   -2.8980 C.ar      1 SIJ         0.1547
      8 C1        -30.7730  -10.2910   -4.1550 C.ar      1 SIJ         0.1574
      9 N         -31.3390  -10.1800   -5.3810 N.ar      1 SIJ        -0.2689
     10 N1        -29.3670  -10.4550   -4.2170 N.pl3     1 SIJ        -0.2867
     11 C10       -28.4850  -10.4360   -3.0410 C.3       1 SIJ         0.0372
     12 C9        -27.6170   -9.1900   -2.9510 C.3       1 SIJ         0.0138
     13 C4        -26.7390   -9.0050   -4.2000 C.3       1 SIJ        -0.0080
     14 C3        -27.7000   -9.0460   -5.4020 C.3       1 SIJ         0.0138
     15 C2        -28.6120  -10.2670   -5.4650 C.3       1 SIJ         0.0372
     16 N2        -26.1230   -7.6110   -4.2100 N.4       1 SIJ         0.2314
     17 C8        -25.0080   -7.3980   -3.2730 C.3       1 SIJ        -0.0332
     18 C7        -23.9120   -8.4190   -3.4770 C.3       1 SIJ        -0.0124
     19 C6        -24.4450   -9.8430   -3.3920 C.3       1 SIJ        -0.0429
     20 C5        -25.6220  -10.0610   -4.3490 C.3       1 SIJ        -0.0065
     21 H1        -32.5255  -10.2755    0.1082 H         1 SIJ         0.1402
     22 H2        -30.2805  -10.4822   -1.0861 H         1 SIJ         0.2376
     23 H3        -33.1630  -10.0134   -6.3087 H         1 SIJ         0.0974
     24 H4        -27.8265  -11.3160   -3.0858 H         1 SIJ         0.0527
     25 H5        -29.1094  -10.4909   -2.1370 H         1 SIJ         0.0527
     26 H6        -26.9654   -9.2746   -2.0688 H         1 SIJ         0.0343
     27 H7        -28.2689   -8.3107   -2.8424 H         1 SIJ         0.0343
     28 H8        -27.0960   -9.0251   -6.3211 H         1 SIJ         0.0343
     29 H9        -28.3353   -8.1490   -5.3602 H         1 SIJ         0.0343
     30 H10       -29.3230  -10.1369   -6.2942 H         1 SIJ         0.0527
     31 H11       -27.9969  -11.1608   -5.6462 H         1 SIJ         0.0527
     32 H12       -26.8492   -6.9501   -3.9822 H         1 SIJ         0.2019
     33 H13       -25.7834   -7.4293   -5.1415 H         1 SIJ         0.2019
     34 H14       -25.3857   -7.4796   -2.2431 H         1 SIJ         0.0814
     35 H15       -24.5936   -6.3917   -3.4329 H         1 SIJ         0.0814
     36 H16       -23.1452   -8.2786   -2.7009 H         1 SIJ         0.0317
     37 H17       -23.4621   -8.2656   -4.4690 H         1 SIJ         0.0317
     38 H18       -24.7806  -10.0381   -2.3628 H         1 SIJ         0.0269
     39 H19       -23.6377  -10.5429   -3.6534 H         1 SIJ         0.0269
     40 H20       -25.2433  -10.0244   -5.3811 H         1 SIJ         0.0323
     41 H21       -26.0524  -11.0538   -4.1514 H         1 SIJ         0.0323
@<TRIPOS>BOND
     1    1    2 1  
     2    1    3 2  
     3    2    7 1  
     4    3    4 1  
     5    4    5 ar 
     6    4    7 ar 
     7    5    6 ar 
     8    6    9 ar 
     9    7    8 ar 
    10    8    9 ar 
    11    8   10 1  
    12   10   11 1  
    13   10   15 1  
    14   11   12 1  
    15   12   13 1  
    16   13   14 1  
    17   13   16 1  
    18   13   20 1  
    19   14   15 1  
    20   16   17 1  
    21   17   18 1  
    22   18   19 1  
    23   19   20 1  
    24    1   21 1  
    25    2   22 1  
    26    6   23 1  
    27   11   24 1  
    28   11   25 1  
    29   12   26 1  
    30   12   27 1  
    31   14   28 1  
    32   14   29 1  
    33   15   30 1  
    34   15   31 1  
    35   16   32 1  
    36   16   33 1  
    37   17   34 1  
    38   17   35 1  
    39   18   36 1  
    40   18   37 1  
    41   19   38 1  
    42   19   39 1  
    43   20   40 1  
    44   20   41 1  
@<TRIPOS>SUBSTRUCTURE
     1 SIJ         1

