### 
### Created by X-TOOL on Mon Sep 10 21:13:12 2018
### 

@<TRIPOS>MOLECULE
3zo2_ligand
   41    44     1     0     0
SMALL
GAST_HUCK


@<TRIPOS>ATOM
      1 C12       -32.4760   -9.9690   -0.8780 C.2       1 15I         0.1112
      2 N3        -31.2570  -10.0290   -1.3780 N.pl3     1 15I        -0.2409
      3 N4        -33.4480   -9.8690   -1.8130 N.2       1 15I        -0.2857
      4 C13       -32.8200   -9.8900   -3.0260 C.ar      1 15I         0.1017
      5 N5        -33.3930   -9.8590   -4.2450 N.ar      1 15I        -0.2948
      6 C         -32.5330   -9.9900   -5.2580 C.ar      1 15I         0.0502
      7 C11       -31.4650  -10.0040   -2.7500 C.ar      1 15I         0.1547
      8 C1        -30.7050  -10.1290   -3.9540 C.ar      1 15I         0.1574
      9 N         -31.2060  -10.1350   -5.2110 N.ar      1 15I        -0.2689
     10 N1        -29.2990  -10.3130   -3.9500 N.pl3     1 15I        -0.2871
     11 C10       -28.4660  -10.3680   -2.7450 C.3       1 15I         0.0325
     12 C9        -27.6480   -9.0870   -2.6500 C.3       1 15I        -0.0218
     13 C4        -26.7180   -8.8590   -3.8620 C.3       1 15I         0.0146
     14 C3        -27.5390   -9.0240   -5.1580 C.3       1 15I        -0.0218
     15 C2        -28.4810  -10.2190   -5.1660 C.3       1 15I         0.0325
     16 C8        -26.2030   -7.3710   -3.8200 C.3       1 15I        -0.0278
     17 N2        -25.2100   -7.1220   -2.7200 N.4       1 15I         0.2274
     18 C7        -24.0180   -7.9840   -2.7520 C.3       1 15I        -0.0336
     19 C6        -24.4610   -9.4890   -2.7830 C.3       1 15I        -0.0119
     20 C5        -25.4950   -9.8020   -3.8690 C.3       1 15I        -0.0376
     21 H1        -32.6813   -9.9974    0.1911 H         1 15I         0.1402
     22 H2        -30.3623  -10.0819   -0.8704 H         1 15I         0.2376
     23 H3        -32.9697   -9.9769   -6.2501 H         1 15I         0.0974
     24 H4        -27.7901  -11.2339   -2.8029 H         1 15I         0.0525
     25 H5        -29.1079  -10.4626   -1.8567 H         1 15I         0.0525
     26 H6        -27.0302   -9.1349   -1.7412 H         1 15I         0.0292
     27 H7        -28.3410   -8.2358   -2.5779 H         1 15I         0.0292
     28 H8        -26.8363   -9.1360   -5.9969 H         1 15I         0.0292
     29 H9        -28.1393   -8.1135   -5.3016 H         1 15I         0.0292
     30 H10       -29.1515  -10.1309   -6.0336 H         1 15I         0.0525
     31 H11       -27.8818  -11.1370   -5.2573 H         1 15I         0.0525
     32 H12       -27.0661   -6.7059   -3.6696 H         1 15I         0.0819
     33 H13       -25.7244   -7.1388   -4.7828 H         1 15I         0.0819
     34 H14       -25.6769   -7.2666   -1.8385 H         1 15I         0.2014
     35 H15       -24.9047   -6.1636   -2.7853 H         1 15I         0.2014
     36 H16       -23.4082   -7.7998   -1.8552 H         1 15I         0.0814
     37 H17       -23.4259   -7.7576   -3.6510 H         1 15I         0.0814
     38 H18       -24.8958   -9.7437   -1.8052 H         1 15I         0.0317
     39 H19       -23.5707  -10.1099   -2.9613 H         1 15I         0.0317
     40 H20       -25.0022   -9.7221   -4.8492 H         1 15I         0.0274
     41 H21       -25.8515  -10.8320   -3.7206 H         1 15I         0.0274
@<TRIPOS>BOND
     1    1    2 1  
     2    1    3 2  
     3    2    7 1  
     4    3    4 1  
     5    4    5 ar 
     6    4    7 ar 
     7    5    6 ar 
     8    6    9 ar 
     9    7    8 ar 
    10    8    9 ar 
    11    8   10 1  
    12   10   11 1  
    13   10   15 1  
    14   11   12 1  
    15   12   13 1  
    16   13   14 1  
    17   13   16 1  
    18   13   20 1  
    19   14   15 1  
    20   16   17 1  
    21   17   18 1  
    22   18   19 1  
    23   19   20 1  
    24    1   21 1  
    25    2   22 1  
    26    6   23 1  
    27   11   24 1  
    28   11   25 1  
    29   12   26 1  
    30   12   27 1  
    31   14   28 1  
    32   14   29 1  
    33   15   30 1  
    34   15   31 1  
    35   16   32 1  
    36   16   33 1  
    37   17   34 1  
    38   17   35 1  
    39   18   36 1  
    40   18   37 1  
    41   19   38 1  
    42   19   39 1  
    43   20   40 1  
    44   20   41 1  
@<TRIPOS>SUBSTRUCTURE
     1 15I         1

