### 
### Created by X-TOOL on Mon Sep 10 21:13:13 2018
### 

@<TRIPOS>MOLECULE
3zo4_ligand
   51    55     1     0     0
SMALL
GAST_HUCK


@<TRIPOS>ATOM
      1 C2         23.0050  -12.7000   -0.2920 C.ar      1 QWI        -0.0687
      2 C3         23.0690  -11.3290   -0.4330 C.ar      1 QWI        -0.0686
      3 C4         23.5600  -10.5400    0.6020 C.ar      1 QWI        -0.0601
      4 C5         23.9930  -11.1160    1.7930 C.ar      1 QWI        -0.0396
      5 C6         23.9250  -12.4990    1.9190 C.ar      1 QWI        -0.0601
      6 C7         23.4330  -13.2860    0.8820 C.ar      1 QWI        -0.0686
      7 C8         24.5350  -10.2680    2.9320 C.3       1 QWI         0.0028
      8 C9         23.5430   -9.2330    3.4880 C.3       1 QWI         0.0002
      9 C10        24.1820   -8.4040    4.5880 C.3       1 QWI        -0.0311
     10 N11        25.4240   -7.7480    4.1440 N.4       1 QWI         0.2317
     11 C15        25.8710   -9.6130    2.5590 C.3       1 QWI         0.0060
     12 C17        28.8150   -8.7070    2.6910 C.3       1 QWI         0.0372
     13 C18        27.5570   -7.8840    2.9210 C.3       1 QWI         0.0139
     14 C20        28.5800   -9.2410    5.0950 C.3       1 QWI         0.0372
     15 C21        27.1170   -9.5380    4.8000 C.3       1 QWI         0.0139
     16 C22        30.8310   -9.5810    3.9510 C.ar      1 QWI         0.1574
     17 N23        31.3310   -9.6710    5.2050 N.ar      1 QWI        -0.2689
     18 C24        32.6660   -9.7890    5.2460 C.ar      1 QWI         0.0502
     19 N25        33.5330   -9.8240    4.2270 N.ar      1 QWI        -0.2948
     20 C26        32.9530   -9.7680    3.0090 C.ar      1 QWI         0.1017
     21 C70        26.4910   -8.7120    3.6620 C.3       1 QWI        -0.0059
     22 N27        33.5670   -9.8380    1.7890 N.2       1 QWI        -0.2857
     23 C29        32.5810   -9.7930    0.8610 C.2       1 QWI         0.1112
     24 N30        31.3690   -9.6900    1.3730 N.pl3     1 QWI        -0.2409
     25 C31        31.5920   -9.6630    2.7410 C.ar      1 QWI         0.1547
     26 N1         29.4380   -9.2700    3.8980 N.pl3     1 QWI        -0.2867
     27 H1         22.6207  -13.3135   -1.0988 H         1 QWI         0.0559
     28 H2         22.7353  -10.8649   -1.3540 H         1 QWI         0.0599
     29 H3         23.6060   -9.4639    0.4797 H         1 QWI         0.0557
     30 H4         24.2593  -12.9700    2.8363 H         1 QWI         0.0557
     31 H5         23.3858  -14.3629    0.9967 H         1 QWI         0.0599
     32 H6         24.7437  -10.9646    3.7573 H         1 QWI         0.0465
     33 H7         22.6665   -9.7576    3.8959 H         1 QWI         0.0342
     34 H8         23.2247   -8.5658    2.6734 H         1 QWI         0.0342
     35 H9         24.4142   -9.0627    5.4378 H         1 QWI         0.0815
     36 H10        23.4683   -7.6305    4.9079 H         1 QWI         0.0815
     37 H11        25.7985   -7.2213    4.9175 H         1 QWI         0.2019
     38 H12        25.1986   -7.1206    3.3880 H         1 QWI         0.2019
     39 H13        25.7096   -8.9943    1.6639 H         1 QWI         0.0348
     40 H14        26.5901  -10.4125    2.3274 H         1 QWI         0.0348
     41 H15        29.5563   -8.0608    2.1981 H         1 QWI         0.0527
     42 H16        28.5553   -9.5421    2.0238 H         1 QWI         0.0527
     43 H17        27.1533   -7.5628    1.9495 H         1 QWI         0.0343
     44 H18        27.8098   -6.9992    3.5237 H         1 QWI         0.0343
     45 H19        28.9511   -9.9923    5.8077 H         1 QWI         0.0527
     46 H20        28.6479   -8.2409    5.5479 H         1 QWI         0.0527
     47 H21        26.5401   -9.3446    5.7164 H         1 QWI         0.0343
     48 H22        27.0341  -10.6017    4.5322 H         1 QWI         0.0343
     49 H23        33.1008   -9.8663    6.2360 H         1 QWI         0.0974
     50 H24        32.7713   -9.8378   -0.2103 H         1 QWI         0.1402
     51 H25        30.4694   -9.6412    0.8738 H         1 QWI         0.2376
@<TRIPOS>BOND
     1    2    1 ar 
     2    6    1 ar 
     3    3    2 ar 
     4    4    3 ar 
     5    4    5 ar 
     6    7    4 1  
     7    5    6 ar 
     8    7    8 1  
     9   11    7 1  
    10    9    8 1  
    11   10    9 1  
    12   21   10 1  
    13   21   11 1  
    14   12   13 1  
    15   26   12 1  
    16   13   21 1  
    17   14   15 1  
    18   26   14 1  
    19   15   21 1  
    20   16   17 ar 
    21   16   25 ar 
    22   16   26 1  
    23   17   18 ar 
    24   18   19 ar 
    25   19   20 ar 
    26   20   22 1  
    27   20   25 ar 
    28   22   23 2  
    29   23   24 1  
    30   24   25 1  
    31    1   27 1  
    32    2   28 1  
    33    3   29 1  
    34    5   30 1  
    35    6   31 1  
    36    7   32 1  
    37    8   33 1  
    38    8   34 1  
    39    9   35 1  
    40    9   36 1  
    41   10   37 1  
    42   10   38 1  
    43   11   39 1  
    44   11   40 1  
    45   12   41 1  
    46   12   42 1  
    47   13   43 1  
    48   13   44 1  
    49   14   45 1  
    50   14   46 1  
    51   15   47 1  
    52   15   48 1  
    53   18   49 1  
    54   23   50 1  
    55   24   51 1  
@<TRIPOS>SUBSTRUCTURE
     1 QWI         1

