### 
### Created by X-TOOL on Mon Sep 10 21:13:15 2018
### 

@<TRIPOS>MOLECULE
3zos_ligand
   68    72     1     0     0
SMALL
GAST_HUCK


@<TRIPOS>ATOM
      1 N1        -14.0080   -1.4160  -44.4390 N.2       1 0LI        -0.3247
      2 N3         -1.4930    5.7440  -37.7560 N.4       1 0LI         0.2588
      3 C4        -12.5320    2.4740  -42.3900 C.1       1 0LI        -0.0766
      4 C5        -11.7880    3.7030  -42.0800 C.ar      1 0LI         0.0257
      5 C6        -12.2020    4.9460  -42.4370 C.ar      1 0LI        -0.0273
      6 C7        -11.3780    6.0180  -42.1010 C.ar      1 0LI        -0.0547
      7 C8        -10.1280    5.8080  -41.4670 C.ar      1 0LI        -0.0494
      8 C10       -10.5100    3.4460  -41.4600 C.ar      1 0LI        -0.0347
      9 C13        -6.0050    5.2320  -39.9050 C.ar      1 0LI         0.0879
     10 C15        -3.9660    6.2020  -39.0510 C.ar      1 0LI        -0.0316
     11 C17        -3.8920    3.9900  -39.9930 C.ar      1 0LI         0.0386
     12 C20        -1.7480    5.0670  -39.0290 C.3       1 0LI         0.0130
     13 C21        -0.0860    6.0510  -37.5810 C.3       1 0LI         0.0114
     14 C22         0.0650    6.8710  -36.3120 C.3       1 0LI         0.0092
     15 C24        -2.0760    5.1000  -36.5960 C.3       1 0LI         0.0114
     16 C81       -15.3490   -2.8380  -42.8280 C.2       1 0LI         0.0052
     17 C82       -15.8020   -2.8630  -41.5320 C.2       1 0LI        -0.0245
     18 C83       -15.5200   -1.8240  -40.6850 C.2       1 0LI         0.0552
     19 N81       -14.8040   -0.7310  -41.0820 N.2       1 0LI        -0.1413
     20 N82       -14.3470   -0.6960  -42.3520 N.pl3     1 0LI        -0.1187
     21 C84       -14.5820   -1.7210  -43.2460 C.2       1 0LI         0.1691
     22 C1        -13.4190   -0.2390  -44.3330 C.2       1 0LI        -0.0017
     23 C2        -13.6520    0.2250  -43.0390 C.2       1 0LI         0.1589
     24 C3        -13.0570    1.4850  -42.6500 C.1       1 0LI        -0.0467
     25 C9         -9.6880    4.5210  -41.1280 C.ar      1 0LI         0.0483
     26 C11       -13.5290    5.1100  -43.0950 C.3       1 0LI        -0.0278
     27 C12        -8.3170    4.2040  -40.5510 C.2       1 0LI         0.2262
     28 O1         -7.9780    3.0220  -40.4710 O.2       1 0LI        -0.3767
     29 N2         -7.4000    5.2880  -40.2970 N.am      1 0LI        -0.2315
     30 C14        -5.3380    6.2790  -39.3330 C.ar      1 0LI        -0.0148
     31 C16        -3.2470    5.0450  -39.3740 C.ar      1 0LI         0.0246
     32 C18        -5.2690    4.0830  -40.2550 C.ar      1 0LI        -0.0202
     33 C19        -3.1550    2.6990  -40.3230 C.3       1 0LI         0.3645
     34 F1         -2.0130    2.9820  -40.9800 F         1 0LI        -0.2292
     35 F2         -3.9060    1.8400  -41.0290 F         1 0LI        -0.2292
     36 F3         -2.8800    2.1140  -39.1650 F         1 0LI        -0.2292
     37 C23        -1.9000    5.9040  -35.3310 C.3       1 0LI         0.0092
     38 C25        -0.2120    6.8790  -33.9020 C.3       1 0LI        -0.0427
     39 N4         -0.4880    6.1850  -35.1700 N.4       1 0LI         0.2405
     40 H          -1.9612    6.6338  -37.8276 H         1 0LI         0.2058
     41 H         -11.6980    7.0285  -42.3281 H         1 0LI         0.0565
     42 H          -9.4988    6.6608  -41.2394 H         1 0LI         0.0639
     43 H         -10.1938    2.4296  -41.2553 H         1 0LI         0.0649
     44 H          -3.4619    7.0394  -38.5824 H         1 0LI         0.0616
     45 H          -1.3831    4.0315  -38.9610 H         1 0LI         0.1043
     46 H          -1.2065    5.5949  -39.8278 H         1 0LI         0.1043
     47 H           0.2795    6.6281  -38.4432 H         1 0LI         0.0868
     48 H           0.4907    5.1185  -37.4928 H         1 0LI         0.0868
     49 H          -0.4590    7.8294  -36.4413 H         1 0LI         0.0868
     50 H           1.1339    7.0588  -36.1329 H         1 0LI         0.0868
     51 H          -1.5954    4.1200  -36.4593 H         1 0LI         0.0868
     52 H          -3.1520    4.9589  -36.7759 H         1 0LI         0.0868
     53 H         -15.5724   -3.6527  -43.5152 H         1 0LI         0.0752
     54 H         -16.3866   -3.7104  -41.1768 H         1 0LI         0.0701
     55 H         -15.8797   -1.8713  -39.6582 H         1 0LI         0.0937
     56 H         -12.8560    0.2739  -45.1114 H         1 0LI         0.0575
     57 H         -13.9833    4.1212  -43.2556 H         1 0LI         0.0404
     58 H         -13.3982    5.6151  -44.0634 H         1 0LI         0.0404
     59 H         -14.1851    5.7147  -42.4517 H         1 0LI         0.0404
     60 H          -7.7793    6.2068  -40.4066 H         1 0LI         0.2238
     61 H          -5.8798    7.1866  -39.0926 H         1 0LI         0.0763
     62 H          -5.7753    3.2540  -40.7361 H         1 0LI         0.0655
     63 H          -2.2662    5.3276  -34.4687 H         1 0LI         0.0868
     64 H          -2.4616    6.8468  -35.4071 H         1 0LI         0.0868
     65 H           0.8674    7.0736  -33.8180 H         1 0LI         0.0778
     66 H          -0.5376    6.2493  -33.0609 H         1 0LI         0.0778
     67 H          -0.7594    7.8328  -33.8793 H         1 0LI         0.0778
     68 H          -0.0200    5.2938  -35.1176 H         1 0LI         0.2035
@<TRIPOS>BOND
     1    1   21 2  
     2   22    1 1  
     3   12    2 1  
     4    2   13 1  
     5    2   15 1  
     6    4    3 1  
     7    3   24 3  
     8    4    5 ar 
     9    8    4 ar 
    10    6    5 ar 
    11    5   26 1  
    12    7    6 ar 
    13   25    7 ar 
    14   25    8 ar 
    15   29    9 1  
    16    9   30 ar 
    17    9   32 ar 
    18   30   10 ar 
    19   10   31 ar 
    20   11   31 ar 
    21   32   11 ar 
    22   11   33 1  
    23   31   12 1  
    24   13   14 1  
    25   14   39 1  
    26   15   37 1  
    27   16   17 2  
    28   21   16 1  
    29   18   17 1  
    30   19   18 2  
    31   20   19 1  
    32   20   21 1  
    33   23   20 1  
    34   23   22 2  
    35   24   23 1  
    36   27   25 1  
    37   27   28 2  
    38   27   29 am 
    39   33   34 1  
    40   33   35 1  
    41   33   36 1  
    42   37   39 1  
    43   39   38 1  
    44    2   40 1  
    45    6   41 1  
    46    7   42 1  
    47    8   43 1  
    48   10   44 1  
    49   12   45 1  
    50   12   46 1  
    51   13   47 1  
    52   13   48 1  
    53   14   49 1  
    54   14   50 1  
    55   15   51 1  
    56   15   52 1  
    57   16   53 1  
    58   17   54 1  
    59   18   55 1  
    60   22   56 1  
    61   26   57 1  
    62   26   58 1  
    63   26   59 1  
    64   29   60 1  
    65   30   61 1  
    66   32   62 1  
    67   37   63 1  
    68   37   64 1  
    69   38   65 1  
    70   38   66 1  
    71   38   67 1  
    72   39   68 1  
@<TRIPOS>SUBSTRUCTURE
     1 0LI         1

