### 
### Created by X-TOOL on Mon Sep 10 21:13:14 2018
### 

@<TRIPOS>MOLECULE
3zot_ligand
   35    36     1     0     0
SMALL
GAST_HUCK


@<TRIPOS>ATOM
      1 O1         -1.6600  -15.5020  -50.5900 O.2       1 L6C        -0.3747
      2 C2         -0.4890  -15.2270  -50.7410 C.2       1 L6C         0.1033
      3 C3         -0.0780  -13.9400  -51.3350 C.3       1 L6C         0.0518
      4 C4         -1.0210  -12.9400  -50.8080 C.3       1 L6C         0.0932
      5 C12        -0.7190  -11.5930  -51.3670 C.ar      1 L6C        -0.0157
      6 C17        -1.4650  -11.0550  -52.4230 C.ar      1 L6C        -0.0580
      7 C16        -1.1890   -9.7930  -52.9550 C.ar      1 L6C        -0.0685
      8 C15        -0.1580   -9.0220  -52.4360 C.ar      1 L6C        -0.0687
      9 C14         0.5870   -9.5300  -51.3860 C.ar      1 L6C        -0.0685
     10 C13         0.3130  -10.7990  -50.8620 C.ar      1 L6C        -0.0580
     11 N1         -0.8400  -12.9240  -49.3740 N.am      1 L6C        -0.2424
     12 C5         -2.0760  -12.7320  -48.6490 C.2       1 L6C         0.3464
     13 O2         -3.1780  -12.8810  -49.2030 O.2       1 L6C        -0.3721
     14 O3         -1.9860  -12.8380  -47.2780 O.3       1 L6C        -0.1997
     15 C6         -3.0970  -13.1400  -46.5250 C.ar      1 L6C         0.1233
     16 C7         -3.7610  -14.3720  -46.6670 C.ar      1 L6C        -0.0284
     17 C8         -4.8860  -14.6650  -45.8960 C.ar      1 L6C        -0.0696
     18 C9         -5.3680  -13.7470  -44.9570 C.ar      1 L6C        -0.0722
     19 C10        -4.6990  -12.5350  -44.8090 C.ar      1 L6C        -0.0696
     20 C11        -3.5830  -12.2240  -45.5720 C.ar      1 L6C        -0.0284
     21 H1          0.2727  -15.9418  -50.4331 H         1 L6C         0.1351
     22 H2         -0.1412  -13.9862  -52.4322 H         1 L6C         0.0539
     23 H3          0.9512  -13.6912  -51.0371 H         1 L6C         0.0539
     24 H4         -2.0540  -13.2209  -51.0608 H         1 L6C         0.0746
     25 H5         -2.2806  -11.6348  -52.8399 H         1 L6C         0.0557
     26 H6         -1.7836   -9.4136  -53.7781 H         1 L6C         0.0599
     27 H7          0.0593   -8.0418  -52.8448 H         1 L6C         0.0559
     28 H8          1.3918   -8.9386  -50.9646 H         1 L6C         0.0599
     29 H9          0.9169  -11.1746  -50.0439 H         1 L6C         0.0557
     30 H10         0.0488  -13.0344  -48.9291 H         1 L6C         0.1902
     31 H11        -3.3952  -15.1001  -47.3819 H         1 L6C         0.0552
     32 H12        -5.3923  -15.6146  -46.0260 H         1 L6C         0.0591
     33 H13        -6.2426  -13.9741  -44.3582 H         1 L6C         0.0529
     34 H14        -5.0587  -11.8175  -44.0804 H         1 L6C         0.0591
     35 H15        -3.0830  -11.2721  -45.4342 H         1 L6C         0.0552
@<TRIPOS>BOND
     1    1    2 2  
     2    2    3 1  
     3    3    4 1  
     4    4    5 1  
     5    4   11 1  
     6    5    6 ar 
     7    5   10 ar 
     8    6    7 ar 
     9    7    8 ar 
    10    8    9 ar 
    11    9   10 ar 
    12   11   12 am 
    13   12   13 2  
    14   12   14 1  
    15   14   15 1  
    16   15   16 ar 
    17   15   20 ar 
    18   16   17 ar 
    19   17   18 ar 
    20   18   19 ar 
    21   19   20 ar 
    22    2   21 1  
    23    3   22 1  
    24    3   23 1  
    25    4   24 1  
    26    6   25 1  
    27    7   26 1  
    28    8   27 1  
    29    9   28 1  
    30   10   29 1  
    31   11   30 1  
    32   16   31 1  
    33   17   32 1  
    34   18   33 1  
    35   19   34 1  
    36   20   35 1  
@<TRIPOS>SUBSTRUCTURE
     1 L6C         1

