### 
### Created by X-TOOL on Mon Sep 10 21:13:15 2018
### 

@<TRIPOS>MOLECULE
3zov_ligand
   52    54     1     0     0
SMALL
GAST_HUCK


@<TRIPOS>ATOM
      1 F30       -20.8670   44.4100   83.3080 F         1 WZV        -0.1678
      2 C28       -21.3830   45.2430   84.1830 C.3       1 WZV         0.4176
      3 F31       -22.4600   45.8340   83.7230 F         1 WZV        -0.1678
      4 F29       -20.5180   46.1780   84.5250 F         1 WZV        -0.1678
      5 C27       -21.7540   44.3930   85.3680 C.3       1 WZV         0.1681
      6 O26       -20.5530   44.0520   86.0420 O.3       1 WZV        -0.2979
      7 C18       -20.7170   43.4290   87.2460 C.ar      1 WZV         0.1249
      8 C23       -19.7340   42.5670   87.7080 C.ar      1 WZV         0.0460
      9 N22       -19.9160   41.9570   88.8870 N.ar      1 WZV        -0.2856
     10 C19       -21.8840   43.6570   88.0040 C.ar      1 WZV        -0.0074
     11 C20       -22.0430   43.0050   89.2230 C.ar      1 WZV        -0.0223
     12 C21       -21.0270   42.1470   89.6430 C.ar      1 WZV         0.1167
     13 C24       -21.1580   41.4320   90.9410 C.2       1 WZV         0.2432
     14 O25       -22.2770   41.3770   91.4270 O.2       1 WZV        -0.3725
     15 N13       -20.0340   40.9000   91.4470 N.am      1 WZV        -0.2270
     16 C7        -19.8150   40.1860   92.6340 C.ar      1 WZV         0.0947
     17 C12       -18.4930   39.8850   92.9890 C.ar      1 WZV        -0.0158
     18 C8        -20.8710   39.8140   93.4700 C.ar      1 WZV        -0.0111
     19 C9        -20.5970   39.1210   94.6420 C.ar      1 WZV        -0.0434
     20 C10       -19.2810   38.8080   94.9800 C.ar      1 WZV        -0.0485
     21 C11       -18.2080   39.1840   94.1630 C.ar      1 WZV        -0.0145
     22 C1        -16.7980   38.8270   94.5880 C.3       1 WZV         0.1127
     23 C2        -16.4440   39.6800   95.7780 C.3       1 WZV         0.0606
     24 C3        -16.0910   41.0580   95.2920 C.2       1 WZV         0.1758
     25 O16       -16.3440   41.9710   96.0360 O.2       1 WZV        -0.3979
     26 C14       -16.7000   37.3780   95.0150 C.3       1 WZV        -0.0393
     27 N6        -15.7920   39.0720   93.5570 N.pl3     1 WZV        -0.2669
     28 C5        -15.3530   40.2160   93.2660 C.cat     1 WZV         0.3229
     29 N15       -14.7060   40.3670   92.1000 N.pl3     1 WZV        -0.2547
     30 N4        -15.5670   41.2710   94.0720 N.am      1 WZV        -0.2142
     31 C17       -15.3050   42.6470   93.6350 C.3       1 WZV         0.0243
     32 H1        -22.2667   43.4805   85.0297 H         1 WZV         0.0709
     33 H2        -22.4156   44.9568   86.0420 H         1 WZV         0.0709
     34 H3        -18.8362   42.3902   87.1269 H         1 WZV         0.0771
     35 H4        -22.6494   44.3333   87.6408 H         1 WZV         0.0674
     36 H5        -22.9294   43.1593   89.8276 H         1 WZV         0.0732
     37 H6        -19.2182   41.0352   90.8846 H         1 WZV         0.2255
     38 H7        -17.6809   40.2004   92.3439 H         1 WZV         0.0711
     39 H8        -21.8925   40.0635   93.2068 H         1 WZV         0.0760
     40 H9        -21.4085   38.8226   95.2958 H         1 WZV         0.0664
     41 H10       -19.0843   38.2616   95.8953 H         1 WZV         0.0740
     42 H11       -15.5841   39.2416   96.3056 H         1 WZV         0.0454
     43 H12       -17.3036   39.7372   96.4619 H         1 WZV         0.0454
     44 H13       -16.9535   36.7274   94.1651 H         1 WZV         0.0182
     45 H14       -17.4012   37.1911   95.8417 H         1 WZV         0.0182
     46 H15       -15.6741   37.1625   95.3484 H         1 WZV         0.0182
     47 H16       -15.4207   38.2630   93.0387 H         1 WZV         0.3124
     48 H17       -14.5472   39.5525   91.4899 H         1 WZV         0.3198
     49 H18       -14.3682   41.2974   91.8152 H         1 WZV         0.3198
     50 H19       -15.5493   43.3435   94.4506 H         1 WZV         0.0483
     51 H20       -15.9266   42.8776   92.7573 H         1 WZV         0.0483
     52 H21       -14.2426   42.7515   93.3696 H         1 WZV         0.0483
@<TRIPOS>BOND
     1    1    2 1  
     2    2    3 1  
     3    2    4 1  
     4    2    5 1  
     5    5    6 1  
     6    6    7 1  
     7    7    8 ar 
     8    7   10 ar 
     9    8    9 ar 
    10    9   12 ar 
    11   10   11 ar 
    12   11   12 ar 
    13   12   13 1  
    14   13   14 2  
    15   13   15 am 
    16   15   16 1  
    17   16   17 ar 
    18   16   18 ar 
    19   17   21 ar 
    20   18   19 ar 
    21   19   20 ar 
    22   20   21 ar 
    23   21   22 1  
    24   22   23 1  
    25   22   26 1  
    26   22   27 1  
    27   23   24 1  
    28   24   25 2  
    29   24   30 am 
    30   27   28 ar 
    31   28   29 ar 
    32   28   30 ar 
    33   30   31 1  
    34    5   32 1  
    35    5   33 1  
    36    8   34 1  
    37   10   35 1  
    38   11   36 1  
    39   15   37 1  
    40   17   38 1  
    41   18   39 1  
    42   19   40 1  
    43   20   41 1  
    44   23   42 1  
    45   23   43 1  
    46   26   44 1  
    47   26   45 1  
    48   26   46 1  
    49   27   47 1  
    50   29   48 1  
    51   29   49 1  
    52   31   50 1  
    53   31   51 1  
    54   31   52 1  
@<TRIPOS>SUBSTRUCTURE
     1 WZV         1

