### 
### Created by X-TOOL on Mon Sep 10 21:13:15 2018
### 

@<TRIPOS>MOLECULE
3zpq_ligand
   31    33     1     0     0
SMALL
GAST_HUCK


@<TRIPOS>ATOM
      1 C11       -23.2730  -13.1210   25.4160 C.3       1 XF5         0.0669
      2 C12       -24.5210  -13.4610   24.7220 C.3       1 XF5        -0.0134
      3 N13       -25.4270  -12.3120   24.8520 N.4       1 XF5         0.2298
      4 C14       -24.9050  -11.1550   24.1290 C.3       1 XF5        -0.0134
      5 C15       -23.5970  -10.6470   24.6480 C.3       1 XF5         0.0669
      6 N10       -22.7090  -11.7700   25.0810 N.pl3     1 XF5        -0.3010
      7 C3        -21.3810  -11.5560   25.2700 C.ar      1 XF5         0.0318
      8 C4        -20.7630  -11.9770   26.3940 C.ar      1 XF5        -0.0055
      9 C5        -21.1960  -12.6190   27.4870 C.2       1 XF5        -0.0681
     10 C6        -20.1700  -12.8040   28.3160 C.2       1 XF5         0.0155
     11 N7        -19.0830  -12.2710   27.7530 N.pl3     1 XF5        -0.2860
     12 C8        -19.4410  -11.7620   26.5690 C.ar      1 XF5         0.0524
     13 C9        -18.6940  -11.1350   25.6520 C.ar      1 XF5        -0.0583
     14 C1        -19.2610  -10.6770   24.4790 C.ar      1 XF5        -0.0902
     15 C2        -20.6190  -10.8980   24.2850 C.ar      1 XF5        -0.0617
     16 H1        -22.5200  -13.8794   25.1555 H         1 XF5         0.0568
     17 H2        -23.4651  -13.1518   26.4986 H         1 XF5         0.0568
     18 H3        -24.9755  -14.3512   25.1814 H         1 XF5         0.0833
     19 H4        -24.3174  -13.6601   23.6595 H         1 XF5         0.0833
     20 H5        -25.5237  -12.0761   25.8272 H         1 XF5         0.2015
     21 H6        -26.3288  -12.5580   24.4748 H         1 XF5         0.2015
     22 H7        -25.6431  -10.3424   24.1993 H         1 XF5         0.0833
     23 H8        -24.7711  -11.4386   23.0747 H         1 XF5         0.0833
     24 H9        -23.7849   -9.9873   25.5079 H         1 XF5         0.0568
     25 H10       -23.0929  -10.0783   23.8528 H         1 XF5         0.0568
     26 H11       -22.2213  -12.9381   27.6685 H         1 XF5         0.0278
     27 H12       -20.2106  -13.3026   29.2833 H         1 XF5         0.0877
     28 H13       -18.1364  -12.2547   28.1586 H         1 XF5         0.2249
     29 H14       -17.6355  -10.9856   25.8316 H         1 XF5         0.0416
     30 H15       -18.6659  -10.1618   23.7337 H         1 XF5         0.0495
     31 H16       -21.0946  -10.5622   23.3706 H         1 XF5         0.0388
@<TRIPOS>BOND
     1    1    2 1  
     2    1    6 1  
     3    2    3 1  
     4    3    4 1  
     5    4    5 1  
     6    5    6 1  
     7    6    7 1  
     8    7    8 ar 
     9    7   15 ar 
    10    8    9 1  
    11    8   12 ar 
    12    9   10 2  
    13   10   11 1  
    14   11   12 1  
    15   12   13 ar 
    16   13   14 ar 
    17   14   15 ar 
    18    1   16 1  
    19    1   17 1  
    20    2   18 1  
    21    2   19 1  
    22    3   20 1  
    23    3   21 1  
    24    4   22 1  
    25    4   23 1  
    26    5   24 1  
    27    5   25 1  
    28    9   26 1  
    29   10   27 1  
    30   11   28 1  
    31   13   29 1  
    32   14   30 1  
    33   15   31 1  
@<TRIPOS>SUBSTRUCTURE
     1 XF5         1

