### 
### Created by X-TOOL on Mon Sep 10 21:13:15 2018
### 

@<TRIPOS>MOLECULE
3zpr_ligand
   35    37     1     0     0
SMALL
GAST_HUCK


@<TRIPOS>ATOM
      1 C4        -20.8840  -11.6040   25.0980 C.ar      1 3WC        -0.0107
      2 C5        -19.7670  -11.5410   25.9180 C.ar      1 3WC        -0.0217
      3 C6        -18.6570  -10.7940   25.5110 C.3       1 3WC        -0.0221
      4 C8        -23.9000  -13.6810   24.7880 C.3       1 3WC         0.0711
      5 C10       -25.3020  -13.2080   24.9700 C.3       1 3WC        -0.0127
      6 N12       -25.6890  -12.3590   23.8230 N.4       1 3WC         0.2299
      7 C13       -24.9860  -11.0540   23.8680 C.3       1 3WC        -0.0127
      8 C15       -23.4840  -11.3530   23.7870 C.3       1 3WC         0.0711
      9 C11       -21.9920  -12.3470   25.5080 C.ar      1 3WC         0.1008
     10 C20       -18.7000  -12.2120   28.0030 C.ar      1 3WC        -0.0522
     11 C22       -20.9460  -12.9740   27.4960 C.ar      1 3WC         0.0202
     12 N10       -23.0810  -12.4410   24.7280 N.pl3     1 3WC        -0.2834
     13 C24       -21.0030  -13.6820   28.6990 C.ar      1 3WC        -0.0504
     14 C26       -19.9120  -13.6600   29.5730 C.ar      1 3WC        -0.0626
     15 N11       -22.0010  -13.0090   26.6890 N.ar      1 3WC        -0.3038
     16 C2        -19.7990  -12.2340   27.1350 C.ar      1 3WC         0.0023
     17 C28       -18.7700  -12.9210   29.2190 C.ar      1 3WC        -0.0616
     18 H1        -20.8962  -11.0814   24.1483 H         1 3WC         0.0548
     19 H2        -18.8595  -10.3418   24.5289 H         1 3WC         0.0435
     20 H3        -17.7789  -11.4524   25.4374 H         1 3WC         0.0435
     21 H4        -18.4595  -10.0002   26.2464 H         1 3WC         0.0435
     22 H5        -23.8033  -14.2539   23.8540 H         1 3WC         0.0577
     23 H6        -23.5902  -14.3084   25.6368 H         1 3WC         0.0577
     24 H7        -25.3741  -12.6238   25.8992 H         1 3WC         0.0834
     25 H8        -25.9767  -14.0748   25.0285 H         1 3WC         0.0834
     26 H9        -26.6838  -12.1989   23.8520 H         1 3WC         0.2015
     27 H10       -25.4498  -12.8331   22.9662 H         1 3WC         0.2015
     28 H11       -25.2174  -10.5321   24.8082 H         1 3WC         0.0834
     29 H12       -25.2936  -10.4293   23.0165 H         1 3WC         0.0834
     30 H13       -22.9254  -10.4396   24.0394 H         1 3WC         0.0577
     31 H14       -23.2377  -11.6615   22.7603 H         1 3WC         0.0577
     32 H15       -17.8064  -11.6564   27.7426 H         1 3WC         0.0647
     33 H16       -21.8918  -14.2476   28.9544 H         1 3WC         0.0590
     34 H17       -19.9463  -14.2047   30.5096 H         1 3WC         0.0636
     35 H18       -17.9241  -12.8958   29.8965 H         1 3WC         0.0589
@<TRIPOS>BOND
     1    1    2 ar 
     2    9    1 ar 
     3    2    3 1  
     4    2   16 ar 
     5    4    5 1  
     6   12    4 1  
     7    5    6 1  
     8    7    6 1  
     9    8    7 1  
    10   12    8 1  
    11    9   12 1  
    12   15    9 ar 
    13   16   10 ar 
    14   10   17 ar 
    15   11   13 ar 
    16   11   15 ar 
    17   11   16 ar 
    18   13   14 ar 
    19   14   17 ar 
    20    1   18 1  
    21    3   19 1  
    22    3   20 1  
    23    3   21 1  
    24    4   22 1  
    25    4   23 1  
    26    5   24 1  
    27    5   25 1  
    28    6   26 1  
    29    6   27 1  
    30    7   28 1  
    31    7   29 1  
    32    8   30 1  
    33    8   31 1  
    34   10   32 1  
    35   13   33 1  
    36   14   34 1  
    37   17   35 1  
@<TRIPOS>SUBSTRUCTURE
     1 3WC         1

