### 
### Created by X-TOOL on Mon Sep 10 21:13:14 2018
### 

@<TRIPOS>MOLECULE
3zps_ligand
  101   102     1     0     0
SMALL
GAST_HUCK


@<TRIPOS>ATOM
      1 BR         16.4790   16.5930   10.7750 Br        1 EQM        -0.0561
      2 C1         11.9700   24.2580    4.6700 C.3       1 EQM         0.1547
      3 N1         10.2080   25.5340    5.7170 N.am      1 EQM        -0.2620
      4 O1         12.3760   25.5980    4.3570 O.3       1 EQM        -0.3818
      5 C2         10.8910   24.3180    5.5740 C.2       1 EQM         0.2319
      6 N2         15.2780   22.2820    7.1520 N.4       1 EQM         0.3801
      7 O2         10.4240   23.3070    6.1050 O.2       1 EQM        -0.3414
      8 C3          8.8600   25.6370    6.3320 C.3       1 EQM         0.1360
      9 N3         15.8020   21.6890    6.1980 N.am      1 EQM        -0.2494
     10 O3         14.0020   20.3110    5.9530 O.2       1 EQM        -0.3898
     11 C4          8.9580   26.1350    7.7840 C.3       1 EQM         0.0027
     12 N4         16.7030   18.7560    5.5760 N.am      1 EQM        -0.2405
     13 O4         18.7310   19.5330    5.0510 O.2       1 EQM        -0.3774
     14 C5          9.7350   27.4530    7.8430 C.3       1 EQM        -0.0558
     15 N5          6.7890   26.0010    5.1140 N.am      1 EQM        -0.2728
     16 O5         18.6310   17.7800    6.4690 O.3       1 EQM        -0.2672
     17 C6          7.5450   26.3670    8.3190 C.3       1 EQM        -0.0558
     18 O6          8.3380   27.6260    5.2560 O.2       1 EQM        -0.3943
     19 C7         13.1780   23.5000    5.2470 C.3       1 EQM        -0.0102
     20 C8         13.6780   24.1270    6.5550 C.3       1 EQM        -0.0098
     21 C9         15.1360   23.7120    6.8200 C.3       1 EQM        -0.0058
     22 C10        16.1580   22.1640    8.3330 C.3       1 EQM         0.0279
     23 C11        16.2300   20.8560    8.8200 C.ar      1 EQM         0.0051
     24 C12        15.1340   20.6690    5.6160 C.2       1 EQM         0.2392
     25 C13        16.0270   19.7640    4.7480 C.3       1 EQM         0.1419
     26 C14        15.2760   19.0820    3.6020 C.3       1 EQM         0.0027
     27 C15        16.2990   18.5090    2.6190 C.3       1 EQM        -0.0558
     28 C16        14.4100   17.9390    4.1410 C.3       1 EQM        -0.0558
     29 C17        14.3870   20.0940    2.8780 C.3       1 EQM        -0.0558
     30 C18        18.0370   18.7810    5.7500 C.2       1 EQM         0.3216
     31 C19        19.9140   18.2040    6.9410 C.3       1 EQM         0.0663
     32 C20        15.0860   20.2350    9.3060 C.ar      1 EQM        -0.0524
     33 C21        15.1590   18.9460    9.8240 C.ar      1 EQM        -0.0588
     34 C22        16.3880   18.3110    9.9570 C.ar      1 EQM         0.0056
     35 C23        17.5480   18.9750    9.5730 C.ar      1 EQM        -0.0588
     36 C24        17.4670   20.2430    8.9970 C.ar      1 EQM        -0.0524
     37 C25        11.5510   23.5480    3.3680 C.3       1 EQM         0.0171
     38 C26        10.2630   23.9100    2.9830 C.ar      1 EQM        -0.0413
     39 C27        10.0470   25.1020    2.3010 C.ar      1 EQM        -0.0604
     40 C28         8.7570   25.4620    1.9240 C.ar      1 EQM        -0.0686
     41 C29         7.6870   24.6230    2.2160 C.ar      1 EQM        -0.0687
     42 C30         7.9090   23.4200    2.8770 C.ar      1 EQM        -0.0686
     43 C31         9.2030   23.0410    3.2140 C.ar      1 EQM        -0.0604
     44 C33         5.8030   25.3490    2.3790 C.2       1 EQM        -0.1156
     45 C34         8.0180   26.4780    5.5760 C.2       1 EQM         0.2044
     46 C35         9.6630   25.0910    8.6510 C.3       1 EQM        -0.0558
     47 C36         5.1880   26.0930    3.3810 C.2       1 EQM        -0.0674
     48 C37         5.9410   26.8690    4.2600 C.3       1 EQM         0.0589
     49 H1         10.6485   26.3701    5.3900 H         1 EQM         0.1890
     50 H2         11.6480   26.0645    3.9635 H         1 EQM         0.2082
     51 H3         14.3745   21.8818    7.3511 H         1 EQM         0.2321
     52 H4          8.4146   24.6313    6.3447 H         1 EQM         0.0807
     53 H5         16.7046   21.9612    5.8645 H         1 EQM         0.2384
     54 H6         16.1628   18.0396    6.0175 H         1 EQM         0.1899
     55 H7          9.7965   27.7959    8.8864 H         1 EQM         0.0237
     56 H8          9.2170   28.2115    7.2377 H         1 EQM         0.0237
     57 H9         10.7497   27.2985    7.4474 H         1 EQM         0.0237
     58 H10         6.4827   25.0806    5.3572 H         1 EQM         0.1882
     59 H11         6.9790   25.4246    8.2803 H         1 EQM         0.0237
     60 H12         7.0390   27.1241    7.7020 H         1 EQM         0.0237
     61 H13         7.6001   26.7191    9.3596 H         1 EQM         0.0237
     62 H14        13.9941   23.5183    4.5097 H         1 EQM         0.0283
     63 H15        12.8835   22.4583    5.4423 H         1 EQM         0.0283
     64 H16        13.0457   23.7842    7.3873 H         1 EQM         0.0316
     65 H17        13.6204   25.2228    6.4780 H         1 EQM         0.0316
     66 H18        15.7296   23.9229    5.9183 H         1 EQM         0.0822
     67 H19        15.5222   24.3069    7.6608 H         1 EQM         0.0822
     68 H20        15.7687   22.8156    9.1292 H         1 EQM         0.0995
     69 H21        17.1699   22.4919    8.0528 H         1 EQM         0.0995
     70 H22        16.7994   20.4048    4.2977 H         1 EQM         0.0806
     71 H23        15.7729   18.0151    1.7888 H         1 EQM         0.0237
     72 H24        16.9353   17.7766    3.1373 H         1 EQM         0.0237
     73 H25        16.9242   19.3234    2.2241 H         1 EQM         0.0237
     74 H26        13.6708   18.3416    4.8492 H         1 EQM         0.0237
     75 H27        15.0489   17.2059    4.6551 H         1 EQM         0.0237
     76 H28        13.8884   17.4489    3.3058 H         1 EQM         0.0237
     77 H29        15.0073   20.9155    2.4903 H         1 EQM         0.0237
     78 H30        13.6425   20.4968    3.5805 H         1 EQM         0.0237
     79 H31        13.8718   19.5977    2.0424 H         1 EQM         0.0237
     80 H32        20.3800   17.3907    7.5167 H         1 EQM         0.0575
     81 H33        19.7941   19.0874    7.5854 H         1 EQM         0.0575
     82 H34        20.5540   18.4596    6.0837 H         1 EQM         0.0575
     83 H35        14.1355   20.7556    9.2815 H         1 EQM         0.0566
     84 H36        14.2523   18.4341   10.1255 H         1 EQM         0.0626
     85 H37        18.5147   18.5075    9.7212 H         1 EQM         0.0626
     86 H38        18.3715   20.7531    8.6859 H         1 EQM         0.0566
     87 H39        11.5843   22.4601    3.5271 H         1 EQM         0.0441
     88 H40        12.2541   23.8233    2.5681 H         1 EQM         0.0441
     89 H41        10.8827   25.7502    2.0632 H         1 EQM         0.0557
     90 H42         8.5859   26.3968    1.4025 H         1 EQM         0.0599
     91 H43         6.6810   24.9066    1.9286 H         1 EQM         0.0559
     92 H44         7.0729   22.7779    3.1294 H         1 EQM         0.0599
     93 H45         9.3855   22.0685    3.6566 H         1 EQM         0.0557
     94 H46         5.2006   24.7475    1.6999 H         1 EQM         0.0290
     95 H47         6.8867   25.3682    2.2739 H         1 EQM         0.0290
     96 H48        10.6802   24.9225    8.2677 H         1 EQM         0.0237
     97 H49         9.0987   24.1473    8.6203 H         1 EQM         0.0237
     98 H50         9.7174   25.4522    9.6886 H         1 EQM         0.0237
     99 H51         4.1037   26.0686    3.4797 H         1 EQM         0.0692
    100 H52         6.5837   27.5505    3.6834 H         1 EQM         0.0700
    101 H53         5.2636   27.4557    4.8979 H         1 EQM         0.0700
@<TRIPOS>BOND
     1   34    1 1  
     2    2    4 1  
     3    5    2 1  
     4    2   19 1  
     5    2   37 1  
     6    3    5 am 
     7    8    3 1  
     8    5    7 2  
     9    6    9 1  
    10   21    6 1  
    11    6   22 1  
    12    8   11 1  
    13   45    8 1  
    14    9   24 am 
    15   24   10 2  
    16   11   14 1  
    17   11   17 1  
    18   11   46 1  
    19   25   12 1  
    20   12   30 am 
    21   30   13 2  
    22   15   45 am 
    23   48   15 1  
    24   30   16 1  
    25   16   31 1  
    26   45   18 2  
    27   19   20 1  
    28   20   21 1  
    29   22   23 1  
    30   23   32 ar 
    31   23   36 ar 
    32   24   25 1  
    33   25   26 1  
    34   26   27 1  
    35   26   28 1  
    36   26   29 1  
    37   32   33 ar 
    38   33   34 ar 
    39   35   34 ar 
    40   36   35 ar 
    41   37   38 1  
    42   38   39 ar 
    43   38   43 ar 
    44   39   40 ar 
    45   40   41 ar 
    46   42   41 ar 
    47   43   42 ar 
    48   47   44 2  
    49   47   48 1  
    50    3   49 1  
    51    4   50 1  
    52    6   51 1  
    53    8   52 1  
    54    9   53 1  
    55   12   54 1  
    56   14   55 1  
    57   14   56 1  
    58   14   57 1  
    59   15   58 1  
    60   17   59 1  
    61   17   60 1  
    62   17   61 1  
    63   19   62 1  
    64   19   63 1  
    65   20   64 1  
    66   20   65 1  
    67   21   66 1  
    68   21   67 1  
    69   22   68 1  
    70   22   69 1  
    71   25   70 1  
    72   27   71 1  
    73   27   72 1  
    74   27   73 1  
    75   28   74 1  
    76   28   75 1  
    77   28   76 1  
    78   29   77 1  
    79   29   78 1  
    80   29   79 1  
    81   31   80 1  
    82   31   81 1  
    83   31   82 1  
    84   32   83 1  
    85   33   84 1  
    86   35   85 1  
    87   36   86 1  
    88   37   87 1  
    89   37   88 1  
    90   39   89 1  
    91   40   90 1  
    92   41   91 1  
    93   42   92 1  
    94   43   93 1  
    95   44   94 1  
    96   44   95 1  
    97   46   96 1  
    98   46   97 1  
    99   46   98 1  
   100   47   99 1  
   101   48  100 1  
   102   48  101 1  
@<TRIPOS>SUBSTRUCTURE
     1 EQM         1

