### 
### Created by X-TOOL on Mon Sep 10 21:13:15 2018
### 

@<TRIPOS>MOLECULE
3zpt_ligand
   99   101     1     0     0
SMALL
GAST_HUCK


@<TRIPOS>ATOM
      1 C1         12.1620   24.1620    4.6500 C.3       1 M8Y         0.1538
      2 N1         10.4320   25.4730    5.7020 N.am      1 M8Y        -0.2622
      3 O1         12.5310   25.4960    4.2410 O.3       1 M8Y        -0.3819
      4 BR1        16.4530   16.4560   10.8180 Br        1 M8Y        -0.0561
      5 C2         11.1050   24.2620    5.5940 C.2       1 M8Y         0.2318
      6 N2         15.4430   22.2920    7.2620 N.4       1 M8Y         0.3801
      7 O2         10.6260   23.2790    6.1820 O.2       1 M8Y        -0.3414
      8 C3          9.2080   25.7140    6.5040 C.3       1 M8Y         0.1334
      9 N3         15.9400   21.6950    6.2630 N.am      1 M8Y        -0.2494
     10 O3         14.1540   20.2630    6.0720 O.2       1 M8Y        -0.3898
     11 C4          9.5600   26.5670    7.7330 C.3       1 M8Y        -0.0061
     12 N4         16.8640   18.7970    5.6090 N.am      1 M8Y        -0.2405
     13 O4         18.9000   19.5270    5.0670 O.2       1 M8Y        -0.3774
     14 C5          8.2890   26.7530    8.5780 C.3       1 M8Y        -0.0584
     15 N5          7.0640   25.8640    5.3800 N.am      1 M8Y        -0.2769
     16 O5         18.6960   17.8850    6.5940 O.3       1 M8Y        -0.2672
     17 O6          8.5130   27.5510    5.2640 O.2       1 M8Y        -0.3944
     18 C7         13.4410   23.4880    5.2140 C.3       1 M8Y        -0.0103
     19 C8         13.8540   24.1050    6.5700 C.3       1 M8Y        -0.0098
     20 C9         15.3000   23.7260    6.9760 C.3       1 M8Y        -0.0058
     21 C10        16.3350   22.1120    8.4290 C.3       1 M8Y         0.0279
     22 C11        16.3350   20.7900    8.9200 C.ar      1 M8Y         0.0051
     23 C12        15.2710   20.6510    5.7090 C.2       1 M8Y         0.2392
     24 C13        16.1590   19.7910    4.7980 C.3       1 M8Y         0.1419
     25 C14        15.4200   19.1040    3.6530 C.3       1 M8Y         0.0027
     26 C15        16.4550   18.5440    2.6780 C.3       1 M8Y        -0.0558
     27 C16        14.5530   17.9440    4.1720 C.3       1 M8Y        -0.0558
     28 C17        14.5510   20.1170    2.9050 C.3       1 M8Y        -0.0558
     29 C18        18.1750   18.8290    5.7920 C.2       1 M8Y         0.3216
     30 C19        20.1050   18.0290    6.7580 C.3       1 M8Y         0.0663
     31 C20        15.1650   20.1910    9.3770 C.ar      1 M8Y        -0.0524
     32 C21        15.1970   18.8850    9.8690 C.ar      1 M8Y        -0.0588
     33 C22        16.4030   18.2090   10.0230 C.ar      1 M8Y         0.0056
     34 C23        17.5800   18.8340    9.6290 C.ar      1 M8Y        -0.0588
     35 C24        17.5320   20.0990    9.0480 C.ar      1 M8Y        -0.0524
     36 C25        11.6700   23.3700    3.4000 C.3       1 M8Y         0.0140
     37 C26        10.3960   23.7750    2.9460 C.ar      1 M8Y        -0.0478
     38 C27        10.2140   24.9960    2.2920 C.ar      1 M8Y        -0.0666
     39 C28         8.9380   25.3990    1.8860 C.ar      1 M8Y        -0.0652
     40 C29         7.8190   24.6120    2.1490 C.ar      1 M8Y        -0.0420
     41 C30         8.0010   23.4080    2.8250 C.ar      1 M8Y        -0.0652
     42 C31         9.2840   22.9660    3.1650 C.ar      1 M8Y        -0.0666
     43 C32         6.5440   25.0400    1.7110 C.3       1 M8Y        -0.0062
     44 C33         5.5150   24.7900    2.6260 C.2       1 M8Y        -0.0866
     45 C34         8.2750   26.4330    5.7210 C.2       1 M8Y         0.2037
     46 C35        10.6450   25.8930    8.5850 C.3       1 M8Y        -0.0584
     47 C36         5.3520   25.4650    3.8390 C.2       1 M8Y        -0.0745
     48 C37         6.1980   26.4560    4.3390 C.3       1 M8Y         0.0485
     49 H1         10.8056   26.2496    5.1947 H         1 M8Y         0.1889
     50 H2         13.2381   25.4479    3.6084 H         1 M8Y         0.2082
     51 H3         14.5369   21.9012    7.4676 H         1 M8Y         0.2321
     52 H4          8.7749   24.7543    6.8224 H         1 M8Y         0.0804
     53 H5         16.8177   21.9894    5.8848 H         1 M8Y         0.2384
     54 H6          9.9262   27.5488    7.3984 H         1 M8Y         0.0343
     55 H7         16.3356   18.0662    6.0411 H         1 M8Y         0.1899
     56 H8          8.5232   27.3624    9.4633 H         1 M8Y         0.0235
     57 H9          7.9145   25.7696    8.8984 H         1 M8Y         0.0235
     58 H10         7.5200   27.2602    7.9769 H         1 M8Y         0.0235
     59 H11         6.7661   25.0321    5.8482 H         1 M8Y         0.1876
     60 H12        14.2627   23.6220    4.4950 H         1 M8Y         0.0283
     61 H13        13.2475   22.4142    5.3538 H         1 M8Y         0.0283
     62 H14        13.1633   23.7451    7.3468 H         1 M8Y         0.0316
     63 H15        13.7837   25.2002    6.4957 H         1 M8Y         0.0316
     64 H16        15.9793   23.9916    6.1526 H         1 M8Y         0.0822
     65 H17        15.5749   24.2951    7.8763 H         1 M8Y         0.0822
     66 H18        16.0019   22.7850    9.2327 H         1 M8Y         0.0995
     67 H19        17.3605   22.3759    8.1312 H         1 M8Y         0.0995
     68 H20        16.9072   20.4588    4.3461 H         1 M8Y         0.0806
     69 H21        15.9404   18.0441    1.8442 H         1 M8Y         0.0237
     70 H22        17.0964   17.8190    3.2005 H         1 M8Y         0.0237
     71 H23        17.0732   19.3658    2.2874 H         1 M8Y         0.0237
     72 H24        13.8027   18.3335    4.8758 H         1 M8Y         0.0237
     73 H25        15.1915   17.2103    4.6857 H         1 M8Y         0.0237
     74 H26        14.0448   17.4589    3.3256 H         1 M8Y         0.0237
     75 H27        15.1811   20.9410    2.5389 H         1 M8Y         0.0237
     76 H28        13.7846   20.5161    3.5857 H         1 M8Y         0.0237
     77 H29        14.0626   19.6224    2.0525 H         1 M8Y         0.0237
     78 H30        20.4801   17.2350    7.4204 H         1 M8Y         0.0575
     79 H31        20.3240   19.0111    7.2024 H         1 M8Y         0.0575
     80 H32        20.5980   17.9520    5.7777 H         1 M8Y         0.0575
     81 H33        14.2295   20.7381    9.3510 H         1 M8Y         0.0566
     82 H34        14.2694   18.3909   10.1347 H         1 M8Y         0.0626
     83 H35        18.5331   18.3383    9.7735 H         1 M8Y         0.0626
     84 H36        18.4482   20.5532    8.6884 H         1 M8Y         0.0566
     85 H37        11.6245   22.3020    3.6594 H         1 M8Y         0.0428
     86 H38        12.3941   23.5190    2.5855 H         1 M8Y         0.0428
     87 H39        11.0676   25.6353    2.0980 H         1 M8Y         0.0540
     88 H40         8.8177   26.3383    1.3585 H         1 M8Y         0.0543
     89 H41         7.1390   22.8068    3.0906 H         1 M8Y         0.0543
     90 H42         9.4139   21.9832    3.6036 H         1 M8Y         0.0540
     91 H43         6.3070   24.5174    0.7726 H         1 M8Y         0.0534
     92 H44         6.5872   26.1235    1.5265 H         1 M8Y         0.0534
     93 H45         4.7911   24.0159    2.3756 H         1 M8Y         0.0466
     94 H46        11.5548   25.7594    7.9814 H         1 M8Y         0.0235
     95 H47        10.2851   24.9117    8.9278 H         1 M8Y         0.0235
     96 H48        10.8724   26.5250    9.4561 H         1 M8Y         0.0235
     97 H49         4.4899   25.1941    4.4468 H         1 M8Y         0.0480
     98 H50         6.8199   26.8562    3.5247 H         1 M8Y         0.0647
     99 H51         5.5981   27.2682    4.7754 H         1 M8Y         0.0647
@<TRIPOS>BOND
     1    1    3 1  
     2    1    5 1  
     3   18    1 1  
     4    1   36 1  
     5    5    2 am 
     6    2    8 1  
     7   33    4 1  
     8    5    7 2  
     9    6    9 1  
    10    6   20 1  
    11   21    6 1  
    12    8   11 1  
    13    8   45 1  
    14    9   23 am 
    15   23   10 2  
    16   11   14 1  
    17   11   46 1  
    18   24   12 1  
    19   12   29 am 
    20   29   13 2  
    21   45   15 am 
    22   15   48 1  
    23   29   16 1  
    24   16   30 1  
    25   45   17 2  
    26   19   18 1  
    27   20   19 1  
    28   22   21 1  
    29   31   22 ar 
    30   22   35 ar 
    31   23   24 1  
    32   24   25 1  
    33   25   26 1  
    34   25   27 1  
    35   25   28 1  
    36   32   31 ar 
    37   32   33 ar 
    38   33   34 ar 
    39   34   35 ar 
    40   36   37 1  
    41   37   38 ar 
    42   37   42 ar 
    43   38   39 ar 
    44   39   40 ar 
    45   40   41 ar 
    46   40   43 1  
    47   41   42 ar 
    48   43   44 1  
    49   44   47 2  
    50   47   48 1  
    51    2   49 1  
    52    3   50 1  
    53    6   51 1  
    54    8   52 1  
    55    9   53 1  
    56   11   54 1  
    57   12   55 1  
    58   14   56 1  
    59   14   57 1  
    60   14   58 1  
    61   15   59 1  
    62   18   60 1  
    63   18   61 1  
    64   19   62 1  
    65   19   63 1  
    66   20   64 1  
    67   20   65 1  
    68   21   66 1  
    69   21   67 1  
    70   24   68 1  
    71   26   69 1  
    72   26   70 1  
    73   26   71 1  
    74   27   72 1  
    75   27   73 1  
    76   27   74 1  
    77   28   75 1  
    78   28   76 1  
    79   28   77 1  
    80   30   78 1  
    81   30   79 1  
    82   30   80 1  
    83   31   81 1  
    84   32   82 1  
    85   34   83 1  
    86   35   84 1  
    87   36   85 1  
    88   36   86 1  
    89   38   87 1  
    90   39   88 1  
    91   41   89 1  
    92   42   90 1  
    93   43   91 1  
    94   43   92 1  
    95   44   93 1  
    96   46   94 1  
    97   46   95 1  
    98   46   96 1  
    99   47   97 1  
   100   48   98 1  
   101   48   99 1  
@<TRIPOS>SUBSTRUCTURE
     1 M8Y         1

