### 
### Created by X-TOOL on Mon Sep 10 21:13:13 2018
### 

@<TRIPOS>MOLECULE
3zpu_ligand
  102   104     1     0     0
SMALL
GAST_HUCK


@<TRIPOS>ATOM
      1 C19        20.0070   18.0790    6.8370 C.3       1 M8B         0.0663
      2 O5         18.5960   17.9030    6.6060 O.3       1 M8B        -0.2672
      3 C18        18.1050   18.8170    5.7030 C.2       1 M8B         0.3216
      4 O4         18.8460   19.5930    5.0530 O.2       1 M8B        -0.3774
      5 N4         16.8070   18.8230    5.4920 N.am      1 M8B        -0.2405
      6 C13        16.0590   19.8160    4.6810 C.3       1 M8B         0.1419
      7 C14        15.3130   19.1240    3.5330 C.3       1 M8B         0.0027
      8 C16        16.4070   18.6200    2.6370 C.3       1 M8B        -0.0558
      9 C17        14.3870   17.9410    4.0160 C.3       1 M8B        -0.0558
     10 C15        14.4830   20.1720    2.6940 C.3       1 M8B        -0.0558
     11 C12        15.2160   20.6620    5.6950 C.2       1 M8B         0.2392
     12 O3         14.0930   20.3220    6.0930 O.2       1 M8B        -0.3898
     13 N3         15.8820   21.7450    6.1760 N.am      1 M8B        -0.2494
     14 N2         15.3710   22.4380    7.1710 N.4       1 M8B         0.3801
     15 C10        16.2530   22.3250    8.3600 C.3       1 M8B         0.0279
     16 C11        16.3360   21.0100    8.8960 C.ar      1 M8B         0.0051
     17 C20        15.1730   20.3210    9.2720 C.ar      1 M8B        -0.0524
     18 C21        15.3160   19.0000    9.7550 C.ar      1 M8B        -0.0588
     19 C22        16.5380   18.4060    9.9130 C.ar      1 M8B         0.0056
     20 BR1        16.6140   16.5140   10.7070 Br        1 M8B        -0.0561
     21 C23        17.6760   19.1130    9.5590 C.ar      1 M8B        -0.0588
     22 C24        17.5650   20.3950    9.0010 C.ar      1 M8B        -0.0524
     23 C9         15.2870   23.8370    6.8160 C.3       1 M8B        -0.0058
     24 C8         13.8800   24.2530    6.3590 C.3       1 M8B        -0.0098
     25 C7         13.4340   23.6310    5.0040 C.3       1 M8B        -0.0103
     26 C1         12.1260   24.3050    4.5710 C.3       1 M8B         0.1538
     27 C25        11.6650   23.6250    3.1940 C.3       1 M8B         0.0140
     28 O1         12.4360   25.6910    4.3930 O.3       1 M8B        -0.3819
     29 C2         11.0470   24.3300    5.5320 C.2       1 M8B         0.2318
     30 O2         10.5070   23.3240    6.0040 O.2       1 M8B        -0.3414
     31 N1         10.3500   25.5230    5.7620 N.am      1 M8B        -0.2620
     32 C3          9.0490   25.6410    6.5110 C.3       1 M8B         0.1359
     33 C4          9.2090   26.1480    7.9220 C.3       1 M8B         0.0027
     34 C6          9.9820   27.4970    7.9700 C.3       1 M8B        -0.0558
     35 C35         7.7570   26.4490    8.4840 C.3       1 M8B        -0.0558
     36 C5          9.8960   25.1300    8.7770 C.3       1 M8B        -0.0558
     37 C34         8.1810   26.4950    5.6810 C.2       1 M8B         0.2040
     38 O6          8.5380   27.5950    5.2440 O.2       1 M8B        -0.3943
     39 N5          6.8930   26.1370    5.2840 N.am      1 M8B        -0.2769
     40 C37         6.0180   26.9370    4.3860 C.3       1 M8B         0.0485
     41 C36         5.1380   26.0130    3.7440 C.2       1 M8B        -0.0745
     42 C33         5.3580   25.3990    2.5060 C.2       1 M8B        -0.0866
     43 C32         6.4630   25.5680    1.6570 C.3       1 M8B        -0.0062
     44 C29         7.7640   25.0530    2.0560 C.ar      1 M8B        -0.0420
     45 C28         8.9240   25.8220    1.8210 C.ar      1 M8B        -0.0652
     46 C27        10.2300   25.3710    2.1640 C.ar      1 M8B        -0.0666
     47 C26        10.3420   24.1170    2.7980 C.ar      1 M8B        -0.0478
     48 C31         9.1830   23.3500    3.0200 C.ar      1 M8B        -0.0666
     49 C30         7.9290   23.7960    2.6620 C.ar      1 M8B        -0.0652
     50 H1         20.3559   17.3297    7.5628 H         1 M8B         0.0575
     51 H2         20.1904   19.0880    7.2348 H         1 M8B         0.0575
     52 H3         20.5521   17.9536    5.8898 H         1 M8B         0.0575
     53 H4         16.2747   18.0910    5.9172 H         1 M8B         0.1899
     54 H5         16.7812   20.4999    4.2112 H         1 M8B         0.0806
     55 H6         15.9642   18.1020    1.7735 H         1 M8B         0.0237
     56 H7         17.0458   17.9205    3.1961 H         1 M8B         0.0237
     57 H8         17.0125   19.4681    2.2848 H         1 M8B         0.0237
     58 H9         13.5960   18.3378    4.6694 H         1 M8B         0.0237
     59 H10        14.9891   17.2079    4.5729 H         1 M8B         0.0237
     60 H11        13.9303   17.4527    3.1425 H         1 M8B         0.0237
     61 H12        15.1454   20.9872    2.3672 H         1 M8B         0.0237
     62 H13        13.6753   20.5834    3.3171 H         1 M8B         0.0237
     63 H14        14.0500   19.6759    1.8129 H         1 M8B         0.0237
     64 H15        16.7576   22.0142    5.7749 H         1 M8B         0.2384
     65 H16        14.4524   22.0851    7.3891 H         1 M8B         0.2321
     66 H17        15.8657   22.9937    9.1428 H         1 M8B         0.0995
     67 H18        17.2650   22.6454    8.0717 H         1 M8B         0.0995
     68 H19        14.1970   20.7862    9.1947 H         1 M8B         0.0566
     69 H20        14.4250   18.4375   10.0093 H         1 M8B         0.0626
     70 H21        18.6549   18.6739    9.7138 H         1 M8B         0.0626
     71 H22        18.4536   20.9066    8.6492 H         1 M8B         0.0566
     72 H23        15.9949   24.0349    5.9977 H         1 M8B         0.0822
     73 H24        15.5636   24.4394    7.6938 H         1 M8B         0.0822
     74 H25        13.8610   25.3481    6.2576 H         1 M8B         0.0316
     75 H26        13.1616   23.9438    7.1325 H         1 M8B         0.0316
     76 H27        13.2723   22.5499    5.1265 H         1 M8B         0.0283
     77 H28        14.2098   23.8019    4.2432 H         1 M8B         0.0283
     78 H29        11.6212   22.5338    3.3256 H         1 M8B         0.0428
     79 H30        12.3933   23.8705    2.4070 H         1 M8B         0.0428
     80 H31        13.1415   25.7781    3.7628 H         1 M8B         0.2082
     81 H32        10.7490   26.3651    5.3992 H         1 M8B         0.1890
     82 H33         8.5943   24.6416    6.5779 H         1 M8B         0.0807
     83 H34        10.0755   27.8290    9.0145 H         1 M8B         0.0237
     84 H35         9.4330   28.2550    7.3921 H         1 M8B         0.0237
     85 H36        10.9842   27.3610    7.5374 H         1 M8B         0.0237
     86 H37         7.1609   25.5246    8.4736 H         1 M8B         0.0237
     87 H38         7.2694   27.2067    7.8531 H         1 M8B         0.0237
     88 H39         7.8334   26.8244    9.5151 H         1 M8B         0.0237
     89 H40        10.9007   24.9317    8.3753 H         1 M8B         0.0237
     90 H41         9.3115   24.1982    8.7790 H         1 M8B         0.0237
     91 H42         9.9810   25.5118    9.8051 H         1 M8B         0.0237
     92 H43         6.5284   25.2729    5.6310 H         1 M8B         0.1876
     93 H44         6.6254   27.4658    3.6367 H         1 M8B         0.0647
     94 H45         5.4401   27.6674    4.9712 H         1 M8B         0.0647
     95 H46         4.2141   25.7644    4.2641 H         1 M8B         0.0480
     96 H47         4.5851   24.7130    2.1626 H         1 M8B         0.0466
     97 H48         6.5826   26.6502    1.5007 H         1 M8B         0.0534
     98 H49         6.2082   25.0855    0.7019 H         1 M8B         0.0534
     99 H50         8.8159   26.7971    1.3599 H         1 M8B         0.0543
    100 H51        11.1065   25.9702    1.9455 H         1 M8B         0.0540
    101 H52         9.2798   22.3769    3.4877 H         1 M8B         0.0540
    102 H53         7.0628   23.1719    2.8495 H         1 M8B         0.0543
@<TRIPOS>BOND
     1    1    2 1  
     2    2    3 1  
     3    3    4 2  
     4    3    5 am 
     5    5    6 1  
     6    6    7 1  
     7    6   11 1  
     8    7    8 1  
     9    7    9 1  
    10    7   10 1  
    11   11   12 2  
    12   11   13 am 
    13   13   14 1  
    14   14   15 1  
    15   14   23 1  
    16   15   16 1  
    17   16   17 ar 
    18   16   22 ar 
    19   17   18 ar 
    20   18   19 ar 
    21   19   20 1  
    22   19   21 ar 
    23   21   22 ar 
    24   23   24 1  
    25   24   25 1  
    26   25   26 1  
    27   26   27 1  
    28   26   28 1  
    29   26   29 1  
    30   27   47 1  
    31   29   30 2  
    32   29   31 am 
    33   31   32 1  
    34   32   33 1  
    35   32   37 1  
    36   33   34 1  
    37   33   35 1  
    38   33   36 1  
    39   37   38 2  
    40   37   39 am 
    41   39   40 1  
    42   40   41 1  
    43   41   42 2  
    44   42   43 1  
    45   43   44 1  
    46   44   45 ar 
    47   44   49 ar 
    48   45   46 ar 
    49   46   47 ar 
    50   47   48 ar 
    51   48   49 ar 
    52    1   50 1  
    53    1   51 1  
    54    1   52 1  
    55    5   53 1  
    56    6   54 1  
    57    8   55 1  
    58    8   56 1  
    59    8   57 1  
    60    9   58 1  
    61    9   59 1  
    62    9   60 1  
    63   10   61 1  
    64   10   62 1  
    65   10   63 1  
    66   13   64 1  
    67   14   65 1  
    68   15   66 1  
    69   15   67 1  
    70   17   68 1  
    71   18   69 1  
    72   21   70 1  
    73   22   71 1  
    74   23   72 1  
    75   23   73 1  
    76   24   74 1  
    77   24   75 1  
    78   25   76 1  
    79   25   77 1  
    80   27   78 1  
    81   27   79 1  
    82   28   80 1  
    83   31   81 1  
    84   32   82 1  
    85   34   83 1  
    86   34   84 1  
    87   34   85 1  
    88   35   86 1  
    89   35   87 1  
    90   35   88 1  
    91   36   89 1  
    92   36   90 1  
    93   36   91 1  
    94   39   92 1  
    95   40   93 1  
    96   40   94 1  
    97   41   95 1  
    98   42   96 1  
    99   43   97 1  
   100   43   98 1  
   101   45   99 1  
   102   46  100 1  
   103   48  101 1  
   104   49  102 1  
@<TRIPOS>SUBSTRUCTURE
     1 M8B         1

