### 
### Created by X-TOOL on Mon Sep 10 21:13:05 2018
### 

@<TRIPOS>MOLECULE
3zq9_ligand
   46    47     1     0     0
SMALL
GAST_HUCK


@<TRIPOS>ATOM
      1 O4         15.3310   25.3400   12.3550 O.3       1 NOY        -0.3420
      2 C4         14.9640   25.1560   13.7360 C.3       1 NOY         0.1051
      3 C3         15.4350   26.3530   14.5890 C.3       1 NOY         0.1501
      4 O3         16.8540   26.5040   14.5440 O.3       1 NOY        -0.3811
      5 C2         15.0090   26.1220   16.0570 C.3       1 NOY         0.1091
      6 N          13.5510   25.9310   16.1870 N.4       1 NOY         0.2513
      7 C7         12.9920   24.8850   15.2970 C.3       1 NOY        -0.0236
      8 C5         13.4300   25.1500   13.8510 C.3       1 NOY         0.0512
      9 C6         12.7830   24.1700   12.8660 C.3       1 NOY         0.0543
     10 O2         15.4360   27.1980   16.8910 O.3       1 NOY        -0.3504
     11 O6         13.0640   22.8160   13.2460 O.3       1 NOY        -0.3945
     12 C2         16.4590   24.2860   10.5140 C.3       1 BGC         0.1341
     13 C3         17.8510   23.9810    9.9750 C.3       1 BGC         0.1141
     14 C4         18.6930   25.2590   10.0910 C.3       1 BGC         0.1119
     15 C5         18.8090   25.7430   11.5450 C.3       1 BGC         0.1130
     16 C6         19.5730   27.0660   11.6110 C.3       1 BGC         0.0730
     17 C1         16.5960   24.8560   11.9290 C.3       1 BGC         0.1883
     18 O2         15.6910   23.1150   10.6810 O.3       1 BGC        -0.3841
     19 O3         17.7340   23.6170    8.5760 O.3       1 BGC        -0.3864
     20 O4         19.9580   25.0690    9.4710 O.3       1 BGC        -0.3865
     21 O5         17.4650   25.9550   11.9880 O.3       1 BGC        -0.3405
     22 O6         19.6740   27.4820   12.9720 O.3       1 BGC        -0.3924
     23 H1         15.3915   24.2164   14.1160 H         1 NOY         0.0631
     24 H2         14.9638   27.2713   14.2085 H         1 NOY         0.0704
     25 H3         17.1276   26.6489   13.6459 H         1 NOY         0.2103
     26 H4         15.5023   25.2031   16.4068 H         1 NOY         0.1211
     27 H5         13.0974   26.8049   15.9710 H         1 NOY         0.2042
     28 H6         13.3498   25.6747   17.1409 H         1 NOY         0.2042
     29 H7         11.8937   24.9033   15.3557 H         1 NOY         0.0819
     30 H8         13.3599   23.8986   15.6157 H         1 NOY         0.0819
     31 H9         13.0782   26.1569   13.5822 H         1 NOY         0.0401
     32 H10        13.1829   24.3533   11.8578 H         1 NOY         0.0562
     33 H11        11.6942   24.3263   12.8626 H         1 NOY         0.0562
     34 H12        14.9911   27.9956   16.6296 H         1 NOY         0.2155
     35 H13        12.6562   22.2231   12.6258 H         1 NOY         0.2094
     36 H14        15.9470   24.9936    9.8454 H         1 NOY         0.0671
     37 H15        18.3148   23.1625   10.5450 H         1 NOY         0.0648
     38 H16        18.1708   26.0493    9.5318 H         1 NOY         0.0647
     39 H17        19.3128   24.9877   12.1660 H         1 NOY         0.0647
     40 H18        19.0351   27.8308   11.0315 H         1 NOY         0.0584
     41 H19        20.5810   26.9301   11.1921 H         1 NOY         0.0584
     42 H20        16.9527   24.0638   12.6037 H         1 NOY         0.0938
     43 H21        16.1478   22.5183   11.2621 H         1 NOY         0.2101
     44 H22        17.3123   24.3231    8.1004 H         1 NOY         0.2100
     45 H23        19.8302   24.7710    8.5780 H         1 NOY         0.2100
     46 H24        20.1483   28.3039   13.0164 H         1 NOY         0.2095
@<TRIPOS>BOND
     1    1    2 1  
     2   17    1 1  
     3    2    3 1  
     4    2    8 1  
     5    3    4 1  
     6    3    5 1  
     7    5    6 1  
     8    5   10 1  
     9    7    6 1  
    10    8    7 1  
    11    8    9 1  
    12    9   11 1  
    13   12   13 1  
    14   12   17 1  
    15   12   18 1  
    16   13   14 1  
    17   13   19 1  
    18   14   15 1  
    19   14   20 1  
    20   15   16 1  
    21   15   21 1  
    22   16   22 1  
    23   17   21 1  
    24    2   23 1  
    25    3   24 1  
    26    4   25 1  
    27    5   26 1  
    28    6   27 1  
    29    6   28 1  
    30    7   29 1  
    31    7   30 1  
    32    8   31 1  
    33    9   32 1  
    34    9   33 1  
    35   10   34 1  
    36   11   35 1  
    37   12   36 1  
    38   13   37 1  
    39   14   38 1  
    40   15   39 1  
    41   16   40 1  
    42   16   41 1  
    43   17   42 1  
    44   18   43 1  
    45   19   44 1  
    46   20   45 1  
    47   22   46 1  
@<TRIPOS>SUBSTRUCTURE
     1 NOY         1

