### 
### Created by X-TOOL on Mon Sep 10 21:13:08 2018
### 

@<TRIPOS>MOLECULE
3zqe_ligand
   67    70     1     0     0
SMALL
GAST_HUCK


@<TRIPOS>ATOM
      1 C1         -0.7890   22.7230   14.8810 C.3       1 DXC         0.0555
      2 C2         -1.0180   21.2760   14.4390 C.3       1 DXC        -0.0235
      3 C3         -0.0460   20.3530   15.1770 C.3       1 DXC        -0.0330
      4 C4          1.4140   20.7310   14.9120 C.3       1 DXC        -0.0259
      5 C5          1.6310   22.1960   15.2960 C.3       1 DXC        -0.0448
      6 C6          0.6540   23.1170   14.5620 C.3       1 DXC        -0.0263
      7 C7         -0.3280   18.9080   14.7610 C.3       1 DXC        -0.0494
      8 C8         -0.0040   18.7190   13.2770 C.3       1 DXC        -0.0494
      9 C9          1.4590   19.0780   13.0140 C.3       1 DXC        -0.0342
     10 C10         1.7600   20.5180   13.4350 C.3       1 DXC        -0.0299
     11 C11         1.7850   18.9300   11.5270 C.3       1 DXC        -0.0299
     12 C12         3.2760   19.1630   11.2940 C.3       1 DXC         0.0001
     13 C13         3.6100   20.6030   11.6970 C.3       1 DXC         0.0614
     14 C14         3.2320   20.8510   13.1610 C.3       1 DXC        -0.0227
     15 C15         1.6300   17.5170   10.9680 C.3       1 DXC        -0.0491
     16 C16         2.3980   17.6280    9.6470 C.3       1 DXC        -0.0491
     17 C17         3.2780   18.8760    9.7910 C.3       1 DXC        -0.0303
     18 C18         2.3220   19.8510   15.7750 C.3       1 DXC        -0.0590
     19 C19         4.6510   18.6590    9.1450 C.3       1 DXC        -0.0390
     20 O1          2.9060   21.5170   10.8550 O.3       1 DXC        -0.3912
     21 O2         -1.6900   23.5770   14.1700 O.3       1 DXC        -0.3918
     22 C20         4.1090   18.1500   12.0810 C.3       1 DXC        -0.0567
     23 C21         4.4380   18.2250    7.6940 C.3       1 DXC        -0.0386
     24 C22         5.7000   17.6830    7.0140 C.3       1 DXC         0.0004
     25 C23         6.6230   18.7850    6.4860 C.2       1 DXC         0.0348
     26 O3          7.7480   18.8860    7.0080 O.co2     1 DXC        -0.5690
     27 O4          6.1860   19.4800    5.5370 O.co2     1 DXC        -0.5690
     28 C24         5.4990   19.9320    9.2190 C.3       1 DXC        -0.0620
     29 H1         -0.9677   22.8151   15.9625 H         1 DXC         0.0593
     30 H2         -0.8495   21.1934   13.3551 H         1 DXC         0.0293
     31 H3         -2.0516   20.9811   14.6729 H         1 DXC         0.0293
     32 H4         -0.2294   20.4480   16.2574 H         1 DXC         0.0307
     33 H5          2.6598   22.4855   15.0356 H         1 DXC         0.0271
     34 H6          1.4819   22.3076   16.3801 H         1 DXC         0.0271
     35 H7          0.8255   24.1557   14.8809 H         1 DXC         0.0290
     36 H8          0.8217   23.0337   13.4781 H         1 DXC         0.0290
     37 H9         -1.3900   18.6795   14.9341 H         1 DXC         0.0268
     38 H10         0.2958   18.2280   15.3597 H         1 DXC         0.0268
     39 H11        -0.6536   19.3721   12.6758 H         1 DXC         0.0268
     40 H12        -0.1782   17.6698   12.9963 H         1 DXC         0.0268
     41 H13         2.0976   18.3949   13.5932 H         1 DXC         0.0306
     42 H14         1.1345   21.1941   12.8337 H         1 DXC         0.0310
     43 H15         1.1690   19.6409   10.9569 H         1 DXC         0.0310
     44 H16         4.6913   20.7646   11.5762 H         1 DXC         0.0599
     45 H17         3.8648   20.2211   13.8034 H         1 DXC         0.0293
     46 H18         3.4074   21.9105   13.3991 H         1 DXC         0.0293
     47 H19         0.5727   17.2651   10.7986 H         1 DXC         0.0268
     48 H20         2.0829   16.7686   11.6349 H         1 DXC         0.0268
     49 H21         1.7002   17.7443    8.8047 H         1 DXC         0.0268
     50 H22         3.0200   16.7349    9.4872 H         1 DXC         0.0268
     51 H23         2.8048   19.7230    9.2727 H         1 DXC         0.0310
     52 H24         2.0766   20.0011   16.8367 H         1 DXC         0.0235
     53 H25         3.3727   20.1250   15.5993 H         1 DXC         0.0235
     54 H26         2.1691   18.7946   15.5092 H         1 DXC         0.0235
     55 H27         5.1777   17.8579    9.6843 H         1 DXC         0.0302
     56 H28         3.1440   21.3588    9.9490 H         1 DXC         0.2098
     57 H29        -2.5847   23.3289   14.3709 H         1 DXC         0.2098
     58 H30         4.0748   18.4001   13.1516 H         1 DXC         0.0236
     59 H31         5.1511   18.1809   11.7304 H         1 DXC         0.0236
     60 H32         3.7001   17.1405   11.9271 H         1 DXC         0.0236
     61 H33         4.0829   19.0945    7.1214 H         1 DXC         0.0286
     62 H34         3.6707   17.4370    7.6777 H         1 DXC         0.0286
     63 H35         5.3961   17.0474    6.1692 H         1 DXC         0.0430
     64 H36         6.2588   17.0796    7.7445 H         1 DXC         0.0430
     65 H37         5.6360   20.2206   10.2716 H         1 DXC         0.0233
     66 H38         4.9894   20.7440    8.6795 H         1 DXC         0.0233
     67 H39         6.4808   19.7459    8.7591 H         1 DXC         0.0233
@<TRIPOS>BOND
     1    1    2 1  
     2    1    6 1  
     3    1   21 1  
     4    2    3 1  
     5    3    4 1  
     6    3    7 1  
     7    4    5 1  
     8    4   10 1  
     9    4   18 1  
    10    5    6 1  
    11    7    8 1  
    12    8    9 1  
    13    9   10 1  
    14    9   11 1  
    15   10   14 1  
    16   11   12 1  
    17   11   15 1  
    18   12   13 1  
    19   12   17 1  
    20   12   22 1  
    21   13   14 1  
    22   13   20 1  
    23   15   16 1  
    24   16   17 1  
    25   17   19 1  
    26   19   23 1  
    27   19   28 1  
    28   23   24 1  
    29   24   25 1  
    30   25   26 ar 
    31   25   27 ar 
    32    1   29 1  
    33    2   30 1  
    34    2   31 1  
    35    3   32 1  
    36    5   33 1  
    37    5   34 1  
    38    6   35 1  
    39    6   36 1  
    40    7   37 1  
    41    7   38 1  
    42    8   39 1  
    43    8   40 1  
    44    9   41 1  
    45   10   42 1  
    46   11   43 1  
    47   13   44 1  
    48   14   45 1  
    49   14   46 1  
    50   15   47 1  
    51   15   48 1  
    52   16   49 1  
    53   16   50 1  
    54   17   51 1  
    55   18   52 1  
    56   18   53 1  
    57   18   54 1  
    58   19   55 1  
    59   20   56 1  
    60   21   57 1  
    61   22   58 1  
    62   22   59 1  
    63   22   60 1  
    64   23   61 1  
    65   23   62 1  
    66   24   63 1  
    67   24   64 1  
    68   28   65 1  
    69   28   66 1  
    70   28   67 1  
@<TRIPOS>SUBSTRUCTURE
     1 DXC         1

