### 
### Created by X-TOOL on Mon Sep 10 21:13:08 2018
### 

@<TRIPOS>MOLECULE
3zqt_ligand
   44    45     1     0     0
SMALL
GAST_HUCK


@<TRIPOS>ATOM
      1 O25        20.9530   14.4150   31.9130 O.3       1 30Z        -0.3385
      2 C19        20.0930   15.4680   32.0660 C.ar      1 30Z         0.1098
      3 C18        18.9210   15.5380   31.3190 C.ar      1 30Z        -0.0401
      4 C20        20.3960   16.5560   33.0310 C.ar      1 30Z         0.1088
      5 O23        21.5330   16.5340   33.7780 O.3       1 30Z        -0.3414
      6 C21        19.5050   17.6100   33.1650 C.ar      1 30Z        -0.0482
      7 C22        18.3470   17.6340   32.3960 C.ar      1 30Z        -0.0801
      8 C17        18.0580   16.6160   31.4880 C.ar      1 30Z        -0.0624
      9 C15        16.7850   16.6970   30.6800 C.3       1 30Z        -0.0237
     10 C14        17.0480   16.1300   29.2930 C.3       1 30Z        -0.0316
     11 C16        18.5240   15.7800   29.1430 C.3       1 30Z        -0.0604
     12 C12        16.5950   17.0600   28.1700 C.3       1 30Z        -0.0316
     13 C13        16.8980   16.3570   26.8610 C.3       1 30Z        -0.0604
     14 C11        15.1110   17.4120   28.2390 C.3       1 30Z        -0.0237
     15 C3         14.8180   18.9020   28.3000 C.ar      1 30Z        -0.0624
     16 C2         15.7100   19.7850   28.9090 C.ar      1 30Z        -0.0801
     17 C4         13.6290   19.3870   27.7530 C.ar      1 30Z        -0.0401
     18 C5         13.3150   20.7430   27.7960 C.ar      1 30Z         0.1098
     19 O9         12.1530   21.2110   27.2590 O.3       1 30Z        -0.3385
     20 C6         14.2720   21.6770   28.4400 C.ar      1 30Z         0.1088
     21 C1         15.4440   21.1530   28.9760 C.ar      1 30Z        -0.0482
     22 O7         14.0070   23.0150   28.5100 O.3       1 30Z        -0.3414
     23 H          21.7031   14.5278   32.5014 H         1 30Z         0.2442
     24 H          18.6801   14.7512   30.6042 H         1 30Z         0.0450
     25 H          21.5601   17.3114   34.3405 H         1 30Z         0.2420
     26 H          19.7114   18.4156   33.8696 H         1 30Z         0.0492
     27 H          17.6508   18.4656   32.5051 H         1 30Z         0.0436
     28 H          16.4638   17.7355   30.5998 H         1 30Z         0.0407
     29 H          15.9988   16.1232   31.1707 H         1 30Z         0.0407
     30 H          16.4479   15.2249   29.1994 H         1 30Z         0.0322
     31 H          19.1252   16.6783   29.2834 H         1 30Z         0.0234
     32 H          18.7979   15.0372   29.8922 H         1 30Z         0.0234
     33 H          18.7006   15.3751   28.1465 H         1 30Z         0.0234
     34 H          17.1290   18.0057   28.2627 H         1 30Z         0.0322
     35 H          17.9686   16.1639   26.7931 H         1 30Z         0.0234
     36 H          16.3541   15.4132   26.8226 H         1 30Z         0.0234
     37 H          16.5883   16.9904   26.0297 H         1 30Z         0.0234
     38 H          14.7217   16.9728   29.1575 H         1 30Z         0.0407
     39 H          14.6510   17.0339   27.3260 H         1 30Z         0.0407
     40 H          16.6331   19.3985   29.3411 H         1 30Z         0.0436
     41 H          12.9334   18.6915   27.2835 H         1 30Z         0.0450
     42 H          12.1062   22.1622   27.3800 H         1 30Z         0.2442
     43 H          16.1627   21.8188   29.4538 H         1 30Z         0.0492
     44 H          13.1616   23.1949   28.0923 H         1 30Z         0.2420
@<TRIPOS>BOND
     1    1    2 1  
     2    2    3 ar 
     3    2    4 ar 
     4    3    8 ar 
     5    4    5 1  
     6    4    6 ar 
     7    6    7 ar 
     8    7    8 ar 
     9    8    9 1  
    10    9   10 1  
    11   10   11 1  
    12   10   12 1  
    13   12   13 1  
    14   12   14 1  
    15   14   15 1  
    16   15   16 ar 
    17   15   17 ar 
    18   16   21 ar 
    19   17   18 ar 
    20   18   19 1  
    21   18   20 ar 
    22   20   21 ar 
    23   20   22 1  
    24    1   23 1  
    25    3   24 1  
    26    5   25 1  
    27    6   26 1  
    28    7   27 1  
    29    9   28 1  
    30    9   29 1  
    31   10   30 1  
    32   11   31 1  
    33   11   32 1  
    34   11   33 1  
    35   12   34 1  
    36   13   35 1  
    37   13   36 1  
    38   13   37 1  
    39   14   38 1  
    40   14   39 1  
    41   16   40 1  
    42   17   41 1  
    43   19   42 1  
    44   21   43 1  
    45   22   44 1  
@<TRIPOS>SUBSTRUCTURE
     1 30Z         1

