### 
### Created by X-TOOL on Mon Sep 10 21:13:11 2018
### 

@<TRIPOS>MOLECULE
3zrc_ligand
   52    55     1     0     0
SMALL
GAST_HUCK


@<TRIPOS>ATOM
      1 CAA       -56.7070  -10.9350   -5.1580 C.3       1 L8B        -0.0292
      2 CAW       -56.0300  -11.9020   -4.2460 C.2       1 L8B         0.0089
      3 CAK       -54.7890  -11.8300   -3.8700 C.2       1 L8B        -0.0302
      4 NAQ       -56.6130  -12.9290   -3.7450 N.2       1 L8B        -0.1728
      5 OAT       -55.7000  -13.5180   -2.9960 O.3       1 L8B        -0.1784
      6 CAZ       -54.5770  -12.8470   -3.0950 C.2       1 L8B         0.1501
      7 CAM       -53.3310  -13.2620   -2.3620 C.3       1 L8B         0.1092
      8 CAU       -53.5270  -12.8320   -0.9350 C.2       1 L8B         0.1975
      9 OAB       -53.3230  -11.6660   -0.6970 O.2       1 L8B        -0.3931
     10 N         -54.0010  -13.6670    0.0010 N.am      1 L8B        -0.2472
     11 CD2       -54.3240  -15.0460   -0.2130 C.3       1 L8B         0.0630
     12 CG        -55.1030  -15.4130    0.9950 C.3       1 L8B         0.0799
     13 OD1       -56.3080  -14.7800    0.9510 O.3       1 L8B        -0.3896
     14 CB        -54.3150  -14.7250    2.0030 C.3       1 L8B         0.0158
     15 CA        -54.3040  -13.3800    1.3850 C.3       1 L8B         0.1363
     16 C         -53.1660  -12.6510    1.9880 C.2       1 L8B         0.2038
     17 O         -52.0770  -12.6510    1.4540 O.2       1 L8B        -0.3944
     18 NAR       -53.4500  -12.0180    3.0930 N.am      1 L8B        -0.2737
     19 CAL       -52.4580  -11.2210    3.7650 C.3       1 L8B         0.0642
     20 CAX       -52.1310  -11.9890    4.9620 C.ar      1 L8B        -0.0218
     21 CAF       -53.0710  -12.8010    5.4780 C.ar      1 L8B        -0.0589
     22 CAH       -52.7880  -13.5360    6.5800 C.ar      1 L8B        -0.0595
     23 CAE       -50.9060  -11.9040    5.5270 C.ar      1 L8B        -0.0589
     24 CAG       -50.6160  -12.6450    6.6370 C.ar      1 L8B        -0.0595
     25 CAY       -51.5730  -13.4530    7.1640 C.ar      1 L8B         0.0070
     26 CBA       -51.3250  -14.2130    8.2740 C.2       1 L8B         0.1383
     27 CAJ       -50.5320  -13.9990    9.2660 C.2       1 L8B         0.0059
     28 NAP       -50.6420  -15.0340   10.0390 N.2       1 L8B        -0.3050
     29 CAI       -51.4930  -15.8850    9.5560 C.2       1 L8B         0.1629
     30 OAS       -51.9140  -15.3670    8.4420 O.3       1 L8B        -0.2297
     31 H         -57.0534  -11.4591   -6.0487 H         1 L8B         0.0374
     32 H         -57.5578  -10.4876   -4.6442 H         1 L8B         0.0374
     33 H         -56.0027  -10.1542   -5.4451 H         1 L8B         0.0374
     34 H         -54.0666  -11.0637   -4.1513 H         1 L8B         0.0265
     35 H         -52.4450  -12.7985   -2.7958 H         1 L8B         0.0718
     36 H         -53.1719  -14.3381   -2.4317 H         1 L8B         0.0718
     37 H         -53.4374  -15.6668   -0.3419 H         1 L8B         0.0550
     38 H         -54.8841  -15.2049   -1.1345 H         1 L8B         0.0550
     39 H         -55.2677  -16.4817    1.1326 H         1 L8B         0.0616
     40 H         -56.8189  -15.0123    1.7299 H         1 L8B         0.2099
     41 H         -53.3332  -15.1551    2.2009 H         1 L8B         0.0338
     42 H         -54.7136  -14.7691    3.0165 H         1 L8B         0.0338
     43 H         -55.2190  -12.8010    1.5098 H         1 L8B         0.0803
     44 H         -54.3885  -12.0891    3.4861 H         1 L8B         0.1879
     45 H         -52.8258  -10.2233    4.0046 H         1 L8B         0.0684
     46 H         -51.5830  -11.0414    3.1403 H         1 L8B         0.0684
     47 H         -54.0543  -12.8671    5.0123 H         1 L8B         0.0556
     48 H         -53.5457  -14.1987    6.9982 H         1 L8B         0.0592
     49 H         -50.1511  -11.2454    5.0976 H         1 L8B         0.0556
     50 H         -49.6284  -12.5889    7.0948 H         1 L8B         0.0592
     51 H         -49.8981  -13.1263    9.4234 H         1 L8B         0.0534
     52 H         -51.7926  -16.8371    9.9940 H         1 L8B         0.1401
@<TRIPOS>BOND
     1    1    2 1  
     2    2    3 1  
     3    2    4 2  
     4    3    6 2  
     5    4    5 1  
     6    5    6 1  
     7    6    7 1  
     8    7    8 1  
     9    8    9 2  
    10    8   10 am 
    11   10   11 1  
    12   10   15 1  
    13   11   12 1  
    14   12   13 1  
    15   12   14 1  
    16   14   15 1  
    17   15   16 1  
    18   16   17 2  
    19   16   18 am 
    20   18   19 1  
    21   19   20 1  
    22   20   21 ar 
    23   20   23 ar 
    24   21   22 ar 
    25   22   25 ar 
    26   23   24 ar 
    27   24   25 ar 
    28   25   26 1  
    29   26   27 2  
    30   26   30 1  
    31   27   28 1  
    32   28   29 2  
    33   29   30 1  
    34    1   31 1  
    35    1   32 1  
    36    1   33 1  
    37    3   34 1  
    38    7   35 1  
    39    7   36 1  
    40   11   37 1  
    41   11   38 1  
    42   12   39 1  
    43   13   40 1  
    44   14   41 1  
    45   14   42 1  
    46   15   43 1  
    47   18   44 1  
    48   19   45 1  
    49   19   46 1  
    50   21   47 1  
    51   22   48 1  
    52   23   49 1  
    53   24   50 1  
    54   27   51 1  
    55   29   52 1  
@<TRIPOS>SUBSTRUCTURE
     1 L8B         1

