### 
### Created by X-TOOL on Mon Sep 10 21:13:07 2018
### 

@<TRIPOS>MOLECULE
3zrk_ligand
   24    26     1     0     0
SMALL
GAST_HUCK


@<TRIPOS>ATOM
      1 C1        105.1820   21.9270  -10.2670 C.2       1 ZRK         0.0564
      2 C2        105.2610   23.0400  -11.0100 C.2       1 ZRK        -0.0079
      3 C3        104.0910   23.8060  -11.0360 C.2       1 ZRK         0.1169
      4 C4        102.9370   23.4740  -10.3700 C.2       1 ZRK         0.0561
      5 C5        102.8510   22.2840   -9.5800 C.2       1 ZRK         0.2074
      6 O8        101.8240   21.9760   -8.9870 O.2       1 ZRK        -0.4095
      7 O10       103.8940   24.9830  -11.7020 O.3       1 ZRK        -0.2596
      8 C11       102.6150   25.3850  -11.4500 C.2       1 ZRK         0.1214
      9 C12       102.2020   26.6240  -12.0500 C.ar      1 ZRK         0.0188
     10 C17       103.0810   27.3790  -12.7980 C.ar      1 ZRK        -0.0333
     11 C16       102.6320   28.5640  -13.3410 C.ar      1 ZRK         0.0017
     12 C9        101.9760   24.4800  -10.6270 C.2       1 ZRK        -0.0390
     13 N15       101.3890   29.0400  -13.1950 N.ar      1 ZRK        -0.3085
     14 C14       100.5630   28.2830  -12.4640 C.ar      1 ZRK         0.0017
     15 N3        104.0400   21.5640   -9.5840 N.am      1 ZRK        -0.2266
     16 C13       100.9150   27.0860  -11.8770 C.ar      1 ZRK        -0.0333
     17 H1        106.0568   21.2819  -10.1998 H         1 ZRK         0.1160
     18 H2        106.1630   23.3247  -11.5496 H         1 ZRK         0.0347
     19 H3        104.1013   27.0483  -12.9553 H         1 ZRK         0.0662
     20 H4        103.3323   29.1498  -13.9254 H         1 ZRK         0.0794
     21 H5        100.9534   24.5295  -10.2558 H         1 ZRK         0.0440
     22 H6         99.5473   28.6348  -12.3235 H         1 ZRK         0.0794
     23 H7        104.0697   20.7184   -9.0511 H         1 ZRK         0.2516
     24 H8        100.1966   26.5218  -11.2934 H         1 ZRK         0.0662
@<TRIPOS>BOND
     1    1    2 2  
     2    1   15 1  
     3    2    3 1  
     4    3    4 2  
     5    3    7 1  
     6    4    5 1  
     7    4   12 1  
     8    5    6 2  
     9    5   15 am 
    10    7    8 1  
    11    8    9 1  
    12    8   12 2  
    13    9   10 ar 
    14    9   16 ar 
    15   10   11 ar 
    16   11   13 ar 
    17   13   14 ar 
    18   14   16 ar 
    19    1   17 1  
    20    2   18 1  
    21   10   19 1  
    22   11   20 1  
    23   12   21 1  
    24   14   22 1  
    25   15   23 1  
    26   16   24 1  
@<TRIPOS>SUBSTRUCTURE
     1 ZRK         1

