### 
### Created by X-TOOL on Mon Sep 10 21:13:06 2018
### 

@<TRIPOS>MOLECULE
3zrl_ligand
   24    26     1     0     0
SMALL
GAST_HUCK


@<TRIPOS>ATOM
      1 C3        106.2440   21.3150  -10.1960 C.2       1 ZRL         0.0738
      2 C2        106.5040   22.3390  -11.0100 C.2       1 ZRL         0.0492
      3 C11       105.4830   23.2770  -11.1140 C.2       1 ZRL         0.0400
      4 C7        104.2780   23.2150  -10.4620 C.2       1 ZRL         0.0420
      5 C5        104.0030   22.1200   -9.5910 C.2       1 ZRL         0.2136
      6 O6        102.9370   22.0370   -9.0020 O.2       1 ZRL        -0.4065
      7 C9        104.0210   25.2110  -11.6410 C.2       1 ZRL         0.0335
      8 C12       103.4890   26.4530  -12.1350 C.ar      1 ZRL        -0.0043
      9 C13       102.1890   26.8110  -11.8400 C.ar      1 ZRL        -0.0356
     10 C14       101.7160   28.0170  -12.3190 C.ar      1 ZRL         0.0014
     11 C8        103.4450   24.3190  -10.7620 C.2       1 ZRL        -0.0558
     12 N15       102.4330   28.8760  -13.0550 N.ar      1 ZRL        -0.3087
     13 C16       103.6930   28.4970  -13.3160 C.ar      1 ZRL         0.0014
     14 N4        105.0470   21.2100   -9.5170 N.am      1 ZRL        -0.2177
     15 C17       104.2630   27.3180  -12.8850 C.ar      1 ZRL        -0.0356
     16 S10       105.5870   24.6720  -12.1060 S.3       1 ZRL        -0.0392
     17 BR1       108.0750   22.5920  -11.9870 Br        1 ZRL        -0.0770
     18 H1        106.9974   20.5399  -10.0634 H         1 ZRL         0.1267
     19 H2        101.5550   26.1617  -11.2471 H         1 ZRL         0.0660
     20 H3        100.6931   28.2871  -12.0828 H         1 ZRL         0.0794
     21 H4        102.4494   24.4506  -10.3409 H         1 ZRL         0.0496
     22 H5        104.3071   29.1657  -13.9083 H         1 ZRL         0.0794
     23 H6        104.9225   20.4142   -8.9243 H         1 ZRL         0.2582
     24 H7        105.2913   27.0759  -13.1280 H         1 ZRL         0.0660
@<TRIPOS>BOND
     1    2    1 2  
     2   14    1 1  
     3    3    2 1  
     4    2   17 1  
     5    4    3 2  
     6    3   16 1  
     7    4    5 1  
     8   11    4 1  
     9    5    6 2  
    10    5   14 am 
    11    7    8 1  
    12    7   11 2  
    13    7   16 1  
    14    8    9 ar 
    15    8   15 ar 
    16    9   10 ar 
    17   10   12 ar 
    18   12   13 ar 
    19   13   15 ar 
    20    1   18 1  
    21    9   19 1  
    22   10   20 1  
    23   11   21 1  
    24   13   22 1  
    25   14   23 1  
    26   15   24 1  
@<TRIPOS>SUBSTRUCTURE
     1 ZRL         1

