### 
### Created by X-TOOL on Mon Sep 10 21:13:06 2018
### 

@<TRIPOS>MOLECULE
3zrm_ligand
   35    38     1     0     0
SMALL
GAST_HUCK


@<TRIPOS>ATOM
      1 C4        108.4140   21.0740  -11.7200 C.ar      1 ZRM        -0.0719
      2 C6        108.3530   23.4530  -11.7750 C.ar      1 ZRM        -0.0719
      3 C3        109.6950   21.0790  -12.2320 C.ar      1 ZRM        -0.0392
      4 C7        109.6310   23.4750  -12.2950 C.ar      1 ZRM        -0.0392
      5 C19       104.0540   27.0970  -12.9880 C.ar      1 ZRM        -0.0354
      6 C23       101.9920   26.5690  -11.9280 C.ar      1 ZRM        -0.0354
      7 C14       103.2510   24.1130  -10.8430 C.2       1 ZRM        -0.0551
      8 C20       103.4690   28.2740  -13.4050 C.ar      1 ZRM         0.0016
      9 C22       101.5010   27.7690  -12.4050 C.ar      1 ZRM         0.0016
     10 C18       103.2930   26.2270  -12.2310 C.ar      1 ZRM        -0.0039
     11 C5        107.7310   22.2530  -11.4860 C.ar      1 ZRM        -0.0439
     12 C13       104.1050   23.0400  -10.4930 C.2       1 ZRM         0.0437
     13 C2        110.2940   22.2840  -12.5150 C.ar      1 ZRM         0.0820
     14 C15       103.8430   25.0030  -11.7150 C.2       1 ZRM         0.0340
     15 C17       105.3400   23.1230  -11.0930 C.2       1 ZRM         0.0421
     16 C9        106.0750   21.2160  -10.0860 C.2       1 ZRM         0.0751
     17 C8        106.3830   22.2160  -10.9190 C.2       1 ZRM         0.0203
     18 C11       103.7990   21.9620   -9.6030 C.2       1 ZRM         0.2157
     19 N21       102.2090   28.6420  -13.1320 N.ar      1 ZRM        -0.3086
     20 N10       104.8520   21.0810   -9.4680 N.am      1 ZRM        -0.2174
     21 O12       102.7090   21.8670   -9.0520 O.2       1 ZRM        -0.4042
     22 O1        111.5720   22.2830  -13.0310 O.3       1 ZRM        -0.3366
     23 S16       105.4480   24.5050  -12.1080 S.3       1 ZRM        -0.0381
     24 H1        107.9340   20.1280  -11.4970 H         1 ZRM         0.0534
     25 H2        107.8319   24.3857  -11.5914 H         1 ZRM         0.0534
     26 H3        110.2211   20.1478  -12.4084 H         1 ZRM         0.0529
     27 H4        110.1101   24.4189  -12.5287 H         1 ZRM         0.0529
     28 H5        105.0801   26.8614  -13.2463 H         1 ZRM         0.0661
     29 H6        101.3699   25.9126  -11.3303 H         1 ZRM         0.0661
     30 H7        102.2359   24.2240  -10.4647 H         1 ZRM         0.0496
     31 H8        104.0726   28.9520  -13.9975 H         1 ZRM         0.0794
     32 H9        100.4721   28.0208  -12.1748 H         1 ZRM         0.0794
     33 H10       106.8365   20.4640   -9.8846 H         1 ZRM         0.1253
     34 H11       104.7171   20.2853   -8.8775 H         1 ZRM         0.2592
     35 H12       111.8765   21.3873  -13.1181 H         1 ZRM         0.2466
@<TRIPOS>BOND
     1    1    3 ar 
     2   11    1 ar 
     3    2    4 ar 
     4   11    2 ar 
     5    3   13 ar 
     6    4   13 ar 
     7    5    8 ar 
     8   10    5 ar 
     9    6    9 ar 
    10   10    6 ar 
    11   12    7 1  
    12    7   14 2  
    13    8   19 ar 
    14    9   19 ar 
    15   14   10 1  
    16   17   11 1  
    17   15   12 2  
    18   12   18 1  
    19   13   22 1  
    20   14   23 1  
    21   15   17 1  
    22   15   23 1  
    23   17   16 2  
    24   16   20 1  
    25   18   20 am 
    26   18   21 2  
    27    1   24 1  
    28    2   25 1  
    29    3   26 1  
    30    4   27 1  
    31    5   28 1  
    32    6   29 1  
    33    7   30 1  
    34    8   31 1  
    35    9   32 1  
    36   16   33 1  
    37   20   34 1  
    38   22   35 1  
@<TRIPOS>SUBSTRUCTURE
     1 ZRM         1

