### 
### Created by X-TOOL on Sun Sep  9 21:51:28 2018
### 

@<TRIPOS>MOLECULE
3zs0_ligand
   28    30     1     0     0
SMALL
GAST_HUCK


@<TRIPOS>ATOM
      1 C1         -3.4910   19.6170   17.2480 C.2       1 NON         0.1152
      2 C2         -2.6610   18.9450   16.3450 C.2       1 NON         0.2125
      3 N3         -1.4050   19.4570   16.5500 N.pl3     1 NON        -0.2307
      4 C4         -1.4810   20.3960   17.5450 C.2       1 NON         0.0885
      5 N5         -2.7160   20.4840   17.9540 N.2       1 NON        -0.3302
      6 N6         -5.3630   18.3540   16.3530 N.am      1 NON        -0.1989
      7 C7         -4.5330   17.7160   15.4870 C.2       1 NON         0.1989
      8 N8         -3.1990   17.9990   15.4780 N.am      1 NON        -0.1712
      9 C9         -4.9230   19.2850   17.2470 C.2       1 NON         0.2081
     10 O10        -5.6940   19.8520   18.0180 O.2       1 NON        -0.4048
     11 S11        -5.2150   16.5350   14.3980 S.2       1 NON        -0.2894
     12 C12        -2.2760   17.2900   14.5760 C.3       1 NON         0.0985
     13 C13        -2.2400   17.8010   13.1600 C.ar      1 NON        -0.0164
     14 C14        -2.0430   19.1580   12.9170 C.ar      1 NON        -0.0594
     15 C15        -1.9990   19.6050   11.6070 C.ar      1 NON        -0.0348
     16 C16        -2.1530   18.6910   10.5590 C.ar      1 NON         0.1248
     17 C17        -2.3490   17.3320   10.8020 C.ar      1 NON        -0.0348
     18 C18        -2.3970   16.8880   12.1170 C.ar      1 NON        -0.0594
     19 F19        -2.1010   19.1410    9.2930 F         1 NON        -0.1893
     20 H          -0.5597   19.1854   16.0480 H         1 NON         0.2403
     21 H          -0.6435   20.9762   17.9324 H         1 NON         0.1135
     22 H          -6.3572   18.1270   16.3336 H         1 NON         0.2367
     23 H          -2.6205   16.2571   14.5262 H         1 NON         0.0776
     24 H          -1.2744   17.4282   14.9831 H         1 NON         0.0776
     25 H          -1.9253   19.8573   13.7448 H         1 NON         0.0548
     26 H          -1.8453   20.6628   11.3936 H         1 NON         0.0587
     27 H          -2.4625   16.6310    9.9750 H         1 NON         0.0587
     28 H          -2.5565   15.8316   12.3330 H         1 NON         0.0548
@<TRIPOS>BOND
     1    1    2 2  
     2    1    5 1  
     3    9    1 1  
     4    2    3 1  
     5    2    8 1  
     6    4    3 1  
     7    5    4 2  
     8    6    7 am 
     9    6    9 am 
    10    7    8 am 
    11    7   11 2  
    12    8   12 1  
    13    9   10 2  
    14   12   13 1  
    15   13   14 ar 
    16   13   18 ar 
    17   14   15 ar 
    18   15   16 ar 
    19   16   17 ar 
    20   16   19 1  
    21   17   18 ar 
    22    3   20 1  
    23    4   21 1  
    24    6   22 1  
    25   12   23 1  
    26   12   24 1  
    27   14   25 1  
    28   15   26 1  
    29   17   27 1  
    30   18   28 1  
@<TRIPOS>SUBSTRUCTURE
     1 NON         1

