### 
### Created by X-TOOL on Mon Sep 10 21:13:09 2018
### 

@<TRIPOS>MOLECULE
3zso_ligand
   78    82     1     0     0
SMALL
GAST_HUCK


@<TRIPOS>ATOM
      1 C1        -11.1980   48.6360    5.7650 C.ar      1 O2N        -0.0630
      2 C2        -12.1670   49.3520    5.0980 C.ar      1 O2N        -0.0640
      3 C3        -10.1340   48.1430    5.0200 C.ar      1 O2N        -0.0483
      4 C4        -12.0970   49.5930    3.7350 C.ar      1 O2N        -0.0493
      5 C5        -11.4330   45.7610   -1.7080 C.ar      1 O2N        -0.0712
      6 C6         -7.5110   45.0570   -0.0520 C.ar      1 O2N        -0.0648
      7 C7         -9.0860   44.1280    1.4740 C.ar      1 O2N        -0.0648
      8 C8         -5.2450   45.7400    3.4850 C.ar      1 O2N        -0.0648
      9 C9         -6.8620   44.1580    4.2050 C.ar      1 O2N        -0.0648
     10 C10       -12.1820   45.0440   -2.6950 C.ar      1 O2N        -0.0449
     11 C11        -8.0190   44.2790   -1.1000 C.ar      1 O2N        -0.0392
     12 C12        -9.6300   43.3030    0.4780 C.ar      1 O2N        -0.0392
     13 C13        -4.3690   45.1910    4.4190 C.ar      1 O2N        -0.0392
     14 C14        -5.9900   43.5460    5.1380 C.ar      1 O2N        -0.0392
     15 C15       -10.0470   48.3700    3.6580 C.ar      1 O2N         0.0566
     16 C16       -13.3770   45.9810   -0.2340 C.ar      1 O2N         0.0376
     17 C17        -8.0280   44.9890    1.2360 C.ar      1 O2N        -0.0192
     18 C18        -6.5240   45.2110    3.3620 C.ar      1 O2N        -0.0192
     19 C19       -11.0350   49.1020    3.0010 C.ar      1 O2N         0.0220
     20 C20       -12.0130   46.2190   -0.4920 C.ar      1 O2N        -0.0032
     21 C21       -13.5130   44.8600   -2.4080 C.ar      1 O2N         0.1200
     22 C22       -14.0810   45.2910   -1.2220 C.ar      1 O2N         0.1327
     23 C23        -9.0620   43.3710   -0.7840 C.ar      1 O2N         0.0839
     24 C24        -4.7340   44.1160    5.2220 C.ar      1 O2N         0.0839
     25 C25       -10.1880   50.4690   -1.8410 C.2       1 O2N        -0.1125
     26 C26       -10.5950   49.2370   -1.4870 C.2       1 O2N        -0.0447
     27 C27        -8.8760   47.8470    2.9210 C.2       1 O2N         0.2037
     28 C28       -14.1030   46.3470    1.0410 C.2       1 O2N         0.0515
     29 C29       -15.6260   44.2650   -2.3770 C.3       1 O2N         0.1864
     30 C30       -10.0940   41.2730   -1.5770 C.3       1 O2N         0.0579
     31 C31        -4.2950   42.9450    7.2050 C.3       1 O2N         0.0579
     32 C32       -10.9890   49.4020    1.5390 C.3       1 O2N         0.0086
     33 C33       -11.2370   46.9690    0.5810 C.3       1 O2N         0.0003
     34 C34       -11.8720   49.0400   -0.7170 C.3       1 O2N        -0.0011
     35 C35        -7.4560   45.8790    2.3540 C.3       1 O2N         0.0982
     36 N36        -8.5540   46.4980    3.0730 N.am      1 O2N        -0.2653
     37 N37       -11.7660   48.4410    0.6520 N.4       1 O2N         0.2715
     38 O38       -14.9210   45.4650    1.4580 O.co2     1 O2N        -0.5668
     39 O39        -8.2340   48.6430    2.2300 O.2       1 O2N        -0.3883
     40 O40       -13.8560   47.3660    1.7630 O.co2     1 O2N        -0.5668
     41 O41       -14.4350   44.2300   -3.1870 O.3       1 O2N        -0.2947
     42 O42       -15.4470   44.9910   -1.1430 O.3       1 O2N        -0.2890
     43 O43        -9.5610   42.5890   -1.8390 O.3       1 O2N        -0.3255
     44 O44        -3.7480   43.6550    6.0940 O.3       1 O2N        -0.3255
     45 H1        -11.2631   48.4632    6.8332 H         1 O2N         0.0572
     46 H2        -13.0113   49.7394    5.6568 H         1 O2N         0.0635
     47 H3         -9.3580   47.5702    5.5148 H         1 O2N         0.0651
     48 H4        -12.8755   50.1667    3.2452 H         1 O2N         0.0570
     49 H5        -10.3843   45.9627   -1.8940 H         1 O2N         0.0445
     50 H6         -6.6882   45.7338   -0.2521 H         1 O2N         0.0534
     51 H7         -9.5113   44.0898    2.4704 H         1 O2N         0.0534
     52 H8         -4.9325   46.5700    2.8617 H         1 O2N         0.0534
     53 H9         -7.8741   43.7749    4.1430 H         1 O2N         0.0534
     54 H10       -11.7297   44.6715   -3.6070 H         1 O2N         0.0514
     55 H11        -7.6320   44.3669   -2.1087 H         1 O2N         0.0526
     56 H12       -10.4611   42.6392    0.6873 H         1 O2N         0.0526
     57 H13        -3.3760   45.6133    4.5225 H         1 O2N         0.0526
     58 H14        -6.2854   42.6948    5.7407 H         1 O2N         0.0526
     59 H15        -9.2613   50.5971   -2.3984 H         1 O2N         0.0292
     60 H16       -10.7852   51.3385   -1.5702 H         1 O2N         0.0292
     61 H17        -9.9930   48.3719   -1.7611 H         1 O2N         0.0725
     62 H18       -15.9171   43.2318   -2.1368 H         1 O2N         0.0973
     63 H19       -16.4286   44.7474   -2.9542 H         1 O2N         0.0973
     64 H20       -10.4330   40.8202   -2.5204 H         1 O2N         0.0575
     65 H21       -10.9434   41.3529   -0.8827 H         1 O2N         0.0575
     66 H22        -9.3117   40.6432   -1.1284 H         1 O2N         0.0575
     67 H23        -3.4795   42.6040    7.8597 H         1 O2N         0.0575
     68 H24        -4.8613   42.0750    6.8413 H         1 O2N         0.0575
     69 H25        -4.9656   43.6089    7.7702 H         1 O2N         0.0575
     70 H26        -9.9361   49.3816    1.2211 H         1 O2N         0.0995
     71 H27       -11.3986   50.4114    1.3864 H         1 O2N         0.0995
     72 H28       -10.1665   46.9729    0.3281 H         1 O2N         0.0966
     73 H29       -11.3822   46.4769    1.5540 H         1 O2N         0.0966
     74 H30       -12.5201   48.3828   -1.3154 H         1 O2N         0.0998
     75 H31       -12.3481   50.0258   -0.6098 H         1 O2N         0.0998
     76 H32        -6.8742   46.6716    1.8609 H         1 O2N         0.0837
     77 H33        -9.0982   45.9389    3.6985 H         1 O2N         0.1893
     78 H34       -12.6968   48.3851    1.0349 H         1 O2N         0.2082
@<TRIPOS>BOND
     1    1    2 ar 
     2    3    1 ar 
     3    4    2 ar 
     4   15    3 ar 
     5   19    4 ar 
     6    5   10 ar 
     7   20    5 ar 
     8    6   11 ar 
     9   17    6 ar 
    10    7   12 ar 
    11   17    7 ar 
    12    8   13 ar 
    13   18    8 ar 
    14    9   14 ar 
    15   18    9 ar 
    16   10   21 ar 
    17   11   23 ar 
    18   12   23 ar 
    19   13   24 ar 
    20   14   24 ar 
    21   15   19 ar 
    22   27   15 1  
    23   20   16 ar 
    24   16   22 ar 
    25   16   28 1  
    26   35   17 1  
    27   35   18 1  
    28   19   32 1  
    29   33   20 1  
    30   22   21 ar 
    31   21   41 1  
    32   22   42 1  
    33   23   43 1  
    34   24   44 1  
    35   26   25 2  
    36   34   26 1  
    37   36   27 am 
    38   27   39 2  
    39   28   38 ar 
    40   28   40 ar 
    41   29   41 1  
    42   42   29 1  
    43   43   30 1  
    44   44   31 1  
    45   32   37 1  
    46   37   33 1  
    47   37   34 1  
    48   35   36 1  
    49    1   45 1  
    50    2   46 1  
    51    3   47 1  
    52    4   48 1  
    53    5   49 1  
    54    6   50 1  
    55    7   51 1  
    56    8   52 1  
    57    9   53 1  
    58   10   54 1  
    59   11   55 1  
    60   12   56 1  
    61   13   57 1  
    62   14   58 1  
    63   25   59 1  
    64   25   60 1  
    65   26   61 1  
    66   29   62 1  
    67   29   63 1  
    68   30   64 1  
    69   30   65 1  
    70   30   66 1  
    71   31   67 1  
    72   31   68 1  
    73   31   69 1  
    74   32   70 1  
    75   32   71 1  
    76   33   72 1  
    77   33   73 1  
    78   34   74 1  
    79   34   75 1  
    80   35   76 1  
    81   36   77 1  
    82   37   78 1  
@<TRIPOS>SUBSTRUCTURE
     1 O2N         1

