### 
### Created by X-TOOL on Mon Sep 10 21:13:08 2018
### 

@<TRIPOS>MOLECULE
3zsq_ligand
   73    76     1     0     0
SMALL
GAST_HUCK


@<TRIPOS>ATOM
      1 C1        -11.6750   35.2310    7.0140 C.ar      1 O4N        -0.0630
      2 C2        -12.7850   34.8420    6.2940 C.ar      1 O4N        -0.0640
      3 C3        -10.6210   35.9020    6.3410 C.ar      1 O4N        -0.0483
      4 C4        -12.8650   35.0840    4.9420 C.ar      1 O4N        -0.0493
      5 C5         -9.4130   33.3640   -0.4800 C.ar      1 O4N        -0.0712
      6 C6         -6.7700   36.5390    1.4710 C.ar      1 O4N        -0.0666
      7 C7         -6.6790   34.5590    2.8120 C.ar      1 O4N        -0.0666
      8 C8         -9.3250   32.3810   -1.4400 C.ar      1 O4N        -0.0449
      9 C9         -6.4370   35.7430    0.3690 C.ar      1 O4N        -0.0395
     10 C10        -6.3720   33.7720    1.7240 C.ar      1 O4N        -0.0395
     11 C11       -10.7270   36.1490    4.9800 C.ar      1 O4N         0.0564
     12 C12       -10.6080   31.8330    0.9950 C.ar      1 O4N         0.0376
     13 C13        -6.8820   35.9370    2.7030 C.ar      1 O4N        -0.0288
     14 C14       -11.8620   35.7320    4.2620 C.ar      1 O4N         0.0219
     15 C15       -10.0740   33.1070    0.7410 C.ar      1 O4N        -0.0032
     16 C16        -9.8790   31.1520   -1.1970 C.ar      1 O4N         0.1200
     17 C17       -10.4860   30.8660    0.0210 C.ar      1 O4N         0.1327
     18 C18        -6.2510   34.3710    0.5040 C.ar      1 O4N         0.0837
     19 C19       -12.4730   37.2430   -0.5130 C.2       1 O4N        -0.1125
     20 C20       -11.8860   36.0500   -0.3560 C.2       1 O4N        -0.0447
     21 C21        -9.6200   36.8400    4.3240 C.2       1 O4N         0.2021
     22 C22       -11.2720   31.4800    2.3300 C.2       1 O4N         0.0515
     23 C23       -10.4760   29.0410   -1.1770 C.3       1 O4N         0.1864
     24 C24        -5.0400   37.8170    6.8400 C.3       1 O4N        -0.0651
     25 C25        -5.6750   32.3020   -0.5290 C.3       1 O4N         0.0579
     26 C26       -12.0270   35.9400    2.7360 C.3       1 O4N         0.0086
     27 C27       -10.1660   34.2720    1.7290 C.3       1 O4N         0.0003
     28 C28       -12.3920   34.9150    0.4800 C.3       1 O4N        -0.0011
     29 C29        -6.3600   37.7950    6.0330 C.3       1 O4N        -0.0522
     30 C30        -6.0880   36.8300    4.8890 C.3       1 O4N        -0.0217
     31 C31        -7.2060   36.8340    3.8980 C.3       1 O4N         0.0699
     32 N32        -8.3840   36.3970    4.6270 N.am      1 O4N        -0.2746
     33 N33       -11.6810   34.7400    1.8270 N.4       1 O4N         0.2715
     34 O34       -11.0620   30.2890    2.7380 O.co2     1 O4N        -0.5668
     35 O35        -9.8010   37.7530    3.5090 O.2       1 O4N        -0.3884
     36 O36       -11.8040   32.4040    3.0000 O.co2     1 O4N        -0.5668
     37 O37        -9.9260   30.0620   -2.0030 O.3       1 O4N        -0.2947
     38 O38       -11.0080   29.5570    0.0760 O.3       1 O4N        -0.2890
     39 O39        -5.9890   33.7080   -0.6660 O.3       1 O4N        -0.3257
     40 H1        -11.6086   35.0276    8.0767 H         1 O4N         0.0572
     41 H2        -13.6029   34.3404    6.7985 H         1 O4N         0.0635
     42 H3         -9.7395   36.2192    6.8864 H         1 O4N         0.0651
     43 H4        -13.7431   34.7546    4.3984 H         1 O4N         0.0570
     44 H5         -8.9736   34.3381   -0.6621 H         1 O4N         0.0445
     45 H6         -6.9357   37.6041    1.3565 H         1 O4N         0.0531
     46 H7         -6.7661   34.0929    3.7868 H         1 O4N         0.0531
     47 H8         -8.8218   32.5779   -2.3797 H         1 O4N         0.0514
     48 H9         -6.3221   36.2032   -0.6057 H         1 O4N         0.0525
     49 H10        -6.2300   32.7030    1.8343 H         1 O4N         0.0525
     50 H11       -12.0120   37.9972   -1.1490 H         1 O4N         0.0292
     51 H12       -13.4115   37.4592   -0.0047 H         1 O4N         0.0292
     52 H13       -10.9495   35.8892   -0.8879 H         1 O4N         0.0725
     53 H14        -9.6867   28.3094   -0.9493 H         1 O4N         0.0973
     54 H15       -11.2892   28.5441   -1.7263 H         1 O4N         0.0973
     55 H16        -5.1459   38.4977    7.6976 H         1 O4N         0.0230
     56 H17        -4.2210   38.1659    6.1939 H         1 O4N         0.0230
     57 H18        -4.8148   36.8031    7.2023 H         1 O4N         0.0230
     58 H19        -5.4831   31.8707   -1.5226 H         1 O4N         0.0575
     59 H20        -6.5229   31.7808   -0.0606 H         1 O4N         0.0575
     60 H21        -4.7803   32.1857    0.1002 H         1 O4N         0.0575
     61 H22       -11.3774   36.7777    2.4424 H         1 O4N         0.0995
     62 H23       -13.0774   36.2072    2.5484 H         1 O4N         0.0995
     63 H24        -9.5431   35.1069    1.3756 H         1 O4N         0.0966
     64 H25        -9.8148   33.9460    2.7191 H         1 O4N         0.0966
     65 H26       -12.2688   33.9854   -0.0949 H         1 O4N         0.0998
     66 H27       -13.4607   35.0854    0.6771 H         1 O4N         0.0998
     67 H28        -6.5977   38.7977    5.6482 H         1 O4N         0.0265
     68 H29        -7.1915   37.4349    6.6566 H         1 O4N         0.0265
     69 H30        -5.9738   35.8146    5.2962 H         1 O4N         0.0307
     70 H31        -5.1586   37.1283    4.3818 H         1 O4N         0.0307
     71 H32        -7.3676   37.8569    3.5273 H         1 O4N         0.0697
     72 H33        -8.2741   35.7462    5.3782 H         1 O4N         0.1869
     73 H34       -12.1372   33.9549    2.2647 H         1 O4N         0.2082
@<TRIPOS>BOND
     1    1    2 ar 
     2    3    1 ar 
     3    4    2 ar 
     4   11    3 ar 
     5   14    4 ar 
     6    5    8 ar 
     7   15    5 ar 
     8    6    9 ar 
     9   13    6 ar 
    10    7   10 ar 
    11   13    7 ar 
    12    8   16 ar 
    13    9   18 ar 
    14   10   18 ar 
    15   11   14 ar 
    16   21   11 1  
    17   15   12 ar 
    18   12   17 ar 
    19   12   22 1  
    20   31   13 1  
    21   14   26 1  
    22   27   15 1  
    23   17   16 ar 
    24   16   37 1  
    25   17   38 1  
    26   18   39 1  
    27   20   19 2  
    28   28   20 1  
    29   32   21 am 
    30   21   35 2  
    31   22   34 ar 
    32   22   36 ar 
    33   23   37 1  
    34   38   23 1  
    35   29   24 1  
    36   39   25 1  
    37   26   33 1  
    38   33   27 1  
    39   33   28 1  
    40   30   29 1  
    41   31   30 1  
    42   31   32 1  
    43    1   40 1  
    44    2   41 1  
    45    3   42 1  
    46    4   43 1  
    47    5   44 1  
    48    6   45 1  
    49    7   46 1  
    50    8   47 1  
    51    9   48 1  
    52   10   49 1  
    53   19   50 1  
    54   19   51 1  
    55   20   52 1  
    56   23   53 1  
    57   23   54 1  
    58   24   55 1  
    59   24   56 1  
    60   24   57 1  
    61   25   58 1  
    62   25   59 1  
    63   25   60 1  
    64   26   61 1  
    65   26   62 1  
    66   27   63 1  
    67   27   64 1  
    68   28   65 1  
    69   28   66 1  
    70   29   67 1  
    71   29   68 1  
    72   30   69 1  
    73   30   70 1  
    74   31   71 1  
    75   32   72 1  
    76   33   73 1  
@<TRIPOS>SUBSTRUCTURE
     1 O4N         1

