### 
### Created by X-TOOL on Mon Sep 10 21:13:09 2018
### 

@<TRIPOS>MOLECULE
3zsw_ligand
   70    72     1     0     0
SMALL
GAST_HUCK


@<TRIPOS>ATOM
      1 C1         -9.8260   47.5920    4.8750 C.ar      1 ZSW        -0.0630
      2 C2        -10.6750   48.5200    4.3070 C.ar      1 ZSW        -0.0640
      3 C3         -8.9890   46.8430    4.0750 C.ar      1 ZSW        -0.0483
      4 C4        -10.6940   48.6950    2.9370 C.ar      1 ZSW        -0.0493
      5 C5        -11.6330   44.9920   -2.2660 C.ar      1 ZSW        -0.0712
      6 C6        -12.5450   44.5530   -3.2070 C.ar      1 ZSW        -0.0450
      7 C7         -9.0170   47.0180    2.7100 C.ar      1 ZSW         0.0563
      8 C8        -13.3940   45.4970   -0.6970 C.ar      1 ZSW         0.0374
      9 C9         -9.8700   47.9430    2.1260 C.ar      1 ZSW         0.0219
     10 C10       -12.0410   45.4570   -1.0260 C.ar      1 ZSW        -0.0032
     11 C11       -13.8830   44.6010   -2.8810 C.ar      1 ZSW         0.1170
     12 C12       -14.3130   45.0460   -1.6400 C.ar      1 ZSW         0.1294
     13 C13       -10.3760   49.9850   -2.4190 C.2       1 ZSW        -0.1125
     14 C14       -10.4640   48.6840   -2.1250 C.2       1 ZSW        -0.0447
     15 C15        -8.1180   46.1620    1.9080 C.2       1 ZSW         0.2005
     16 C16       -13.8480   45.9580    0.6430 C.2       1 ZSW         0.0515
     17 C17       -16.8830   45.5580   -6.4420 C.2       1 ZSW         0.0349
     18 C19        -9.0980   42.4120    0.4650 C.3       1 ZSW        -0.0632
     19 C18        -7.7440   43.0790    0.5610 C.3       1 ZSW        -0.0331
     20 C20        -7.5000   43.6490    1.9370 C.3       1 ZSW         0.0383
     21 C22        -6.0170   43.8260    2.1850 C.3       1 ZSW        -0.0421
     22 C23       -16.4880   44.3990   -2.2340 C.3       1 ZSW         0.0988
     23 C25       -16.0540   44.6830   -3.6480 C.3       1 ZSW         0.1061
     24 C26        -9.9400   48.1690    0.6530 C.3       1 ZSW         0.0086
     25 C27       -10.9850   45.9470   -0.0810 C.3       1 ZSW         0.0003
     26 C28       -11.5350   48.1780   -1.2430 C.3       1 ZSW        -0.0011
     27 C29       -16.5820   44.1220   -6.0450 C.3       1 ZSW         0.0029
     28 C31       -17.0270   44.0090   -4.6020 C.3       1 ZSW        -0.0087
     29 N32        -8.2960   44.8310    2.2410 N.am      1 ZSW        -0.2845
     30 N33       -11.0820   47.4660   -0.0040 N.4       1 ZSW         0.2715
     31 O37       -14.7060   45.2140    1.2190 O.co2     1 ZSW        -0.5668
     32 O35       -17.9390   46.0780   -5.9920 O.co2     1 ZSW        -0.5690
     33 O36        -7.3930   46.6350    1.0500 O.2       1 ZSW        -0.3885
     34 O34       -13.3090   46.9650    1.1780 O.co2     1 ZSW        -0.5668
     35 O38       -16.0200   46.0890   -7.1910 O.co2     1 ZSW        -0.5690
     36 O39       -15.6670   45.1100   -1.3110 O.3       1 ZSW        -0.3168
     37 O40       -14.7520   44.1530   -3.8440 O.3       1 ZSW        -0.3195
     38 H1         -9.8171   47.4519    5.9499 H         1 ZSW         0.0572
     39 H2        -11.3282   49.1127    4.9372 H         1 ZSW         0.0635
     40 H3         -8.3131   46.1208    4.5184 H         1 ZSW         0.0651
     41 H4        -11.3605   49.4277    2.4966 H         1 ZSW         0.0570
     42 H5        -10.5754   44.9722   -2.5031 H         1 ZSW         0.0445
     43 H6        -12.2179   44.1824   -4.1717 H         1 ZSW         0.0514
     44 H7         -9.5807   50.3433   -3.0709 H         1 ZSW         0.0292
     45 H8        -11.0996   50.6866   -2.0066 H         1 ZSW         0.0292
     46 H9         -9.7367   47.9884   -2.5411 H         1 ZSW         0.0725
     47 H10        -9.2378   42.0105   -0.5495 H         1 ZSW         0.0230
     48 H11        -9.8859   43.1490    0.6794 H         1 ZSW         0.0230
     49 H12        -9.1551   41.5913    1.1952 H         1 ZSW         0.0230
     50 H13        -7.6946   43.8937   -0.1764 H         1 ZSW         0.0285
     51 H14        -6.9638   42.3359    0.3393 H         1 ZSW         0.0285
     52 H15        -7.8372   42.8802    2.6478 H         1 ZSW         0.0552
     53 H16        -5.8606   44.2417    3.1913 H         1 ZSW         0.0252
     54 H17        -5.5994   44.5139    1.4352 H         1 ZSW         0.0252
     55 H18        -5.5135   42.8510    2.1088 H         1 ZSW         0.0252
     56 H19       -16.4029   43.3199   -2.0383 H         1 ZSW         0.0641
     57 H20       -17.5342   44.7136   -2.1056 H         1 ZSW         0.0641
     58 H21       -16.0458   45.7681   -3.8280 H         1 ZSW         0.0671
     59 H22        -9.0037   47.8101    0.2008 H         1 ZSW         0.0995
     60 H23       -10.0448   49.2488    0.4710 H         1 ZSW         0.0995
     61 H24        -9.9907   45.6557   -0.4504 H         1 ZSW         0.0966
     62 H25       -11.1474   45.5126    0.9164 H         1 ZSW         0.0966
     63 H26       -12.1505   47.4784   -1.8276 H         1 ZSW         0.0998
     64 H27       -12.1495   49.0360   -0.9328 H         1 ZSW         0.0998
     65 H28       -15.5055   43.9144   -6.1343 H         1 ZSW         0.0431
     66 H29       -17.1446   43.4204   -6.6784 H         1 ZSW         0.0431
     67 H30       -18.0133   44.4845   -4.4970 H         1 ZSW         0.0312
     68 H31       -17.1032   42.9442   -4.3369 H         1 ZSW         0.0312
     69 H32        -9.1144   44.6481    2.7858 H         1 ZSW         0.1845
     70 H33       -11.8460   47.6050    0.6387 H         1 ZSW         0.2082
@<TRIPOS>BOND
     1    2    1 ar 
     2    3    1 ar 
     3    4    2 ar 
     4    7    3 ar 
     5    9    4 ar 
     6    6    5 ar 
     7    5   10 ar 
     8   11    6 ar 
     9    9    7 ar 
    10    7   15 1  
    11    8   10 ar 
    12   12    8 ar 
    13    8   16 1  
    14   24    9 1  
    15   10   25 1  
    16   11   12 ar 
    17   37   11 1  
    18   36   12 1  
    19   14   13 2  
    20   26   14 1  
    21   15   29 am 
    22   15   33 2  
    23   16   31 ar 
    24   16   34 ar 
    25   27   17 1  
    26   17   32 ar 
    27   17   35 ar 
    28   19   18 1  
    29   20   19 1  
    30   20   21 1  
    31   29   20 1  
    32   23   22 1  
    33   22   36 1  
    34   28   23 1  
    35   23   37 1  
    36   30   24 1  
    37   25   30 1  
    38   30   26 1  
    39   27   28 1  
    40    1   38 1  
    41    2   39 1  
    42    3   40 1  
    43    4   41 1  
    44    5   42 1  
    45    6   43 1  
    46   13   44 1  
    47   13   45 1  
    48   14   46 1  
    49   18   47 1  
    50   18   48 1  
    51   18   49 1  
    52   19   50 1  
    53   19   51 1  
    54   20   52 1  
    55   21   53 1  
    56   21   54 1  
    57   21   55 1  
    58   22   56 1  
    59   22   57 1  
    60   23   58 1  
    61   24   59 1  
    62   24   60 1  
    63   25   61 1  
    64   25   62 1  
    65   26   63 1  
    66   26   64 1  
    67   27   65 1  
    68   27   66 1  
    69   28   67 1  
    70   28   68 1  
    71   29   69 1  
    72   30   70 1  
@<TRIPOS>SUBSTRUCTURE
     1 ZSW         1

