### 
### Created by X-TOOL on Mon Sep 10 21:13:09 2018
### 

@<TRIPOS>MOLECULE
3zsx_ligand
   60    63     1     0     0
SMALL
GAST_HUCK


@<TRIPOS>ATOM
      1 C1         -8.6990   42.1900   -0.2160 C.ar      1 N44        -0.0687
      2 C2        -10.5610   48.0060    5.9460 C.ar      1 N44        -0.0630
      3 C3         -8.3660   41.6880    1.0240 C.ar      1 N44        -0.0685
      4 C4         -8.4790   43.5210   -0.4930 C.ar      1 N44        -0.0685
      5 C5        -11.4430   48.8430    5.3080 C.ar      1 N44        -0.0640
      6 C6         -9.5690   47.3550    5.2370 C.ar      1 N44        -0.0483
      7 C7         -7.8310   42.5170    1.9820 C.ar      1 N44        -0.0584
      8 C8         -7.9500   44.3510    0.4730 C.ar      1 N44        -0.0584
      9 C9        -11.3160   49.0260    3.9420 C.ar      1 N44        -0.0493
     10 C10       -11.4150   45.4100   -1.4350 C.ar      1 N44        -0.0712
     11 C11       -12.2240   44.8440   -2.4120 C.ar      1 N44        -0.0449
     12 C12        -9.4420   47.5320    3.8700 C.ar      1 N44         0.0564
     13 C13       -13.2840   45.6280    0.1090 C.ar      1 N44         0.0376
     14 C14        -7.6250   43.8540    1.7210 C.ar      1 N44        -0.0211
     15 C15       -10.3280   48.3820    3.2220 C.ar      1 N44         0.0219
     16 C16       -11.9300   45.7920   -0.1960 C.ar      1 N44        -0.0032
     17 C17       -13.5540   44.6850   -2.0970 C.ar      1 N44         0.1200
     18 C18       -14.0720   45.0580   -0.8820 C.ar      1 N44         0.1327
     19 C19        -9.7750   49.8150   -1.5440 C.2       1 N44        -0.1125
     20 C20       -10.4420   48.6770   -1.3170 C.2       1 N44        -0.0447
     21 C21        -8.3530   46.8170    3.1400 C.2       1 N44         0.2021
     22 C22       -13.8630   46.0140    1.4470 C.2       1 N44         0.0515
     23 C23       -15.6780   44.2290   -2.1100 C.3       1 N44         0.1864
     24 C24        -7.0610   44.7550    2.7740 C.3       1 N44         0.0638
     25 C25       -10.2600   48.6390    1.7570 C.3       1 N44         0.0086
     26 C26       -10.9790   46.4010    0.7950 C.3       1 N44         0.0003
     27 C27       -11.5650   48.6040   -0.3400 C.3       1 N44        -0.0011
     28 N28        -8.1140   45.4850    3.4500 N.am      1 N44        -0.2760
     29 N29       -11.2360   47.8790    0.9330 N.4       1 N44         0.2715
     30 O30       -14.8250   45.3120    1.8660 O.co2     1 N44        -0.5668
     31 O31        -7.7010   47.4220    2.3030 O.2       1 N44        -0.3884
     32 O32       -13.3620   46.9690    2.1130 O.co2     1 N44        -0.5668
     33 O33       -14.4970   44.1510   -2.9400 O.3       1 N44        -0.2947
     34 O34       -15.4420   44.8020   -0.8110 O.3       1 N44        -0.2890
     35 H1         -9.1315   41.5408   -0.9687 H         1 N44         0.0559
     36 H2        -10.6435   47.8543    7.0162 H         1 N44         0.0572
     37 H3         -8.5260   40.6387    1.2441 H         1 N44         0.0599
     38 H4         -8.7221   43.9170   -1.4723 H         1 N44         0.0599
     39 H5        -12.2235   49.3505    5.8633 H         1 N44         0.0635
     40 H6         -8.8821   46.6978    5.7578 H         1 N44         0.0651
     41 H7         -7.5684   42.1140    2.9534 H         1 N44         0.0557
     42 H8         -7.7881   45.3998    0.2521 H         1 N44         0.0557
     43 H9        -12.0043   49.6867    3.4275 H         1 N44         0.0570
     44 H10       -10.3608   45.5581   -1.6397 H         1 N44         0.0445
     45 H11       -11.8273   44.5425   -3.3747 H         1 N44         0.0514
     46 H12        -8.9591   49.8334   -2.2650 H         1 N44         0.0292
     47 H13       -10.0482   50.7225   -1.0077 H         1 N44         0.0292
     48 H14       -10.1559   47.7786   -1.8619 H         1 N44         0.0725
     49 H15       -16.0727   43.2114   -1.9729 H         1 N44         0.0973
     50 H16       -16.4262   44.8456   -2.6296 H         1 N44         0.0973
     51 H17        -6.3716   45.4713    2.3032 H         1 N44         0.0683
     52 H18        -6.5133   44.1489    3.5106 H         1 N44         0.0683
     53 H19        -9.2485   48.3778    1.4127 H         1 N44         0.0995
     54 H20       -10.4381   49.7118    1.5915 H         1 N44         0.0995
     55 H21        -9.9465   46.2438    0.4497 H         1 N44         0.0966
     56 H22       -11.1162   45.9169    1.7731 H         1 N44         0.0966
     57 H23       -12.4072   48.0863   -0.8224 H         1 N44         0.0998
     58 H24       -11.8644   49.6308   -0.0831 H         1 N44         0.0998
     59 H25        -8.6712   45.0275    4.1430 H         1 N44         0.1869
     60 H26       -12.0902   47.9170    1.4668 H         1 N44         0.2082
@<TRIPOS>BOND
     1    3    1 ar 
     2    4    1 ar 
     3    5    2 ar 
     4    6    2 ar 
     5    7    3 ar 
     6    8    4 ar 
     7    9    5 ar 
     8   12    6 ar 
     9   14    7 ar 
    10   14    8 ar 
    11   15    9 ar 
    12   10   11 ar 
    13   16   10 ar 
    14   11   17 ar 
    15   15   12 ar 
    16   12   21 1  
    17   16   13 ar 
    18   13   18 ar 
    19   13   22 1  
    20   24   14 1  
    21   25   15 1  
    22   26   16 1  
    23   18   17 ar 
    24   17   33 1  
    25   18   34 1  
    26   20   19 2  
    27   27   20 1  
    28   21   28 am 
    29   21   31 2  
    30   22   30 ar 
    31   22   32 ar 
    32   23   33 1  
    33   34   23 1  
    34   28   24 1  
    35   29   25 1  
    36   29   26 1  
    37   27   29 1  
    38    1   35 1  
    39    2   36 1  
    40    3   37 1  
    41    4   38 1  
    42    5   39 1  
    43    6   40 1  
    44    7   41 1  
    45    8   42 1  
    46    9   43 1  
    47   10   44 1  
    48   11   45 1  
    49   19   46 1  
    50   19   47 1  
    51   20   48 1  
    52   23   49 1  
    53   23   50 1  
    54   24   51 1  
    55   24   52 1  
    56   25   53 1  
    57   25   54 1  
    58   26   55 1  
    59   26   56 1  
    60   27   57 1  
    61   27   58 1  
    62   28   59 1  
    63   29   60 1  
@<TRIPOS>SUBSTRUCTURE
     1 N44         1

