### 
### Created by X-TOOL on Mon Sep 10 21:13:09 2018
### 

@<TRIPOS>MOLECULE
3zsy_ligand
   62    65     1     0     0
SMALL
GAST_HUCK


@<TRIPOS>ATOM
      1 C1        -10.7620   47.9740    5.9960 C.ar      1 OM3        -0.0630
      2 C2        -11.6040   48.8670    5.3900 C.ar      1 OM3        -0.0640
      3 C3         -9.8120   47.3360    5.2180 C.ar      1 OM3        -0.0483
      4 C4        -11.4940   49.0920    4.0320 C.ar      1 OM3        -0.0493
      5 C5        -11.5710   45.5560   -1.4770 C.ar      1 OM3        -0.0712
      6 C6        -12.3420   44.9120   -2.4300 C.ar      1 OM3        -0.0449
      7 C7         -9.6870   47.5650    3.8570 C.ar      1 OM3         0.0563
      8 C8        -13.4090   45.6030    0.0840 C.ar      1 OM3         0.0376
      9 C9        -10.5510   48.4650    3.2520 C.ar      1 OM3         0.0219
     10 C10       -12.0790   45.8970   -0.2310 C.ar      1 OM3        -0.0033
     11 C11       -13.6500   44.6310   -2.1100 C.ar      1 OM3         0.1200
     12 C12       -14.1690   44.9640   -0.8950 C.ar      1 OM3         0.1327
     13 C13        -8.6240   46.8240    3.0990 C.2       1 OM3         0.2003
     14 C14       -14.0140   45.9130    1.4150 C.2       1 OM3         0.0515
     15 C15        -8.7120   41.7900   -0.2290 C.3       1 OM3        -0.0530
     16 C16        -9.6870   42.7990    0.3090 C.3       1 OM3        -0.0527
     17 C17        -7.9070   41.3130    0.9540 C.3       1 OM3        -0.0527
     18 C18        -8.9180   43.9910    0.8430 C.3       1 OM3        -0.0484
     19 C19        -7.1360   42.4740    1.5640 C.3       1 OM3        -0.0484
     20 C20       -15.7000   43.9590   -2.0820 C.3       1 OM3         0.1864
     21 C21        -8.1020   43.5380    2.0300 C.3       1 OM3        -0.0209
     22 C22       -11.6600   48.7800   -0.3750 C.3       1 OM3        -0.0402
     23 C23       -10.5150   48.8040    1.7950 C.3       1 OM3         0.0066
     24 C24       -11.1300   46.5880    0.7200 C.3       1 OM3        -0.0017
     25 C25        -7.4440   44.7240    2.7340 C.3       1 OM3         0.0330
     26 N26        -8.4910   45.4950    3.3790 N.am      1 OM3        -0.2871
     27 N27       -11.4530   48.0530    0.9100 N.4       1 OM3         0.2568
     28 O28       -14.9650   45.1730    1.8120 O.co2     1 OM3        -0.5668
     29 O29        -7.9110   47.3540    2.2670 O.2       1 OM3        -0.3886
     30 O30       -13.5220   46.8350    2.1100 O.co2     1 OM3        -0.5668
     31 O31       -14.5530   44.0200   -2.9320 O.3       1 OM3        -0.2947
     32 O32       -15.4970   44.5850   -0.8100 O.3       1 OM3        -0.2890
     33 H1        -10.8375   47.7718    7.0583 H         1 OM3         0.0572
     34 H2        -12.3517   49.3937    5.9719 H         1 OM3         0.0635
     35 H3         -9.1396   46.6298    5.6915 H         1 OM3         0.0651
     36 H4        -12.1777   49.7901    3.5626 H         1 OM3         0.0570
     37 H5        -10.5412   45.8009   -1.7107 H         1 OM3         0.0445
     38 H6        -11.9293   44.6389   -3.3944 H         1 OM3         0.0514
     39 H7         -8.0529   42.2567   -0.9758 H         1 OM3         0.0265
     40 H8         -9.2494   40.9478   -0.6894 H         1 OM3         0.0265
     41 H9        -10.2762   42.3466    1.1203 H         1 OM3         0.0265
     42 H10       -10.3617   43.1258   -0.4960 H         1 OM3         0.0265
     43 H11        -7.1983   40.5393    0.6237 H         1 OM3         0.0265
     44 H12        -8.5858   40.8902    1.7093 H         1 OM3         0.0265
     45 H13        -9.6210   44.7778    1.1539 H         1 OM3         0.0269
     46 H14        -8.2508   44.3833    0.0614 H         1 OM3         0.0269
     47 H15        -6.4590   42.9002    0.8090 H         1 OM3         0.0269
     48 H16        -6.5487   42.1128    2.4211 H         1 OM3         0.0269
     49 H17       -15.9543   42.9020   -1.9142 H         1 OM3         0.0973
     50 H18       -16.5371   44.4616   -2.5887 H         1 OM3         0.0973
     51 H19        -8.7834   43.0714    2.7566 H         1 OM3         0.0320
     52 H20       -11.8902   49.8352   -0.1663 H         1 OM3         0.0778
     53 H21       -12.4971   48.3237   -0.9237 H         1 OM3         0.0778
     54 H22       -10.7455   48.7176   -0.9831 H         1 OM3         0.0778
     55 H23        -9.4931   48.6159    1.4339 H         1 OM3         0.0995
     56 H24       -10.7478   49.8745    1.6957 H         1 OM3         0.0995
     57 H25       -10.1085   46.5024    0.3210 H         1 OM3         0.0966
     58 H26       -11.1851   46.0865    1.6975 H         1 OM3         0.0966
     59 H27        -6.9174   45.3502    1.9988 H         1 OM3         0.0522
     60 H28        -6.7284   44.3620    3.4869 H         1 OM3         0.0522
     61 H29        -9.1127   45.0539    4.0263 H         1 OM3         0.1842
     62 H30       -12.3425   48.0667    1.3839 H         1 OM3         0.2061
@<TRIPOS>BOND
     1    1    2 ar 
     2    3    1 ar 
     3    4    2 ar 
     4    7    3 ar 
     5    9    4 ar 
     6    5    6 ar 
     7   10    5 ar 
     8    6   11 ar 
     9    7    9 ar 
    10   13    7 1  
    11   10    8 ar 
    12    8   12 ar 
    13    8   14 1  
    14    9   23 1  
    15   24   10 1  
    16   12   11 ar 
    17   11   31 1  
    18   12   32 1  
    19   26   13 am 
    20   13   29 2  
    21   14   28 ar 
    22   14   30 ar 
    23   16   15 1  
    24   17   15 1  
    25   18   16 1  
    26   19   17 1  
    27   21   18 1  
    28   21   19 1  
    29   20   31 1  
    30   32   20 1  
    31   25   21 1  
    32   27   22 1  
    33   23   27 1  
    34   27   24 1  
    35   25   26 1  
    36    1   33 1  
    37    2   34 1  
    38    3   35 1  
    39    4   36 1  
    40    5   37 1  
    41    6   38 1  
    42   15   39 1  
    43   15   40 1  
    44   16   41 1  
    45   16   42 1  
    46   17   43 1  
    47   17   44 1  
    48   18   45 1  
    49   18   46 1  
    50   19   47 1  
    51   19   48 1  
    52   20   49 1  
    53   20   50 1  
    54   21   51 1  
    55   22   52 1  
    56   22   53 1  
    57   22   54 1  
    58   23   55 1  
    59   23   56 1  
    60   24   57 1  
    61   24   58 1  
    62   25   59 1  
    63   25   60 1  
    64   26   61 1  
    65   27   62 1  
@<TRIPOS>SUBSTRUCTURE
     1 OM3         1

