### 
### Created by X-TOOL on Mon Sep 10 21:13:10 2018
### 

@<TRIPOS>MOLECULE
3zsz_ligand
   55    57     1     0     0
SMALL
GAST_HUCK


@<TRIPOS>ATOM
      1 C1         10.2620  -48.0120    6.2140 C.ar      1 OM2        -0.0630
      2 C2         11.0820  -48.8570    5.4910 C.ar      1 OM2        -0.0640
      3 C3          9.2760  -47.2570    5.5920 C.ar      1 OM2        -0.0483
      4 C4         10.8970  -48.9370    4.1200 C.ar      1 OM2        -0.0493
      5 C5         11.3250  -44.9980   -0.9090 C.ar      1 OM2        -0.0712
      6 C6         12.1910  -44.5200   -1.8840 C.ar      1 OM2        -0.0449
      7 C7          9.0970  -47.3250    4.2200 C.ar      1 OM2         0.0563
      8 C8         13.1900  -45.5680    0.5200 C.ar      1 OM2         0.0376
      9 C9          9.9140  -48.1800    3.4960 C.ar      1 OM2         0.0219
     10 C10        11.8080  -45.5270    0.2880 C.ar      1 OM2        -0.0033
     11 C11        13.5540  -44.5660   -1.6450 C.ar      1 OM2         0.1200
     12 C12        14.0410  -45.0710   -0.4730 C.ar      1 OM2         0.1327
     13 C13         8.0380  -46.5020    3.5090 C.2       1 OM2         0.2005
     14 C14        13.7490  -46.1020    1.8010 C.2       1 OM2         0.0515
     15 C15        15.7280  -44.2460   -1.6520 C.3       1 OM2         0.1864
     16 C16         7.9040  -42.1320    1.4780 C.3       1 OM2        -0.0632
     17 C17         6.1730  -43.5540    3.4870 C.3       1 OM2        -0.0421
     18 C18        10.9630  -48.2390   -0.0680 C.3       1 OM2        -0.0402
     19 C19         9.7360  -48.2680    2.0130 C.3       1 OM2         0.0066
     20 C20        10.8210  -46.0610    1.3010 C.3       1 OM2        -0.0017
     21 C21         8.4550  -43.1240    2.4500 C.3       1 OM2        -0.0331
     22 C22         7.4270  -44.1730    2.8620 C.3       1 OM2         0.0383
     23 N23         8.0350  -45.1340    3.7710 N.am      1 OM2        -0.2845
     24 N24        10.8180  -47.5770    1.2740 N.4       1 OM2         0.2568
     25 O25        14.7890  -45.5190    2.2480 O.co2     1 OM2        -0.5668
     26 O26         7.2350  -47.0020    2.7250 O.2       1 OM2        -0.3885
     27 O27        13.1430  -47.0500    2.3700 O.co2     1 OM2        -0.5668
     28 O28        14.5680  -44.1390   -2.4920 O.3       1 OM2        -0.2947
     29 O29        15.4380  -45.0110   -0.4540 O.3       1 OM2        -0.2890
     30 H1         10.3907  -47.9368    7.2877 H         1 OM2         0.0572
     31 H2         11.8501  -49.4422    5.9835 H         1 OM2         0.0635
     32 H3          8.6411  -46.6090    6.1853 H         1 OM2         0.0651
     33 H4         11.5243  -49.5955    3.5301 H         1 OM2         0.0570
     34 H5         10.2555  -44.9593   -1.0812 H         1 OM2         0.0445
     35 H6         11.8069  -44.1184   -2.8147 H         1 OM2         0.0514
     36 H7         16.0562  -43.2367   -1.3628 H         1 OM2         0.0973
     37 H8         16.5317  -44.7466   -2.2118 H         1 OM2         0.0973
     38 H9          8.6846  -41.4024    1.2165 H         1 OM2         0.0230
     39 H10         7.0502  -41.6083    1.9328 H         1 OM2         0.0230
     40 H11         7.5716  -42.6549    0.5691 H         1 OM2         0.0230
     41 H12         5.7310  -42.8325    2.7841 H         1 OM2         0.0252
     42 H13         6.4447  -43.0380    4.4197 H         1 OM2         0.0252
     43 H14         5.4428  -44.3470    3.7059 H         1 OM2         0.0252
     44 H15        10.9448  -49.3316    0.0583 H         1 OM2         0.0778
     45 H16        11.9179  -47.9385   -0.5239 H         1 OM2         0.0778
     46 H17        10.1324  -47.9314   -0.7203 H         1 OM2         0.0778
     47 H18         8.7741  -47.8070    1.7444 H         1 OM2         0.0995
     48 H19         9.7290  -49.3282    1.7200 H         1 OM2         0.0995
     49 H20         9.8140  -45.6906    1.0586 H         1 OM2         0.0966
     50 H21        11.1070  -45.7153    2.3053 H         1 OM2         0.0966
     51 H22         8.7907  -42.5872    3.3495 H         1 OM2         0.0285
     52 H23         9.3121  -43.6337    1.9858 H         1 OM2         0.0285
     53 H24         7.1151  -44.7109    1.9546 H         1 OM2         0.0552
     54 H25         8.4643  -44.8012    4.6106 H         1 OM2         0.1845
     55 H26        11.6618  -47.8152    1.7714 H         1 OM2         0.2061
@<TRIPOS>BOND
     1    1    2 ar 
     2    3    1 ar 
     3    4    2 ar 
     4    7    3 ar 
     5    9    4 ar 
     6    5    6 ar 
     7   10    5 ar 
     8    6   11 ar 
     9    7    9 ar 
    10   13    7 1  
    11   10    8 ar 
    12    8   12 ar 
    13    8   14 1  
    14    9   19 1  
    15   20   10 1  
    16   12   11 ar 
    17   11   28 1  
    18   12   29 1  
    19   23   13 am 
    20   13   26 2  
    21   14   25 ar 
    22   14   27 ar 
    23   15   28 1  
    24   29   15 1  
    25   21   16 1  
    26   22   17 1  
    27   24   18 1  
    28   19   24 1  
    29   24   20 1  
    30   22   21 1  
    31   22   23 1  
    32    1   30 1  
    33    2   31 1  
    34    3   32 1  
    35    4   33 1  
    36    5   34 1  
    37    6   35 1  
    38   15   36 1  
    39   15   37 1  
    40   16   38 1  
    41   16   39 1  
    42   16   40 1  
    43   17   41 1  
    44   17   42 1  
    45   17   43 1  
    46   18   44 1  
    47   18   45 1  
    48   18   46 1  
    49   19   47 1  
    50   19   48 1  
    51   20   49 1  
    52   20   50 1  
    53   21   51 1  
    54   21   52 1  
    55   22   53 1  
    56   23   54 1  
    57   24   55 1  
@<TRIPOS>SUBSTRUCTURE
     1 OM2         1

