### 
### Created by X-TOOL on Mon Sep 10 21:13:09 2018
### 

@<TRIPOS>MOLECULE
3zt1_ligand
   57    60     1     0     0
SMALL
GAST_HUCK


@<TRIPOS>ATOM
      1 C15       -11.3470   35.0940    5.8460 C.ar      1 OM1        -0.0630
      2 C16       -12.4430   34.7230    5.0920 C.ar      1 OM1        -0.0640
      3 C14       -10.2650   35.7270    5.2500 C.ar      1 OM1        -0.0483
      4 C17       -12.4470   34.9780    3.7310 C.ar      1 OM1        -0.0493
      5 C23        -9.3550   33.1610   -1.4380 C.ar      1 OM1        -0.0712
      6 C6         -5.8750   34.4380    1.7680 C.ar      1 OM1        -0.0668
      7 C10        -6.7990   36.2310    0.5030 C.ar      1 OM1        -0.0668
      8 C24        -9.3180   32.2300   -2.4700 C.ar      1 OM1        -0.0449
      9 C7         -5.6950   33.6950    0.6150 C.ar      1 OM1        -0.0395
     10 C9         -6.6250   35.5060   -0.6540 C.ar      1 OM1        -0.0395
     11 C13       -10.2760   35.9790    3.8840 C.ar      1 OM1         0.0564
     12 C30       -10.5860   31.6370   -0.0180 C.ar      1 OM1         0.0376
     13 C5         -6.4290   35.7020    1.7200 C.ar      1 OM1        -0.0318
     14 C18       -11.3740   35.5990    3.1290 C.ar      1 OM1         0.0218
     15 C22        -9.9760   32.8820   -0.2220 C.ar      1 OM1        -0.0033
     16 C25        -9.9340   31.0150   -2.2570 C.ar      1 OM1         0.1200
     17 C29       -10.5390   30.7240   -1.0670 C.ar      1 OM1         0.1327
     18 C8         -6.0780   34.2390   -0.5970 C.ar      1 OM1         0.0837
     19 C2         -9.1020   36.6510    3.2680 C.2       1 OM1         0.2019
     20 C31       -11.2660   31.2650    1.2650 C.2       1 OM1         0.0515
     21 C27       -10.5350   28.9280   -2.3310 C.3       1 OM1         0.1864
     22 C12        -5.5900   32.1990   -1.6480 C.3       1 OM1         0.0579
     23 C4         -6.6280   36.4890    2.9800 C.3       1 OM1         0.0589
     24 C19       -11.4570   35.8400    1.6540 C.3       1 OM1         0.0050
     25 C21        -9.9500   33.9800    0.8020 C.3       1 OM1        -0.0033
     26 N3         -7.8860   36.0860    3.5800 N.am      1 OM1        -0.2776
     27 N20       -11.3040   34.5930    0.8470 N.4       1 OM1         0.2510
     28 O33       -11.2110   30.0470    1.6240 O.co2     1 OM1        -0.5668
     29 O1         -9.2340   37.6360    2.5420 O.2       1 OM1        -0.3884
     30 O32       -11.8280   32.1900    1.9190 O.co2     1 OM1        -0.5668
     31 O26       -10.0050   29.9760   -3.1650 O.3       1 OM1        -0.2947
     32 O28       -11.0750   29.4530   -1.0910 O.3       1 OM1        -0.2890
     33 O11        -5.9530   33.5750   -1.8080 O.3       1 OM1        -0.3257
     34 H1        -11.3317   34.8895    6.9104 H         1 OM1         0.0572
     35 H2        -13.2912   34.2373    5.5607 H         1 OM1         0.0635
     36 H3         -9.4124   36.0243    5.8498 H         1 OM1         0.0651
     37 H4        -13.3028   34.6862    3.1330 H         1 OM1         0.0570
     38 H5         -8.8888   34.1288   -1.5830 H         1 OM1         0.0445
     39 H6         -5.5767   34.0217    2.7234 H         1 OM1         0.0531
     40 H7         -7.2299   37.2246    0.4563 H         1 OM1         0.0531
     41 H8         -8.8226   32.4514   -3.4084 H         1 OM1         0.0514
     42 H9         -5.2609   32.7028    0.6610 H         1 OM1         0.0525
     43 H10        -6.9168   35.9288   -1.6085 H         1 OM1         0.0525
     44 H11        -9.7294   28.2167   -2.0965 H         1 OM1         0.0973
     45 H12       -11.3359   28.4080   -2.8770 H         1 OM1         0.0973
     46 H13        -5.5055   31.7247   -2.6369 H         1 OM1         0.0575
     47 H14        -6.3616   31.6824   -1.0583 H         1 OM1         0.0575
     48 H15        -4.6240   32.1329   -1.1260 H         1 OM1         0.0575
     49 H16        -6.6558   37.5635    2.7460 H         1 OM1         0.0661
     50 H17        -5.8023   36.2870    3.6781 H         1 OM1         0.0661
     51 H18       -10.6594   36.5417    1.3685 H         1 OM1         0.0994
     52 H19       -12.4365   36.2860    1.4267 H         1 OM1         0.0994
     53 H20        -9.2054   34.7384    0.5184 H         1 OM1         0.0965
     54 H21        -9.6941   33.5656    1.7883 H         1 OM1         0.0965
     55 H22        -7.8688   35.3539    4.2610 H         1 OM1         0.1866
     56 H23       -11.5715   34.8092   -0.1005 H         1 OM1         0.2043
     57 H24       -11.9364   33.9058    1.2263 H         1 OM1         0.2043
@<TRIPOS>BOND
     1    2    1 ar 
     2    3    1 ar 
     3    4    2 ar 
     4   11    3 ar 
     5   14    4 ar 
     6    5    8 ar 
     7   15    5 ar 
     8    6    9 ar 
     9   13    6 ar 
    10    7   10 ar 
    11   13    7 ar 
    12    8   16 ar 
    13    9   18 ar 
    14   10   18 ar 
    15   14   11 ar 
    16   11   19 1  
    17   15   12 ar 
    18   12   17 ar 
    19   12   20 1  
    20   23   13 1  
    21   24   14 1  
    22   25   15 1  
    23   17   16 ar 
    24   16   31 1  
    25   17   32 1  
    26   18   33 1  
    27   19   26 am 
    28   19   29 2  
    29   20   28 ar 
    30   20   30 ar 
    31   21   31 1  
    32   32   21 1  
    33   33   22 1  
    34   26   23 1  
    35   27   24 1  
    36   25   27 1  
    37    1   34 1  
    38    2   35 1  
    39    3   36 1  
    40    4   37 1  
    41    5   38 1  
    42    6   39 1  
    43    7   40 1  
    44    8   41 1  
    45    9   42 1  
    46   10   43 1  
    47   21   44 1  
    48   21   45 1  
    49   22   46 1  
    50   22   47 1  
    51   22   48 1  
    52   23   49 1  
    53   23   50 1  
    54   24   51 1  
    55   24   52 1  
    56   25   53 1  
    57   25   54 1  
    58   26   55 1  
    59   27   56 1  
    60   27   57 1  
@<TRIPOS>SUBSTRUCTURE
     1 OM1         1

