### 
### Created by X-TOOL on Mon Sep 10 21:13:09 2018
### 

@<TRIPOS>MOLECULE
3zt3_ligand
   36    39     1     0     0
SMALL
GAST_HUCK


@<TRIPOS>ATOM
      1 C1        -30.8300   28.9060    0.8530 C.ar      1 ZT4        -0.0674
      2 C2        -30.9620   27.6980    0.2230 C.ar      1 ZT4        -0.0678
      3 C3        -31.7000   29.9440    0.5690 C.ar      1 ZT4        -0.0588
      4 C4        -33.3270   32.2570    1.9100 C.ar      1 ZT4        -0.0757
      5 C5        -31.9920   27.5060   -0.6750 C.ar      1 ZT4        -0.0580
      6 C6        -32.6360   32.9460    2.9270 C.ar      1 ZT4        -0.0400
      7 C7        -32.7350   29.7590   -0.3190 C.ar      1 ZT4        -0.0107
      8 C8        -33.3900   32.7840    0.6220 C.ar      1 ZT4        -0.0449
      9 C9        -32.7690   34.0270    0.3100 C.ar      1 ZT4         0.0311
     10 C10       -32.8610   28.5410   -0.9320 C.ar      1 ZT4        -0.0272
     11 C11       -32.0140   34.1210    2.5610 C.ar      1 ZT4         0.1258
     12 C12       -32.0970   34.6550    1.3260 C.ar      1 ZT4         0.1359
     13 C13       -33.7760   30.7160   -0.7950 C.2       1 ZT4        -0.0101
     14 C14       -34.0950   32.0210   -0.4510 C.2       1 ZT4        -0.0667
     15 C15       -32.8230   34.6480   -1.0660 C.2       1 ZT4         0.0519
     16 C16       -34.0220   28.5210   -1.8800 C.3       1 ZT4         0.0198
     17 C17       -30.7460   35.8440    2.5540 C.3       1 ZT4         0.1879
     18 C18       -34.4390   29.9960   -1.9620 C.3       1 ZT4         0.0995
     19 O19       -31.8600   35.3140   -1.5410 O.co2     1 ZT4        -0.5664
     20 O20       -33.9150   34.5140   -1.7120 O.co2     1 ZT4        -0.5664
     21 O21       -31.3070   34.9130    3.4250 O.3       1 ZT4        -0.2907
     22 O22       -31.4280   35.8590    1.2840 O.3       1 ZT4        -0.2876
     23 O23       -35.8220   30.1920   -1.8620 O.3       1 ZT4        -0.3761
     24 H1        -30.0385   29.0506    1.5794 H         1 ZT4         0.0563
     25 H2        -30.2614   26.8967    0.4283 H         1 ZT4         0.0604
     26 H3        -31.5657   30.9071    1.0481 H         1 ZT4         0.0609
     27 H4        -33.8116   31.3129    2.1310 H         1 ZT4         0.0482
     28 H5        -32.1149   26.5506   -1.1722 H         1 ZT4         0.0557
     29 H6        -32.5956   32.5719    3.9436 H         1 ZT4         0.0530
     30 H7        -34.9013   32.5150   -0.9912 H         1 ZT4         0.0424
     31 H8        -34.8413   27.9016   -1.4862 H         1 ZT4         0.0487
     32 H9        -33.7179   28.1424   -2.8670 H         1 ZT4         0.0487
     33 H10       -29.6892   35.5872    2.3889 H         1 ZT4         0.0976
     34 H11       -30.8139   36.8438    3.0077 H         1 ZT4         0.0976
     35 H12       -34.0878   30.4161   -2.9160 H         1 ZT4         0.0795
     36 H13       -36.0141   31.1206   -1.9195 H         1 ZT4         0.2136
@<TRIPOS>BOND
     1    1    2 ar 
     2    3    1 ar 
     3    5    2 ar 
     4    7    3 ar 
     5    4    6 ar 
     6    8    4 ar 
     7   10    5 ar 
     8    6   11 ar 
     9    7   10 ar 
    10   13    7 1  
    11    8    9 ar 
    12   14    8 1  
    13    9   12 ar 
    14    9   15 1  
    15   10   16 1  
    16   12   11 ar 
    17   11   21 1  
    18   12   22 1  
    19   13   14 2  
    20   13   18 1  
    21   15   19 ar 
    22   15   20 ar 
    23   16   18 1  
    24   21   17 1  
    25   17   22 1  
    26   18   23 1  
    27    1   24 1  
    28    2   25 1  
    29    3   26 1  
    30    4   27 1  
    31    5   28 1  
    32    6   29 1  
    33   14   30 1  
    34   16   31 1  
    35   16   32 1  
    36   17   33 1  
    37   17   34 1  
    38   18   35 1  
    39   23   36 1  
@<TRIPOS>SUBSTRUCTURE
     1 ZT4         1

