### 
### Created by X-TOOL on Mon Sep 10 21:13:09 2018
### 

@<TRIPOS>MOLECULE
3zt4_ligand
   34    37     1     0     0
SMALL
GAST_HUCK


@<TRIPOS>ATOM
      1 C1        -30.9510   28.6030    0.5720 C.ar      1 ZT2        -0.0695
      2 C2        -31.2390   27.4250   -0.1160 C.ar      1 ZT2        -0.0695
      3 C3        -31.7660   29.7180    0.4890 C.ar      1 ZT2        -0.0622
      4 C4        -33.1480   32.1580    1.9860 C.ar      1 ZT2        -0.0639
      5 C5        -32.3740   27.3410   -0.9090 C.ar      1 ZT2        -0.0589
      6 C6        -32.4090   32.7920    2.9750 C.ar      1 ZT2        -0.0310
      7 C7        -32.8820   29.6070   -0.3030 C.ar      1 ZT2        -0.0116
      8 C8        -33.2760   32.6720    0.6930 C.ar      1 ZT2        -0.0197
      9 C9        -32.6590   33.8890    0.3730 C.ar      1 ZT2         0.0425
     10 C10       -33.1830   28.4480   -0.9870 C.ar      1 ZT2        -0.0199
     11 C11       -31.8190   33.9790    2.6350 C.ar      1 ZT2         0.1348
     12 C12       -31.9300   34.5220    1.3810 C.ar      1 ZT2         0.1442
     13 C13       -33.9200   30.5820   -0.5990 C.2       1 ZT2         0.0322
     14 C14       -34.8980   29.9230   -1.4930 C.2       1 ZT2         0.1365
     15 C15       -34.1080   31.8690   -0.2350 C.2       1 ZT2        -0.0406
     16 C16       -32.7330   34.5380   -0.9590 C.2       1 ZT2         0.0569
     17 C17       -34.4520   28.5300   -1.8060 C.3       1 ZT2         0.0537
     18 C18       -30.5480   35.7630    2.5580 C.3       1 ZT2         0.1900
     19 O19       -31.7150   35.1340   -1.3570 O.co2     1 ZT2        -0.5645
     20 O20       -35.9360   30.4300   -1.8880 O.2       1 ZT2        -0.3815
     21 O21       -33.8010   34.4940   -1.6110 O.co2     1 ZT2        -0.5645
     22 O22       -31.0610   34.7410    3.4520 O.3       1 ZT2        -0.2847
     23 O23       -31.2260   35.7450    1.2880 O.3       1 ZT2        -0.2853
     24 H1        -30.0618   28.6466    1.1905 H         1 ZT2         0.0559
     25 H2        -30.5744   26.5728   -0.0310 H         1 ZT2         0.0588
     26 H3        -31.5351   30.6330    1.0224 H         1 ZT2         0.0589
     27 H4        -33.6463   31.2258    2.2265 H         1 ZT2         0.0555
     28 H5        -32.6143   26.4323   -1.4489 H         1 ZT2         0.0557
     29 H6        -32.3044   32.3681    3.9672 H         1 ZT2         0.0552
     30 H7        -34.9679   32.3740   -0.6726 H         1 ZT2         0.0723
     31 H8        -35.1929   27.7850   -1.4804 H         1 ZT2         0.0641
     32 H9        -34.2500   28.4013   -2.8796 H         1 ZT2         0.0641
     33 H10       -29.4750   35.5865    2.3923 H         1 ZT2         0.0980
     34 H11       -30.6897   36.7491    3.0243 H         1 ZT2         0.0980
@<TRIPOS>BOND
     1    1    2 ar 
     2    3    1 ar 
     3    5    2 ar 
     4    7    3 ar 
     5    4    6 ar 
     6    8    4 ar 
     7   10    5 ar 
     8    6   11 ar 
     9    7   10 ar 
    10   13    7 1  
    11    8    9 ar 
    12   15    8 1  
    13    9   12 ar 
    14    9   16 1  
    15   10   17 1  
    16   12   11 ar 
    17   11   22 1  
    18   12   23 1  
    19   13   14 1  
    20   13   15 2  
    21   14   17 1  
    22   14   20 2  
    23   16   19 ar 
    24   16   21 ar 
    25   22   18 1  
    26   18   23 1  
    27    1   24 1  
    28    2   25 1  
    29    3   26 1  
    30    4   27 1  
    31    5   28 1  
    32    6   29 1  
    33   15   30 1  
    34   17   31 1  
    35   17   32 1  
    36   18   33 1  
    37   18   34 1  
@<TRIPOS>SUBSTRUCTURE
     1 ZT2         1

