### 
### Created by X-TOOL on Mon Sep 10 21:13:11 2018
### 

@<TRIPOS>MOLECULE
3ztc_ligand
   56    59     1     0     0
SMALL
GAST_HUCK


@<TRIPOS>ATOM
      1 CAA        -9.6990   36.5890   -5.1420 C.3       1 TR0        -0.0292
      2 CAW        -9.1730   35.4300   -4.3070 C.2       1 TR0         0.0089
      3 CAK        -7.8990   35.2190   -3.9370 C.2       1 TR0        -0.0302
      4 NAQ        -9.9840   34.4920   -3.8430 N.2       1 TR0        -0.1728
      5 OAT        -9.1410   33.6300   -3.1290 O.3       1 TR0        -0.1784
      6 CAZ        -7.8620   34.0900   -3.2270 C.2       1 TR0         0.1501
      7 CAM        -6.7050   33.3550   -2.5190 C.3       1 TR0         0.1092
      8 CAU        -6.8260   33.7850   -1.0420 C.2       1 TR0         0.1975
      9 OAB        -6.5860   34.9610   -0.7680 O.2       1 TR0        -0.3931
     10 N          -7.2670   32.9950   -0.0310 N.am      1 TR0        -0.2472
     11 CD2        -7.7000   31.5850   -0.1590 C.3       1 TR0         0.0630
     12 CG         -8.5290   31.3220    1.1190 C.3       1 TR0         0.0799
     13 OD1        -9.9320   31.6130    0.9600 O.3       1 TR0        -0.3896
     14 CB         -7.9260   32.2660    2.1410 C.3       1 TR0         0.0158
     15 CA         -7.4820   33.4840    1.3450 C.3       1 TR0         0.1363
     16 C          -6.1970   33.9690    1.9630 C.2       1 TR0         0.2038
     17 O          -5.1330   33.4210    1.6990 O.2       1 TR0        -0.3944
     18 NAR        -6.3060   34.9720    2.8430 N.am      1 TR0        -0.2735
     19 CAL        -5.0970   35.4890    3.5160 C.3       1 TR0         0.0650
     20 CA0        -4.4960   30.4780    9.6890 C.ar      1 TR0        -0.0622
     21 CAX        -4.8420   34.6620    4.7710 C.ar      1 TR0        -0.0200
     22 CAF        -3.5730   34.6790    5.3590 C.ar      1 TR0        -0.0570
     23 CA1        -2.8910   32.1240   10.3970 C.ar      1 TR0        -0.0622
     24 CAH        -3.3270   33.9480    6.5210 C.ar      1 TR0        -0.0600
     25 CAE        -5.8770   33.9060    5.3480 C.ar      1 TR0        -0.0570
     26 CA2        -3.1590   32.8690    9.2310 C.ar      1 TR0        -0.0557
     27 CAG        -5.6160   33.1760    6.5110 C.ar      1 TR0        -0.0600
     28 CAY        -4.3450   33.1850    7.1090 C.ar      1 TR0        -0.0242
     29 CBA        -4.0910   32.4370    8.2760 C.ar      1 TR0        -0.0221
     30 CAJ        -4.7490   31.2190    8.5230 C.ar      1 TR0        -0.0557
     31 CAI        -3.5710   30.9300   10.6340 C.ar      1 TR0        -0.0627
     32 H         -10.1739   36.2001   -6.0427 H         1 TR0         0.0374
     33 H         -10.4279   37.1530   -4.5600 H         1 TR0         0.0374
     34 H          -8.8705   37.2409   -5.4191 H         1 TR0         0.0374
     35 H          -7.0473   35.8565   -4.1745 H         1 TR0         0.0265
     36 H          -5.7347   33.6133   -2.9431 H         1 TR0         0.0718
     37 H          -6.7724   32.2736   -2.6380 H         1 TR0         0.0718
     38 H          -6.8546   30.9027   -0.2471 H         1 TR0         0.0550
     39 H          -8.2797   31.4147   -1.0662 H         1 TR0         0.0550
     40 H          -8.4874   30.2690    1.3975 H         1 TR0         0.0616
     41 H         -10.3908   31.4307    1.7833 H         1 TR0         0.2099
     42 H          -7.0920   31.8058    2.6709 H         1 TR0         0.0338
     43 H          -8.6447   32.5321    2.9161 H         1 TR0         0.0338
     44 H          -8.1988   34.3052    1.3436 H         1 TR0         0.0803
     45 H          -7.2194   35.3772    3.0477 H         1 TR0         0.1879
     46 H          -5.2432   36.5348    3.7861 H         1 TR0         0.0687
     47 H          -4.2410   35.4160    2.8452 H         1 TR0         0.0687
     48 H          -5.0264   29.5410    9.8585 H         1 TR0         0.0615
     49 H          -2.7732   35.2659    4.9073 H         1 TR0         0.0561
     50 H          -2.1518   32.4814   11.1139 H         1 TR0         0.0615
     51 H          -2.3363   33.9703    6.9749 H         1 TR0         0.0609
     52 H          -6.8684   33.8893    4.8952 H         1 TR0         0.0561
     53 H          -2.6275   33.8064    9.0669 H         1 TR0         0.0615
     54 H          -6.4147   32.5879    6.9630 H         1 TR0         0.0609
     55 H          -5.4688   30.8430    7.7960 H         1 TR0         0.0615
     56 H          -3.3839   30.3578   11.5427 H         1 TR0         0.0610
@<TRIPOS>BOND
     1    2    1 1  
     2    3    2 1  
     3    4    2 2  
     4    6    3 2  
     5    5    4 1  
     6    6    5 1  
     7    7    6 1  
     8    8    7 1  
     9    8    9 2  
    10   10    8 am 
    11   10   11 1  
    12   15   10 1  
    13   12   11 1  
    14   12   13 1  
    15   14   12 1  
    16   15   14 1  
    17   16   15 1  
    18   16   17 2  
    19   18   16 am 
    20   19   18 1  
    21   21   19 1  
    22   20   30 ar 
    23   31   20 ar 
    24   22   21 ar 
    25   25   21 ar 
    26   24   22 ar 
    27   26   23 ar 
    28   23   31 ar 
    29   28   24 ar 
    30   27   25 ar 
    31   29   26 ar 
    32   28   27 ar 
    33   28   29 1  
    34   29   30 ar 
    35    1   32 1  
    36    1   33 1  
    37    1   34 1  
    38    3   35 1  
    39    7   36 1  
    40    7   37 1  
    41   11   38 1  
    42   11   39 1  
    43   12   40 1  
    44   13   41 1  
    45   14   42 1  
    46   14   43 1  
    47   15   44 1  
    48   18   45 1  
    49   19   46 1  
    50   19   47 1  
    51   20   48 1  
    52   22   49 1  
    53   23   50 1  
    54   24   51 1  
    55   25   52 1  
    56   26   53 1  
    57   27   54 1  
    58   30   55 1  
    59   31   56 1  
@<TRIPOS>SUBSTRUCTURE
     1 TR0         1

