### 
### Created by X-TOOL on Mon Sep 10 21:13:11 2018
### 

@<TRIPOS>MOLECULE
3ztd_ligand
   52    54     1     0     0
SMALL
GAST_HUCK


@<TRIPOS>ATOM
      1 CAA       -56.7560   10.6350    5.4820 C.3       1 ZTD        -0.0292
      2 CAW       -56.3720   11.6950    4.4410 C.2       1 ZTD         0.0089
      3 CAK       -55.1100   11.9720    4.0890 C.2       1 ZTD        -0.0302
      4 NAQ       -57.2640   12.4560    3.7980 N.2       1 ZTD        -0.1728
      5 OAT       -56.5070   13.2520    2.9820 O.3       1 ZTD        -0.1784
      6 CAZ       -55.1540   12.9460    3.1880 C.2       1 ZTD         0.1501
      7 CAM       -53.9740   13.6390    2.4240 C.3       1 ZTD         0.1092
      8 CAU       -54.1200   13.2700    0.8960 C.2       1 ZTD         0.1975
      9 OAB       -53.9750   12.0930    0.5890 O.2       1 ZTD        -0.3931
     10 N         -54.4500   14.1080   -0.1210 N.am      1 ZTD        -0.2472
     11 CD2       -54.8700   15.5030    0.0140 C.3       1 ZTD         0.0630
     12 CG        -55.8260   15.6990   -1.1830 C.3       1 ZTD         0.0799
     13 OD1       -57.1530   15.1540   -0.9350 O.3       1 ZTD        -0.3896
     14 CB        -55.0980   14.9200   -2.2620 C.3       1 ZTD         0.0158
     15 CA        -54.6930   13.6720   -1.5060 C.3       1 ZTD         0.1363
     16 C         -53.4320   13.0760   -2.0730 C.2       1 ZTD         0.2039
     17 O         -52.3560   13.6000   -1.7870 O.2       1 ZTD        -0.3944
     18 NAR       -53.6010   11.9660   -2.8200 N.am      1 ZTD        -0.2729
     19 CAL       -52.4890   11.1660   -3.3910 C.3       1 ZTD         0.0668
     20 CAX       -51.9520   11.7350   -4.6990 C.ar      1 ZTD        -0.0160
     21 CAE       -52.7700   12.5080   -5.5430 C.ar      1 ZTD        -0.0522
     22 CAG       -52.2280   13.0170   -6.7380 C.ar      1 ZTD        -0.0471
     23 CAF       -50.6170   11.4850   -5.0650 C.ar      1 ZTD        -0.0522
     24 CAH       -50.0810   12.0000   -6.2560 C.ar      1 ZTD        -0.0471
     25 CAY       -50.8950   12.7570   -7.1020 C.ar      1 ZTD         0.0549
     26 CBA       -50.3340   13.3330   -8.4100 C.2       1 ZTD         0.2578
     27 CAI       -48.6400   12.7770  -10.2080 C.3       1 ZTD         0.0645
     28 OAD       -50.9670   14.2330   -8.9780 O.2       1 ZTD        -0.3602
     29 OAS       -49.0730   12.9080   -8.8280 O.3       1 ZTD        -0.2818
     30 H         -57.2856   11.1124    6.3064 H         1 ZTD         0.0374
     31 H         -57.4008    9.8887    5.0179 H         1 ZTD         0.0374
     32 H         -55.8534   10.1536    5.8585 H         1 ZTD         0.0374
     33 H         -54.2120   11.4870    4.4718 H         1 ZTD         0.0265
     34 H         -53.0145   13.2951    2.8102 H         1 ZTD         0.0718
     35 H         -54.0121   14.7196    2.5615 H         1 ZTD         0.0718
     36 H         -54.0309   16.1986    0.0012 H         1 ZTD         0.0550
     37 H         -55.3473   15.7083    0.9722 H         1 ZTD         0.0550
     38 H         -56.0191   16.7443   -1.4241 H         1 ZTD         0.0616
     39 H         -57.7069   15.3004   -1.7053 H         1 ZTD         0.2099
     40 H         -54.2577   15.4589   -2.6998 H         1 ZTD         0.0338
     41 H         -55.7067   14.7197   -3.1437 H         1 ZTD         0.0338
     42 H         -55.4678   12.9084   -1.5744 H         1 ZTD         0.0803
     43 H         -54.5551   11.6561   -3.0046 H         1 ZTD         0.1880
     44 H         -52.8724   10.1668   -3.5976 H         1 ZTD         0.0694
     45 H         -51.6730   11.1707   -2.6684 H         1 ZTD         0.0694
     46 H         -53.8073   12.7096   -5.2757 H         1 ZTD         0.0571
     47 H         -52.8530   13.6238   -7.3932 H         1 ZTD         0.0655
     48 H         -49.9873   10.8805   -4.4121 H         1 ZTD         0.0571
     49 H         -49.0400   11.8110   -6.5180 H         1 ZTD         0.0655
     50 H         -49.2812   12.0611  -10.7222 H         1 ZTD         0.0575
     51 H         -48.7064   13.7464  -10.7019 H         1 ZTD         0.0575
     52 H         -47.6085   12.4255  -10.2320 H         1 ZTD         0.0575
@<TRIPOS>BOND
     1    1    2 1  
     2    2    3 1  
     3    2    4 2  
     4    3    6 2  
     5    4    5 1  
     6    5    6 1  
     7    6    7 1  
     8    7    8 1  
     9    8    9 2  
    10    8   10 am 
    11   10   11 1  
    12   10   15 1  
    13   11   12 1  
    14   12   13 1  
    15   12   14 1  
    16   14   15 1  
    17   15   16 1  
    18   16   17 2  
    19   16   18 am 
    20   18   19 1  
    21   19   20 1  
    22   20   21 ar 
    23   20   23 ar 
    24   21   22 ar 
    25   22   25 ar 
    26   23   24 ar 
    27   24   25 ar 
    28   25   26 1  
    29   26   28 2  
    30   26   29 1  
    31   29   27 1  
    32    1   30 1  
    33    1   31 1  
    34    1   32 1  
    35    3   33 1  
    36    7   34 1  
    37    7   35 1  
    38   11   36 1  
    39   11   37 1  
    40   12   38 1  
    41   13   39 1  
    42   14   40 1  
    43   14   41 1  
    44   15   42 1  
    45   18   43 1  
    46   19   44 1  
    47   19   45 1  
    48   21   46 1  
    49   22   47 1  
    50   23   48 1  
    51   24   49 1  
    52   27   50 1  
    53   27   51 1  
    54   27   52 1  
@<TRIPOS>SUBSTRUCTURE
     1 ZTD         1

