### 
### Created by X-TOOL on Mon Sep 10 21:13:10 2018
### 

@<TRIPOS>MOLECULE
3ztx_ligand
   58    62     1     0     0
SMALL
GAST_HUCK


@<TRIPOS>ATOM
      1 N1         12.3520    3.0060    5.9460 N.ar      1 ZTX        -0.2878
      2 C2         12.0970    1.8520    5.2710 C.ar      1 ZTX         0.1772
      3 N3         10.8650    1.5830    4.7750 N.ar      1 ZTX        -0.2477
      4 C4          9.8630    2.4530    4.9120 C.ar      1 ZTX         0.1642
      5 C5         10.1040    3.6330    5.6180 C.ar      1 ZTX         0.1304
      6 C6         11.3780    3.8900    6.1410 C.ar      1 ZTX         0.0203
      7 OAA         7.1050    5.3120    6.3280 O.2       1 ZTX        -0.3768
      8 CAB         7.8560    4.3480    6.1110 C.2       1 ZTX         0.2274
      9 CAC         7.2290    2.9410    6.1050 C.ar      1 ZTX         0.0789
     10 CAD         7.6370    1.8960    5.2620 C.ar      1 ZTX         0.0853
     11 NAE         8.6930    1.9960    4.4040 N.pl3     1 ZTX        -0.2442
     12 CAF         8.6050    1.4480    3.0320 C.3       1 ZTX         0.0374
     13 CAH         5.9370    0.4450    6.2400 C.ar      1 ZTX        -0.0674
     14 CAI         5.5210    1.4870    7.0770 C.ar      1 ZTX        -0.0679
     15 CAK         6.1550    2.7560    7.0080 C.ar      1 ZTX        -0.0510
     16 CAL         6.9930    0.6340    5.3360 C.ar      1 ZTX        -0.0326
     17 NAN        13.0720    0.9500    5.1330 N.pl3     1 ZTX        -0.2596
     18 CAO        13.2090   -0.0990    4.3330 C.ar      1 ZTX         0.0496
     19 CAP        12.2440   -0.7450    3.5370 C.ar      1 ZTX        -0.0498
     20 CAQ        12.6230   -1.8420    2.7530 C.ar      1 ZTX        -0.0533
     21 CAR        13.9650   -2.2830    2.8040 C.ar      1 ZTX         0.0289
     22 NAS        14.5120   -3.3540    2.0860 N.pl3     1 ZTX        -0.3147
     23 CAT        14.9700   -4.5990    2.8000 C.3       1 ZTX         0.0270
     24 CAU        14.6620   -5.8490    1.9520 C.3       1 ZTX        -0.0074
     25 CAV        14.9940   -5.6520    0.4480 C.3       1 ZTX         0.0588
     26 OAW        14.5210   -6.7770   -0.2940 O.3       1 ZTX        -0.3917
     27 CAX        14.3210   -4.3890   -0.1240 C.3       1 ZTX        -0.0074
     28 CAY        14.7910   -3.1540    0.6410 C.3       1 ZTX         0.0270
     29 CAZ        14.8930   -1.6420    3.5980 C.ar      1 ZTX        -0.0533
     30 CBA        14.5050   -0.5600    4.3460 C.ar      1 ZTX        -0.0498
     31 NBG         9.1890    4.5860    5.8680 N.am      1 ZTX        -0.2230
     32 CBH         9.6660    5.9870    5.9020 C.3       1 ZTX         0.0413
     33 H1         11.5678    4.7999    6.6988 H         1 ZTX         0.0699
     34 H2          9.5529    1.6282    2.5037 H         1 ZTX         0.0535
     35 H3          7.7844    1.9424    2.4916 H         1 ZTX         0.0535
     36 H4          8.4125    0.3661    3.0809 H         1 ZTX         0.0535
     37 H5          5.4388   -0.5164    6.2908 H         1 ZTX         0.0622
     38 H6          4.7122    1.3248    7.7803 H         1 ZTX         0.0529
     39 H7          5.8208    3.5720    7.6385 H         1 ZTX         0.0638
     40 H8          7.3154   -0.1802    4.6971 H         1 ZTX         0.0545
     41 H9         13.8691    1.0968    5.7686 H         1 ZTX         0.2102
     42 H10        11.2175   -0.3967    3.5310 H         1 ZTX         0.0503
     43 H11        11.9007   -2.3434    2.1190 H         1 ZTX         0.0489
     44 H12        14.4464   -4.6772    3.7642 H         1 ZTX         0.0510
     45 H13        16.0542   -4.5382    2.9753 H         1 ZTX         0.0510
     46 H14        13.5917   -6.0839    2.0478 H         1 ZTX         0.0309
     47 H15        15.2578   -6.6900    2.3362 H         1 ZTX         0.0309
     48 H16        16.0844   -5.5645    0.3323 H         1 ZTX         0.0594
     49 H17        14.7242   -6.6562   -1.2141 H         1 ZTX         0.2098
     50 H18        13.2292   -4.4830   -0.0282 H         1 ZTX         0.0309
     51 H19        14.5882   -4.2831   -1.1858 H         1 ZTX         0.0309
     52 H20        15.8712   -3.0132    0.4886 H         1 ZTX         0.0510
     53 H21        14.2509   -2.2667    0.2791 H         1 ZTX         0.0510
     54 H22        15.9191   -1.9901    3.6305 H         1 ZTX         0.0489
     55 H23        15.2388   -0.0548    4.9636 H         1 ZTX         0.0503
     56 H24        10.7451    6.0122    5.6899 H         1 ZTX         0.0542
     57 H25         9.4781    6.4143    6.8980 H         1 ZTX         0.0542
     58 H26         9.1294    6.5756    5.1433 H         1 ZTX         0.0542
@<TRIPOS>BOND
     1    2    1 ar 
     2    6    1 ar 
     3    3    2 ar 
     4    2   17 1  
     5    4    3 ar 
     6    4    5 ar 
     7   11    4 1  
     8    5    6 ar 
     9    5   31 1  
    10    8    7 2  
    11    9    8 1  
    12    8   31 am 
    13   10    9 ar 
    14    9   15 ar 
    15   10   11 1  
    16   16   10 ar 
    17   11   12 1  
    18   13   14 ar 
    19   13   16 ar 
    20   14   15 ar 
    21   17   18 1  
    22   18   19 ar 
    23   18   30 ar 
    24   19   20 ar 
    25   20   21 ar 
    26   21   22 1  
    27   21   29 ar 
    28   22   23 1  
    29   22   28 1  
    30   23   24 1  
    31   24   25 1  
    32   25   26 1  
    33   25   27 1  
    34   27   28 1  
    35   29   30 ar 
    36   31   32 1  
    37    6   33 1  
    38   12   34 1  
    39   12   35 1  
    40   12   36 1  
    41   13   37 1  
    42   14   38 1  
    43   15   39 1  
    44   16   40 1  
    45   17   41 1  
    46   19   42 1  
    47   20   43 1  
    48   23   44 1  
    49   23   45 1  
    50   24   46 1  
    51   24   47 1  
    52   25   48 1  
    53   26   49 1  
    54   27   50 1  
    55   27   51 1  
    56   28   52 1  
    57   28   53 1  
    58   29   54 1  
    59   30   55 1  
    60   32   56 1  
    61   32   57 1  
    62   32   58 1  
@<TRIPOS>SUBSTRUCTURE
     1 ZTX         1

