### 
### Created by X-TOOL on Mon Sep 10 21:13:10 2018
### 

@<TRIPOS>MOLECULE
3zv7_ligand
   29    31     1     0     0
SMALL
GAST_HUCK


@<TRIPOS>ATOM
      1 CW2         4.8490   65.3380   62.5980 C.ar      1 NHG        -0.0246
      2 CW3         4.0400   66.3360   63.1300 C.ar      1 NHG        -0.0341
      3 CW7         3.8840   67.8070   62.7450 C.3       1 NHG         0.0146
      4 CK2         3.4270   67.9780   61.2940 C.3       1 NHG        -0.0858
      5 CW9         5.1690   68.5790   63.0450 C.3       1 NHG        -0.0334
      6 CK1         5.0610   68.6620   64.5660 C.3       1 NHG        -0.0416
      7 NW2         3.6820   69.1500   64.7100 N.4       1 NHG         0.2386
      8 CW8         2.8880   68.3240   63.7850 C.3       1 NHG         0.0404
      9 NW1         2.4050   67.1090   64.4600 N.pl3     1 NHG        -0.2719
     10 CW4         3.1100   66.0300   64.1210 C.ar      1 NHG         0.0675
     11 CW5         2.9960   64.7140   64.5560 C.ar      1 NHG        -0.0136
     12 CW6         3.8030   63.7130   64.0270 C.ar      1 NHG        -0.0116
     13 CW1         4.7380   64.0270   63.0470 C.ar      1 NHG         0.1028
     14 OW1         5.5700   63.0680   62.5570 O.3       1 NHG        -0.3327
     15 H1          5.5712   65.5839   61.8279 H         1 NHG         0.0665
     16 H2          4.1986   67.5819   60.6175 H         1 NHG         0.0110
     17 H3          3.2676   69.0458   61.0832 H         1 NHG         0.0110
     18 H4          2.4865   67.4292   61.1387 H         1 NHG         0.0110
     19 H5          5.1682   69.5751   62.5783 H         1 NHG         0.0197
     20 H6          6.0646   68.0255   62.7265 H         1 NHG         0.0197
     21 H7          5.7888   69.3713   64.9868 H         1 NHG         0.0804
     22 H8          5.1945   67.6770   65.0370 H         1 NHG         0.0804
     23 H9          3.6222   70.1236   64.4561 H         1 NHG         0.2027
     24 H10         3.3605   69.0295   65.6577 H         1 NHG         0.2027
     25 H11         2.0627   68.8977   63.3380 H         1 NHG         0.1018
     26 H12         1.6132   67.0941   65.1186 H         1 NHG         0.1953
     27 H13         2.2672   64.4650   65.3188 H         1 NHG         0.0594
     28 H14         3.7036   62.6919   64.3772 H         1 NHG         0.0778
     29 H15         6.1402   63.4504   61.9005 H         1 NHG         0.2459
@<TRIPOS>BOND
     1    1    2 ar 
     2    1   13 ar 
     3    2    3 1  
     4    2   10 ar 
     5    3    4 1  
     6    3    5 1  
     7    3    8 1  
     8    5    6 1  
     9    6    7 1  
    10    7    8 1  
    11    8    9 1  
    12    9   10 1  
    13   10   11 ar 
    14   11   12 ar 
    15   12   13 ar 
    16   13   14 1  
    17    1   15 1  
    18    4   16 1  
    19    4   17 1  
    20    4   18 1  
    21    5   19 1  
    22    5   20 1  
    23    6   21 1  
    24    6   22 1  
    25    7   23 1  
    26    7   24 1  
    27    8   25 1  
    28    9   26 1  
    29   11   27 1  
    30   12   28 1  
    31   14   29 1  
@<TRIPOS>SUBSTRUCTURE
     1 NHG         1

