### 
### Created by X-TOOL on Mon Sep 10 21:13:06 2018
### 

@<TRIPOS>MOLECULE
3zvv_ligand
   22    23     1     0     0
SMALL
GAST_HUCK


@<TRIPOS>ATOM
      1 C1         42.4250   13.0130   30.7000 C.3       1 XAZ        -0.0134
      2 C2         43.9350   13.0850   30.2970 C.2       1 XAZ         0.0106
      3 C3         44.3810   12.2820   29.2160 C.2       1 XAZ         0.0047
      4 C4         45.6930   12.3120   28.8160 C.2       1 XAZ         0.1203
      5 C5         46.0450   11.4640   27.7510 C.3       1 XAZ         0.0193
      6 N6         46.6530   13.0730   29.3720 N.pl3     1 XAZ        -0.1493
      7 N7         48.0400   13.2850   29.1460 N.2       1 XAZ        -0.2164
      8 C8         48.5210   14.1270   29.9870 C.2       1 XAZ         0.0647
      9 N9         49.8950   14.4710   29.9450 N.pl3     1 XAZ        -0.3392
     10 C10        47.4700   14.5590   30.8690 C.2       1 XAZ        -0.0280
     11 C11        46.3010   13.9180   30.4850 C.2       1 XAZ         0.1352
     12 N12        44.9250   13.8830   30.9040 N.2       1 XAZ        -0.2935
     13 H1         41.9036   12.3017   30.0426 H         1 XAZ         0.0451
     14 H2         41.9700   14.0091   30.5966 H         1 XAZ         0.0451
     15 H3         42.3397   12.6775   31.7441 H         1 XAZ         0.0451
     16 H4         43.6745   11.6349   28.6982 H         1 XAZ         0.0456
     17 H5         45.1552   10.9141   27.4107 H         1 XAZ         0.0513
     18 H6         46.8105   10.7498   28.0885 H         1 XAZ         0.0513
     19 H7         46.4446   12.0647   26.9206 H         1 XAZ         0.0513
     20 H8         50.2775   15.1470   30.6214 H         1 XAZ         0.1689
     21 H9         50.5112   14.0450   29.2381 H         1 XAZ         0.1689
     22 H10        47.5736   15.2643   31.6923 H         1 XAZ         0.0125
@<TRIPOS>BOND
     1    1    2 1  
     2    2    3 1  
     3    2   12 2  
     4    3    4 2  
     5    4    5 1  
     6    4    6 1  
     7    6    7 1  
     8    6   11 1  
     9    7    8 2  
    10    8    9 1  
    11    8   10 1  
    12   10   11 2  
    13   11   12 1  
    14    1   13 1  
    15    1   14 1  
    16    1   15 1  
    17    3   16 1  
    18    5   17 1  
    19    5   18 1  
    20    5   19 1  
    21    9   20 1  
    22    9   21 1  
    23   10   22 1  
@<TRIPOS>SUBSTRUCTURE
     1 XAZ         1

