### 
### Created by X-TOOL on Mon Sep 10 21:13:06 2018
### 

@<TRIPOS>MOLECULE
3zw3_ligand
   31    33     1     0     0
SMALL
GAST_HUCK


@<TRIPOS>ATOM
      1 C1         51.7910   15.7450   30.3700 C.3       1 ZW3         0.0308
      2 C2         50.3140   15.7200   30.6570 C.2       1 ZW3         0.1964
      3 O3         49.8290   16.5620   31.3550 O.2       1 ZW3        -0.3872
      4 N4         49.6070   14.7580   30.0380 N.am      1 ZW3        -0.2408
      5 C5         48.2950   14.4400   30.1060 C.2       1 ZW3         0.0953
      6 C6         47.3380   14.9630   30.8760 C.2       1 ZW3         0.0653
      7 N7         46.1770   14.2790   30.6530 N.pl3     1 ZW3        -0.2203
      8 C8         44.8960   14.3720   31.1780 C.2       1 ZW3         0.0856
      9 C9         43.9030   13.4900   30.7490 C.2       1 ZW3         0.0089
     10 C10        42.4910   13.4430   31.1970 C.2       1 ZW3        -0.0342
     11 C11        41.9730   14.0860   32.3410 C.2       1 ZW3         0.1101
     12 S12        42.7010   15.1270   33.6360 S.3       1 ZW3         0.0371
     13 C13        41.1980   15.3490   34.4750 C.2       1 ZW3         0.2805
     14 O14        40.9950   16.0230   35.4790 O.2       1 ZW3        -0.3709
     15 N15        40.3200   14.6540   33.7870 N.am      1 ZW3        -0.1890
     16 C16        40.5900   14.0270   32.7490 C.2       1 ZW3         0.2394
     17 O17        39.7490   13.4260   32.1900 O.2       1 ZW3        -0.3782
     18 C18        44.2390   12.5350   29.7930 C.2       1 ZW3        -0.0567
     19 C19        45.4840   12.4910   29.2900 C.2       1 ZW3        -0.0212
     20 C20        46.4950   13.3500   29.7080 C.2       1 ZW3         0.1277
     21 N21        47.7950   13.4640   29.3770 N.2       1 ZW3        -0.3206
     22 H          52.0478   16.6813   29.8746 H         1 ZW3         0.0471
     23 H          52.3432   15.6646   31.3063 H         1 ZW3         0.0471
     24 H          52.0481   14.9071   29.7220 H         1 ZW3         0.0471
     25 H          50.1536   14.1681   29.4106 H         1 ZW3         0.2205
     26 H          47.4624   15.7966   31.5672 H         1 ZW3         0.0585
     27 H          44.6656   15.1325   31.9241 H         1 ZW3         0.1213
     28 H          41.7943   12.8630   30.5918 H         1 ZW3         0.0574
     29 H          39.3583   14.6278   34.1259 H         1 ZW3         0.2253
     30 H          43.4896   11.8209   29.4517 H         1 ZW3         0.0615
     31 H          45.7113   11.7513   28.5223 H         1 ZW3         0.0564
@<TRIPOS>BOND
     1    1    2 1  
     2    2    3 2  
     3    2    4 am 
     4    4    5 1  
     5    5    6 2  
     6    5   21 1  
     7    6    7 1  
     8    7    8 1  
     9    7   20 1  
    10    8    9 2  
    11    9   10 1  
    12    9   18 1  
    13   10   11 2  
    14   11   12 1  
    15   11   16 1  
    16   12   13 1  
    17   13   14 2  
    18   13   15 am 
    19   15   16 am 
    20   16   17 2  
    21   18   19 2  
    22   19   20 1  
    23   20   21 2  
    24    1   22 1  
    25    1   23 1  
    26    1   24 1  
    27    4   25 1  
    28    6   26 1  
    29    8   27 1  
    30   10   28 1  
    31   15   29 1  
    32   18   30 1  
    33   19   31 1  
@<TRIPOS>SUBSTRUCTURE
     1 ZW3         1

