### 
### Created by X-TOOL on Mon Sep 10 21:13:05 2018
### 

@<TRIPOS>MOLECULE
3zxh_ligand
   55    56     1     0     0
SMALL
GAST_HUCK


@<TRIPOS>ATOM
      1 O1         -2.5380   24.5660   54.7530 O.3       1 E41        -0.2717
      2 N1         -2.6630   25.3820   55.8810 N.am      1 E41        -0.1626
      3 N          -3.0270   28.7710   56.7250 N.am      1 E41        -0.2121
      4 CA         -2.2750   27.5360   56.9150 C.3       1 E41         0.1333
      5 C          -2.2940   26.6300   55.6900 C.2       1 E41         0.2211
      6 O          -1.9050   27.0110   54.5560 O.2       1 E41        -0.3948
      7 CB         -0.8190   27.8130   57.3380 C.3       1 E41        -0.0095
      8 CG1        -0.7500   28.4810   58.7200 C.3       1 E41        -0.0588
      9 CG2         0.0630   26.5620   57.3490 C.3       1 E41        -0.0588
     10 S1         -4.6790   28.6660   57.0250 S.o2      1 E41         0.0728
     11 O3         -4.8620   27.8000   58.1900 O.2       1 E41        -0.1500
     12 O4         -5.1770   30.0400   57.0660 O.2       1 E41        -0.1500
     13 C6         -5.4510   27.8640   55.6480 C.ar      1 E41         0.1091
     14 C7         -5.6550   26.4900   55.7170 C.ar      1 E41        -0.0345
     15 C8         -6.2110   25.8260   54.6260 C.ar      1 E41        -0.0522
     16 C9         -5.8250   28.6290   54.5380 C.ar      1 E41        -0.0274
     17 C10        -6.3970   27.9610   53.4420 C.ar      1 E41        -0.0160
     18 C11        -6.5850   26.5460   53.4820 C.ar      1 E41        -0.0178
     19 C12        -7.1840   25.9090   52.3790 C.ar      1 E41        -0.0540
     20 C13        -7.5470   26.6330   51.2340 C.ar      1 E41        -0.0612
     21 C14        -7.3590   28.0110   51.1940 C.ar      1 E41        -0.0612
     22 C15        -6.7610   28.6910   52.2670 C.ar      1 E41        -0.0540
     23 C16        -2.2080   31.1040   56.3350 C.3       1 E41        -0.0334
     24 C17        -1.8120   32.0820   55.2310 C.3       1 E41        -0.0453
     25 C18        -2.6110   29.7590   55.7110 C.3       1 E41         0.0327
     26 C19        -1.8830   33.5310   55.7510 C.3       1 E41        -0.0626
     27 C20        -0.4220   31.6960   54.7080 C.3       1 E41        -0.0626
     28 H1         -2.8218   23.6852   54.9677 H         1 E41         0.2490
     29 H2         -3.0040   25.0455   56.7588 H         1 E41         0.2217
     30 H3         -2.7609   26.9877   57.7355 H         1 E41         0.0758
     31 H4         -0.3960   28.5117   56.6012 H         1 E41         0.0338
     32 H5          0.3014   28.6627   58.9873 H         1 E41         0.0234
     33 H6         -1.2101   27.8207   59.4698 H         1 E41         0.0234
     34 H7         -1.2918   29.4379   58.6922 H         1 E41         0.0234
     35 H8          0.0211   26.0752   56.3635 H         1 E41         0.0234
     36 H9         -0.2997   25.8644   58.1182 H         1 E41         0.0234
     37 H10         1.1014   26.8474   57.5731 H         1 E41         0.0234
     38 H11        -5.3838   25.9409   56.6115 H         1 E41         0.0637
     39 H12        -6.3547   24.7521   54.6612 H         1 E41         0.0624
     40 H13        -5.6782   29.7029   54.5238 H         1 E41         0.0643
     41 H14        -7.3678   24.8413   52.4151 H         1 E41         0.0624
     42 H15        -7.9739   26.1191   50.3804 H         1 E41         0.0618
     43 H16        -7.6791   28.5682   50.3210 H         1 E41         0.0618
     44 H17        -6.5772   29.7575   52.2056 H         1 E41         0.0624
     45 H18        -3.0575   31.5145   56.9005 H         1 E41         0.0283
     46 H19        -1.3552   30.9522   57.0130 H         1 E41         0.0283
     47 H20        -2.5282   31.9866   54.4016 H         1 E41         0.0296
     48 H21        -3.4483   29.9279   55.0179 H         1 E41         0.0480
     49 H22        -1.7513   29.3553   55.1561 H         1 E41         0.0480
     50 H23        -1.5956   34.2238   54.9464 H         1 E41         0.0232
     51 H24        -1.1944   33.6499   56.6005 H         1 E41         0.0232
     52 H25        -2.9096   33.7536   56.0772 H         1 E41         0.0232
     53 H26        -0.4397   30.6548   54.3536 H         1 E41         0.0232
     54 H27         0.3152   31.7950   55.5184 H         1 E41         0.0232
     55 H28        -0.1451   32.3614   53.8770 H         1 E41         0.0232
@<TRIPOS>BOND
     1    2    1 1  
     2    5    2 am 
     3    3    4 1  
     4    3   10 am 
     5   25    3 1  
     6    4    5 1  
     7    4    7 1  
     8    5    6 2  
     9    7    8 1  
    10    7    9 1  
    11   10   11 2  
    12   10   12 2  
    13   10   13 1  
    14   13   14 ar 
    15   13   16 ar 
    16   14   15 ar 
    17   15   18 ar 
    18   16   17 ar 
    19   17   18 ar 
    20   17   22 ar 
    21   18   19 ar 
    22   19   20 ar 
    23   21   20 ar 
    24   22   21 ar 
    25   23   24 1  
    26   23   25 1  
    27   24   26 1  
    28   24   27 1  
    29    1   28 1  
    30    2   29 1  
    31    4   30 1  
    32    7   31 1  
    33    8   32 1  
    34    8   33 1  
    35    8   34 1  
    36    9   35 1  
    37    9   36 1  
    38    9   37 1  
    39   14   38 1  
    40   15   39 1  
    41   16   40 1  
    42   19   41 1  
    43   20   42 1  
    44   21   43 1  
    45   22   44 1  
    46   23   45 1  
    47   23   46 1  
    48   24   47 1  
    49   25   48 1  
    50   25   49 1  
    51   26   50 1  
    52   26   51 1  
    53   26   52 1  
    54   27   53 1  
    55   27   54 1  
    56   27   55 1  
@<TRIPOS>SUBSTRUCTURE
     1 E41         1

