### 
### Created by X-TOOL on Mon Sep 10 21:13:11 2018
### 

@<TRIPOS>MOLECULE
3zxr_ligand
   45    48     1     0     0
SMALL
GAST_HUCK


@<TRIPOS>ATOM
      1 C25       -25.1500   78.9470   12.0890 C.3       1 IQ1        -0.0958
      2 C22       -25.7470   80.2150   12.6800 C.3       1 IQ1        -0.0304
      3 C23       -24.6260   81.0790   13.2520 C.3       1 IQ1        -0.0958
      4 C24       -26.7140   79.8030   13.7790 C.3       1 IQ1        -0.0958
      5 C2        -26.4860   80.9790   11.6070 C.2       1 IQ1         0.0927
      6 N3        -25.9240   81.6810   10.6310 N.2       1 IQ1        -0.2602
      7 N1        -27.7950   81.0680   11.4600 N.pl3     1 IQ1        -0.2331
      8 C5        -28.0940   81.8470   10.3550 C.2       1 IQ1         0.1547
      9 C6        -29.4260   82.0170    9.8620 C.ar      1 IQ1         0.0607
     10 C7        -30.4420   81.1920   10.3490 C.ar      1 IQ1        -0.0124
     11 C8        -31.7520   81.3570    9.8920 C.ar      1 IQ1         0.0193
     12 N9        -32.0340   82.3050    8.9780 N.ar      1 IQ1        -0.2897
     13 C10       -31.0840   83.1150    8.4850 C.ar      1 IQ1         0.0193
     14 C11       -29.7670   82.9910    8.9200 C.ar      1 IQ1        -0.0124
     15 C4        -26.8910   82.2490    9.8230 C.2       1 IQ1         0.1125
     16 C12       -26.6020   83.1770    8.8000 C.ar      1 IQ1         0.0323
     17 C13       -25.6180   84.1630    8.9750 C.ar      1 IQ1         0.0205
     18 N14       -25.3300   85.0540    8.0050 N.ar      1 IQ1        -0.2938
     19 C15       -25.9660   85.0290    6.8180 C.ar      1 IQ1         0.0469
     20 C16       -25.6420   85.9600    5.8230 C.ar      1 IQ1        -0.0392
     21 C21       -27.2630   83.1400    7.5670 C.ar      1 IQ1        -0.0260
     22 C20       -26.9540   84.0670    6.5730 C.ar      1 IQ1         0.0072
     23 C19       -27.6240   84.0350    5.3450 C.ar      1 IQ1        -0.0460
     24 C18       -27.3010   84.9660    4.3540 C.ar      1 IQ1        -0.0558
     25 C17       -26.3130   85.9290    4.5950 C.ar      1 IQ1        -0.0557
     26 H1        -24.6130   78.3942   12.8739 H         1 IQ1         0.0085
     27 H2        -24.4499   79.2124   11.2831 H         1 IQ1         0.0085
     28 H3        -25.9553   78.3174   11.6827 H         1 IQ1         0.0085
     29 H4        -25.0534   81.9975   13.6807 H         1 IQ1         0.0085
     30 H5        -23.9205   81.3424   12.4502 H         1 IQ1         0.0085
     31 H6        -24.0964   80.5198   14.0374 H         1 IQ1         0.0085
     32 H7        -27.5140   79.1820   13.3496 H         1 IQ1         0.0085
     33 H8        -27.1532   80.7016   14.2368 H         1 IQ1         0.0085
     34 H9        -26.1744   79.2273   14.5454 H         1 IQ1         0.0085
     35 H10       -28.4908   80.6238   12.0760 H         1 IQ1         0.2501
     36 H11       -30.2147   80.4249   11.0804 H         1 IQ1         0.0785
     37 H12       -32.5425   80.7210   10.2737 H         1 IQ1         0.0840
     38 H13       -31.3422   83.8664    7.7476 H         1 IQ1         0.0840
     39 H14       -29.0037   83.6524    8.5264 H         1 IQ1         0.0785
     40 H15       -25.0766   84.2090    9.9130 H         1 IQ1         0.0877
     41 H16       -24.8734   86.7028    6.0035 H         1 IQ1         0.0646
     42 H17       -28.0199   82.3859    7.3839 H         1 IQ1         0.0772
     43 H18       -28.3908   83.2908    5.1630 H         1 IQ1         0.0655
     44 H19       -27.8147   84.9428    3.3997 H         1 IQ1         0.0642
     45 H20       -26.0669   86.6535    3.8271 H         1 IQ1         0.0652
@<TRIPOS>BOND
     1    1    2 1  
     2    2    3 1  
     3    2    4 1  
     4    2    5 1  
     5    5    6 2  
     6    5    7 1  
     7    6   15 1  
     8    7    8 1  
     9    8    9 1  
    10    8   15 2  
    11    9   10 ar 
    12    9   14 ar 
    13   10   11 ar 
    14   11   12 ar 
    15   12   13 ar 
    16   13   14 ar 
    17   15   16 1  
    18   16   17 ar 
    19   16   21 ar 
    20   17   18 ar 
    21   18   19 ar 
    22   19   20 ar 
    23   19   22 ar 
    24   20   25 ar 
    25   21   22 ar 
    26   22   23 ar 
    27   23   24 ar 
    28   24   25 ar 
    29    1   26 1  
    30    1   27 1  
    31    1   28 1  
    32    3   29 1  
    33    3   30 1  
    34    3   31 1  
    35    4   32 1  
    36    4   33 1  
    37    4   34 1  
    38    7   35 1  
    39   10   36 1  
    40   11   37 1  
    41   13   38 1  
    42   14   39 1  
    43   17   40 1  
    44   20   41 1  
    45   21   42 1  
    46   23   43 1  
    47   24   44 1  
    48   25   45 1  
@<TRIPOS>SUBSTRUCTURE
     1 IQ1         1

