### 
### Created by X-TOOL on Mon Sep 10 21:13:10 2018
### 

@<TRIPOS>MOLECULE
3zxv_ligand
   52    55     1     0     0
SMALL
GAST_HUCK


@<TRIPOS>ATOM
      1 N26       -31.3980   83.9010    8.0080 N.pl3     1 MXI        -0.3212
      2 C8        -31.1240   82.9050    8.8770 C.ar      1 MXI         0.1163
      3 N9        -32.1060   82.0820    9.3010 N.ar      1 MXI        -0.2785
      4 C10       -31.8470   81.0860   10.1680 C.ar      1 MXI         0.0039
      5 C11       -30.5650   80.8700   10.6610 C.ar      1 MXI        -0.0268
      6 C7        -29.8310   82.7270    9.3610 C.ar      1 MXI         0.0045
      7 C6        -29.5290   81.7030   10.2570 C.ar      1 MXI         0.0482
      8 C5        -28.2340   81.5080   10.7590 C.2       1 MXI         0.1499
      9 N1        -27.9590   80.7760   11.8760 N.pl3     1 MXI        -0.2341
     10 C2        -26.6160   80.6950   11.9230 C.2       1 MXI         0.0899
     11 C22       -25.8110   79.9730   12.9750 C.3       1 MXI        -0.0326
     12 C24       -26.7060   79.5580   14.1290 C.3       1 MXI        -0.0970
     13 C23       -24.7030   80.9090   13.4460 C.3       1 MXI        -0.0970
     14 C25       -25.2070   78.7120   12.3830 C.3       1 MXI        -0.0970
     15 C4        -26.9940   81.8530   10.1620 C.2       1 MXI         0.1038
     16 N3        -26.0030   81.3250   10.9160 N.2       1 MXI        -0.2635
     17 C12       -26.7010   82.7740    9.0120 C.ar      1 MXI         0.0004
     18 C21       -27.4670   82.7250    7.9030 C.ar      1 MXI        -0.0479
     19 C20       -27.1940   83.6310    6.7720 C.ar      1 MXI        -0.0228
     20 C15       -26.1240   84.4980    6.8960 C.ar      1 MXI        -0.0275
     21 C14       -25.3810   84.4740    8.0730 C.ar      1 MXI        -0.0588
     22 C13       -25.7200   83.5790    9.0910 C.ar      1 MXI        -0.0554
     23 C19       -27.9790   83.6060    5.6170 C.ar      1 MXI        -0.0555
     24 C18       -27.6720   84.4740    4.5660 C.ar      1 MXI        -0.0266
     25 C17       -26.5940   85.3630    4.6810 C.ar      1 MXI         0.0931
     26 C16       -25.8190   85.3700    5.8530 C.ar      1 MXI        -0.0280
     27 O27       -26.2810   86.3080    3.5250 O.3       1 MXI        -0.3198
     28 C28       -25.1020   87.2250    3.8270 C.3       1 MXI         0.0600
     29 H1        -30.6450   84.5264    7.6874 H         1 MXI         0.1763
     30 H2        -32.3600   84.0355    7.6655 H         1 MXI         0.1763
     31 H3        -32.6549   80.4384   10.4888 H         1 MXI         0.0795
     32 H4        -30.3754   80.0587   11.3545 H         1 MXI         0.0670
     33 H5        -29.0441   83.3975    9.0349 H         1 MXI         0.0680
     34 H6        -28.6338   80.3718   12.5410 H         1 MXI         0.2501
     35 H7        -26.1066   79.0334   14.8876 H         1 MXI         0.0081
     36 H8        -27.4957   78.8881   13.7581 H         1 MXI         0.0081
     37 H9        -27.1641   80.4518   14.5776 H         1 MXI         0.0081
     38 H10       -24.0729   81.1914   12.5897 H         1 MXI         0.0081
     39 H11       -24.0877   80.3981   14.2012 H         1 MXI         0.0081
     40 H12       -25.1491   81.8127   13.8868 H         1 MXI         0.0081
     41 H13       -26.0125   78.0429   12.0460 H         1 MXI         0.0081
     42 H14       -24.6020   78.2017   13.1468 H         1 MXI         0.0081
     43 H15       -24.5691   78.9778   11.5272 H         1 MXI         0.0081
     44 H16       -28.2860   82.0174    7.8429 H         1 MXI         0.0632
     45 H17       -24.5415   85.1480    8.1994 H         1 MXI         0.0594
     46 H18       -25.1173   83.5705    9.9920 H         1 MXI         0.0614
     47 H19       -28.8159   82.9217    5.5370 H         1 MXI         0.0623
     48 H20       -28.2680   84.4600    3.6607 H         1 MXI         0.0592
     49 H21       -24.9833   86.0542    5.9458 H         1 MXI         0.0503
     50 H22       -24.9191   87.8831    2.9648 H         1 MXI         0.0579
     51 H23       -24.2056   86.6178    4.0214 H         1 MXI         0.0579
     52 H24       -25.3302   87.8360    4.7127 H         1 MXI         0.0579
@<TRIPOS>BOND
     1    1    2 1  
     2    2    3 ar 
     3    2    6 ar 
     4    3    4 ar 
     5    4    5 ar 
     6    5    7 ar 
     7    6    7 ar 
     8    7    8 1  
     9    8    9 1  
    10    8   15 2  
    11    9   10 1  
    12   10   11 1  
    13   10   16 2  
    14   11   12 1  
    15   11   13 1  
    16   11   14 1  
    17   15   16 1  
    18   15   17 1  
    19   17   18 ar 
    20   17   22 ar 
    21   18   19 ar 
    22   19   20 ar 
    23   19   23 ar 
    24   20   21 ar 
    25   20   26 ar 
    26   21   22 ar 
    27   23   24 ar 
    28   24   25 ar 
    29   25   26 ar 
    30   25   27 1  
    31   27   28 1  
    32    1   29 1  
    33    1   30 1  
    34    4   31 1  
    35    5   32 1  
    36    6   33 1  
    37    9   34 1  
    38   12   35 1  
    39   12   36 1  
    40   12   37 1  
    41   13   38 1  
    42   13   39 1  
    43   13   40 1  
    44   14   41 1  
    45   14   42 1  
    46   14   43 1  
    47   18   44 1  
    48   21   45 1  
    49   22   46 1  
    50   23   47 1  
    51   24   48 1  
    52   26   49 1  
    53   28   50 1  
    54   28   51 1  
    55   28   52 1  
@<TRIPOS>SUBSTRUCTURE
     1 MXI         1

