### 
### Created by X-TOOL on Mon Sep 10 21:13:06 2018
### 

@<TRIPOS>MOLECULE
3zxz_ligand
   44    48     1     0     0
SMALL
GAST_HUCK


@<TRIPOS>ATOM
      1 O28        16.3110   78.7530   -1.1750 O.3       1 KRW        -0.3920
      2 C27        16.4420   79.6810   -0.1180 C.3       1 KRW         0.0743
      3 C26        17.9130   80.0570    0.0670 C.3       1 KRW         0.0967
      4 N12        18.0880   81.0210    1.1560 N.pl3     1 KRW        -0.1960
      5 C11        17.8610   80.7280    2.5060 C.2       1 KRW         0.0724
      6 N13        18.4760   82.2330    0.9630 N.2       1 KRW        -0.2101
      7 C14        18.5500   82.8410    2.0990 C.2       1 KRW         0.0111
      8 C10        18.1620   81.9200    3.1640 C.2       1 KRW         0.0250
      9 C1         18.1100   82.2210    4.6320 C.ar      1 KRW         0.0547
     10 N4         18.4760   83.4880    5.0310 N.ar      1 KRW        -0.2583
     11 C5         18.4140   83.6950    6.3690 C.ar      1 KRW         0.2059
     12 N9         18.7100   84.8240    7.1140 N.pl3     1 KRW        -0.1270
     13 N8         18.5060   84.5780    8.3670 N.2       1 KRW        -0.0612
     14 N7         18.0910   83.3650    8.5540 N.2       1 KRW        -0.1746
     15 C6         18.0220   82.7610    7.2720 C.ar      1 KRW         0.1687
     16 N3         17.6500   81.5030    6.9290 N.ar      1 KRW        -0.2708
     17 C2         17.7020   81.2420    5.5810 C.ar      1 KRW         0.0312
     18 C          19.1850   86.1050    6.5720 C.3       1 KRW         0.1143
     19 C16        20.6520   85.9880    6.1520 C.ar      1 KRW        -0.0048
     20 C19        21.0080   85.7660    4.7750 C.ar      1 KRW        -0.0440
     21 C20        22.3790   85.6550    4.3760 C.ar      1 KRW        -0.0006
     22 C25        22.7600   85.4320    3.0160 C.ar      1 KRW        -0.0381
     23 C24        24.1460   85.3300    2.6870 C.ar      1 KRW        -0.0341
     24 C23        25.1060   85.4560    3.7370 C.ar      1 KRW         0.0084
     25 N22        24.7620   85.6690    5.0460 N.ar      1 KRW        -0.2983
     26 C21        23.4380   85.7660    5.3640 C.ar      1 KRW         0.0424
     27 C18        23.0740   85.9860    6.7340 C.ar      1 KRW        -0.0417
     28 C17        21.6990   86.0960    7.1240 C.ar      1 KRW        -0.0485
     29 H1         16.6388   79.1409   -1.9779 H         1 KRW         0.2095
     30 H2         16.0611   79.2316    0.8109 H         1 KRW         0.0587
     31 H3         15.8614   80.5853   -0.3528 H         1 KRW         0.0587
     32 H4         18.2887   80.5007   -0.8668 H         1 KRW         0.0669
     33 H5         18.4878   79.1482    0.2984 H         1 KRW         0.0669
     34 H6         17.5269   79.7874    2.9413 H         1 KRW         0.1097
     35 H7         18.8538   83.8771    2.2410 H         1 KRW         0.0690
     36 H8         17.4225   80.2559    5.2280 H         1 KRW         0.0829
     37 H9         19.0884   86.8841    7.3425 H         1 KRW         0.0807
     38 H10        18.5769   86.3774    5.6968 H         1 KRW         0.0807
     39 H11        20.2264   85.6815    4.0286 H         1 KRW         0.0563
     40 H12        22.0052   85.3414    2.2432 H         1 KRW         0.0752
     41 H13        24.4621   85.1609    1.6640 H         1 KRW         0.0687
     42 H14        26.1578   85.3794    3.4861 H         1 KRW         0.0846
     43 H15        23.8505   86.0703    7.4857 H         1 KRW         0.0640
     44 H16        21.4487   86.2627    8.1655 H         1 KRW         0.0622
@<TRIPOS>BOND
     1    1    2 1  
     2    2    3 1  
     3    3    4 1  
     4    4    5 1  
     5    4    6 1  
     6    5    8 2  
     7    6    7 2  
     8    7    8 1  
     9    8    9 1  
    10    9   10 ar 
    11    9   17 ar 
    12   10   11 ar 
    13   11   12 1  
    14   11   15 ar 
    15   12   13 1  
    16   12   18 1  
    17   13   14 2  
    18   14   15 1  
    19   15   16 ar 
    20   16   17 ar 
    21   18   19 1  
    22   19   20 ar 
    23   19   28 ar 
    24   20   21 ar 
    25   21   22 ar 
    26   21   26 ar 
    27   22   23 ar 
    28   23   24 ar 
    29   24   25 ar 
    30   25   26 ar 
    31   26   27 ar 
    32   27   28 ar 
    33    1   29 1  
    34    2   30 1  
    35    2   31 1  
    36    3   32 1  
    37    3   33 1  
    38    5   34 1  
    39    7   35 1  
    40   17   36 1  
    41   18   37 1  
    42   18   38 1  
    43   20   39 1  
    44   22   40 1  
    45   23   41 1  
    46   24   42 1  
    47   27   43 1  
    48   28   44 1  
@<TRIPOS>SUBSTRUCTURE
     1 KRW         1

