### 
### Created by X-TOOL on Mon Sep 10 21:13:05 2018
### 

@<TRIPOS>MOLECULE
3zya_ligand
   44    47     1     0     0
SMALL
GAST_HUCK


@<TRIPOS>ATOM
      1 NAA        16.4530  -12.9390  -28.1130 N.pl3     1 2A8        -0.3408
      2 OAB        11.4660  -18.8150  -32.0190 O.3       1 2A8        -0.3714
      3 CAC         7.5710  -16.4900  -34.1620 C.ar      1 2A8        -0.0754
      4 CAD         7.8530  -15.7380  -33.0190 C.ar      1 2A8        -0.0664
      5 CAE         8.4050  -17.5290  -34.5630 C.ar      1 2A8        -0.0752
      6 CAF        19.1320  -14.4810  -30.1040 C.ar      1 2A8        -0.0863
      7 CAG        18.4370  -14.8400  -31.2450 C.ar      1 2A8        -0.0859
      8 CAH        18.5070  -13.8500  -29.0470 C.ar      1 2A8        -0.0545
      9 CAI         9.0000  -16.0660  -32.2860 C.ar      1 2A8        -0.0352
     10 CAJ         9.5530  -17.8390  -33.8130 C.ar      1 2A8        -0.0629
     11 CAK        12.6600  -14.1360  -30.8920 C.ar      1 2A8        -0.0450
     12 CAL        14.2820  -15.9210  -30.8940 C.ar      1 2A8        -0.0533
     13 CAM        17.0760  -14.5710  -31.3590 C.ar      1 2A8        -0.0512
     14 CAN        11.6720  -15.0630  -31.2730 C.ar      1 2A8        -0.0451
     15 CAO        13.3120  -16.8490  -31.2720 C.ar      1 2A8        -0.0727
     16 CA0         9.1680  -15.1760  -31.1150 C.3       1 2A8        -0.0128
     17 NAP        14.9910  -13.6140  -30.3180 N.pl3     1 2A8        -0.2849
     18 CAQ        11.0720  -17.5220  -31.9000 C.3       1 2A8         0.1124
     19 CA1        10.3660  -14.3390  -31.4020 C.3       1 2A8        -0.0152
     20 CAR        17.1440  -13.5850  -29.1640 C.ar      1 2A8         0.0592
     21 CAS        13.9750  -14.5760  -30.7050 C.ar      1 2A8         0.0421
     22 CAT         9.8350  -17.0880  -32.6550 C.ar      1 2A8        -0.0043
     23 CAU        11.9950  -16.4050  -31.4530 C.ar      1 2A8        -0.0145
     24 CAV        16.4130  -13.9390  -30.3030 C.ar      1 2A8         0.0761
     25 H1         16.9572  -12.6630  -27.2583 H         1 2A8         0.1685
     26 H2         15.4455  -12.7444  -28.2021 H         1 2A8         0.1685
     27 H3         12.2488  -18.9554  -31.4994 H         1 2A8         0.2154
     28 H4          6.6874  -16.2602  -34.7464 H         1 2A8         0.0542
     29 H5          7.2045  -14.9264  -32.7094 H         1 2A8         0.0537
     30 H6          8.1695  -18.0997  -35.4540 H         1 2A8         0.0542
     31 H7         20.1916  -14.7002  -30.0384 H         1 2A8         0.0478
     32 H8         18.9568  -15.3351  -32.0573 H         1 2A8         0.0474
     33 H9         19.0579  -13.5702  -28.1563 H         1 2A8         0.0475
     34 H10        10.2110  -18.6435  -34.1210 H         1 2A8         0.0540
     35 H11        12.4051  -13.0927  -30.7450 H         1 2A8         0.0447
     36 H12        15.3020  -16.2556  -30.7433 H         1 2A8         0.0454
     37 H13        16.5361  -14.8486  -32.2570 H         1 2A8         0.0486
     38 H14        13.5709  -17.8908  -31.4225 H         1 2A8         0.0513
     39 H15         9.3270  -15.7704  -30.2032 H         1 2A8         0.0432
     40 H16         8.2795  -14.5401  -30.9879 H         1 2A8         0.0432
     41 H17        14.6966  -12.6659  -30.0436 H         1 2A8         0.2028
     42 H18        10.5852  -17.6561  -30.9227 H         1 2A8         0.0866
     43 H19        10.2826  -13.9604  -32.4314 H         1 2A8         0.0431
     44 H20        10.3708  -13.4927  -30.6993 H         1 2A8         0.0431
@<TRIPOS>BOND
     1   20    1 1  
     2   18    2 1  
     3    4    3 ar 
     4    5    3 ar 
     5    9    4 ar 
     6   10    5 ar 
     7    7    6 ar 
     8    6    8 ar 
     9   13    7 ar 
    10    8   20 ar 
    11    9   16 1  
    12   22    9 ar 
    13   22   10 ar 
    14   14   11 ar 
    15   11   21 ar 
    16   15   12 ar 
    17   21   12 ar 
    18   24   13 ar 
    19   19   14 1  
    20   14   23 ar 
    21   23   15 ar 
    22   16   19 1  
    23   21   17 1  
    24   17   24 1  
    25   18   22 1  
    26   18   23 1  
    27   20   24 ar 
    28    1   25 1  
    29    1   26 1  
    30    2   27 1  
    31    3   28 1  
    32    4   29 1  
    33    5   30 1  
    34    6   31 1  
    35    7   32 1  
    36    8   33 1  
    37   10   34 1  
    38   11   35 1  
    39   12   36 1  
    40   13   37 1  
    41   15   38 1  
    42   16   39 1  
    43   16   40 1  
    44   17   41 1  
    45   18   42 1  
    46   19   43 1  
    47   19   44 1  
@<TRIPOS>SUBSTRUCTURE
     1 2A8         1

