### 
### Created by X-TOOL on Mon Sep 10 21:13:07 2018
### 

@<TRIPOS>MOLECULE
3zyb_ligand
   60    60     1     0     0
SMALL
GAST_HUCK


@<TRIPOS>ATOM
      1 N           5.3150  -18.9740   -6.9140 N.4       1 LYS         0.2379
      2 CA          3.9350  -18.9440   -6.4450 C.3       1 LYS         0.0652
      3 C           3.0690  -18.0680   -7.3410 C.2       1 LYS         0.2292
      4 O           3.5310  -17.0520   -7.8580 O.2       1 LYS        -0.3905
      5 CB          3.8640  -18.4330   -5.0040 C.3       1 LYS         0.0080
      6 CG          4.6070  -19.2880   -3.9870 C.3       1 LYS        -0.0410
      7 CD          6.0740  -18.9020   -3.8970 C.3       1 LYS        -0.0123
      8 CE          6.7010  -19.4490   -2.6230 C.3       1 LYS        -0.0354
      9 NZ          5.9900  -18.9740   -1.3920 N.4       1 LYS         0.2185
     10 N           1.7980  -18.4580   -7.5170 N.am      1 PRO        -0.2471
     11 CA          0.8510  -17.7010   -8.3430 C.3       1 PRO         0.1339
     12 C           0.5860  -16.3110   -7.7730 C.2       1 PRO         0.2041
     13 O           0.6790  -16.1110   -6.5610 O.2       1 PRO        -0.3944
     14 CB         -0.4230  -18.5510   -8.2790 C.3       1 PRO        -0.0104
     15 CG         -0.2930  -19.3400   -7.0170 C.3       1 PRO        -0.0281
     16 CD          1.1700  -19.6370   -6.8960 C.3       1 PRO         0.0371
     17 N           0.2600  -15.3620   -8.6430 N.am      1 LEU        -0.2637
     18 CA         -0.0110  -13.9970   -8.2100 C.3       1 LEU         0.1309
     19 C          -1.4580  -13.8410   -7.7510 C.2       1 LEU         0.1992
     20 O          -2.3870  -14.2840   -8.4290 O.2       1 LEU        -0.3947
     21 CB          0.3020  -13.0050   -9.3320 C.3       1 LEU        -0.0101
     22 CG          1.7320  -13.0520   -9.8730 C.3       1 LEU        -0.0425
     23 CD1         1.9310  -12.0060  -10.9590 C.3       1 LEU        -0.0625
     24 CD2         2.7410  -12.8640   -8.7480 C.3       1 LEU        -0.0625
     25 N          -1.6410  -13.2110   -6.5950 N.am      1 NH2        -0.2990
     26 H           5.3391  -19.3169   -7.8743 H         1 LYS         0.2015
     27 H           5.7056  -18.0324   -6.8780 H         1 LYS         0.2015
     28 H           5.8625  -19.5936   -6.3167 H         1 LYS         0.2015
     29 H           3.5540  -19.9646   -6.4812 H         1 LYS         0.1098
     30 H           2.8126  -18.4409   -4.7166 H         1 LYS         0.0346
     31 H           4.3328  -17.4490   -4.9934 H         1 LYS         0.0346
     32 H           4.5437  -20.3298   -4.3011 H         1 LYS         0.0270
     33 H           4.1501  -19.1352   -3.0093 H         1 LYS         0.0270
     34 H           6.1508  -17.8148   -3.8872 H         1 LYS         0.0317
     35 H           6.6003  -19.3205   -4.7549 H         1 LYS         0.0317
     36 H           7.7320  -19.0986   -2.5753 H         1 LYS         0.0813
     37 H           6.6362  -20.5366   -2.6534 H         1 LYS         0.0813
     38 H           6.4440  -19.3648   -0.5664 H         1 LYS         0.1994
     39 H           6.0265  -17.9555   -1.3514 H         1 LYS         0.1994
     40 H           5.0174  -19.2796   -1.4233 H         1 LYS         0.1994
     41 H           1.2224  -17.5363   -9.3544 H         1 PRO         0.0802
     42 H          -0.5246  -19.1959   -9.1519 H         1 PRO         0.0313
     43 H          -1.3222  -17.9349   -8.2813 H         1 PRO         0.0313
     44 H          -0.8896  -20.2517   -7.0468 H         1 PRO         0.0287
     45 H          -0.6662  -18.7878   -6.1545 H         1 PRO         0.0287
     46 H           1.4866  -19.7909   -5.8644 H         1 PRO         0.0524
     47 H           1.4535  -20.5716   -7.3800 H         1 PRO         0.0524
     48 H           0.1980  -15.5932   -9.6345 H         1 LEU         0.1883
     49 H           0.6377  -13.7807   -7.3612 H         1 LEU         0.0800
     50 H           0.1613  -12.0085   -8.9133 H         1 LEU         0.0315
     51 H          -0.3533  -13.2613  -10.1645 H         1 LEU         0.0315
     52 H           1.8971  -14.0347  -10.3147 H         1 LEU         0.0298
     53 H           1.2376  -12.1978  -11.7778 H         1 LEU         0.0232
     54 H           1.7425  -11.0150  -10.5461 H         1 LEU         0.0232
     55 H           2.9551  -12.0582  -11.3286 H         1 LEU         0.0232
     56 H           2.5761  -11.8977   -8.2715 H         1 LEU         0.0232
     57 H           2.6160  -13.6591   -8.0129 H         1 LEU         0.0232
     58 H           3.7506  -12.9012   -9.1572 H         1 LEU         0.0232
     59 H          -2.5844  -13.0758   -6.2316 H         1 NH2         0.1815
     60 H          -0.8380  -12.8627   -6.0713 H         1 NH2         0.1815
@<TRIPOS>BOND
     1    1    2 1  
     2    2    3 1  
     3    2    5 1  
     4    3    4 2  
     5    3   10 am 
     6    5    6 1  
     7    6    7 1  
     8    7    8 1  
     9    8    9 1  
    10   10   11 1  
    11   10   16 1  
    12   11   12 1  
    13   11   14 1  
    14   12   13 2  
    15   12   17 am 
    16   14   15 1  
    17   15   16 1  
    18   17   18 1  
    19   18   19 1  
    20   18   21 1  
    21   19   20 2  
    22   19   25 am 
    23   21   22 1  
    24   22   23 1  
    25   22   24 1  
    26    1   26 1  
    27    1   27 1  
    28    1   28 1  
    29    2   29 1  
    30    5   30 1  
    31    5   31 1  
    32    6   32 1  
    33    6   33 1  
    34    7   34 1  
    35    7   35 1  
    36    8   36 1  
    37    8   37 1  
    38    9   38 1  
    39    9   39 1  
    40    9   40 1  
    41   11   41 1  
    42   14   42 1  
    43   14   43 1  
    44   15   44 1  
    45   15   45 1  
    46   16   46 1  
    47   16   47 1  
    48   17   48 1  
    49   18   49 1  
    50   21   50 1  
    51   21   51 1  
    52   22   52 1  
    53   23   53 1  
    54   23   54 1  
    55   23   55 1  
    56   24   56 1  
    57   24   57 1  
    58   24   58 1  
    59   25   59 1  
    60   25   60 1  
@<TRIPOS>SUBSTRUCTURE
     1 LYS         1

