### 
### Created by X-TOOL on Mon Sep 10 21:13:06 2018
### 

@<TRIPOS>MOLECULE
3zyf_ligand
   36    37     1     0     0
SMALL
GAST_HUCK


@<TRIPOS>ATOM
      1 C1          9.5260    8.6690    9.7630 C.3       1 147         0.2111
      2 C2         10.8550    8.0270   10.0330 C.3       1 147         0.1388
      3 O2         11.7640    8.9780   10.5390 O.3       1 147        -0.3837
      4 C3         11.4020    7.4110    8.8320 C.3       1 147         0.1145
      5 O3         12.6350    6.7180    9.2240 O.3       1 147        -0.3864
      6 C4         10.4900    6.5160    8.2380 C.3       1 147         0.1119
      7 O4         10.3340    5.3310    9.0700 O.3       1 147        -0.3865
      8 C5          9.1420    7.1250    8.0180 C.3       1 147         0.1134
      9 C6          8.1760    6.0910    7.5210 C.3       1 147         0.0730
     10 O6          6.9930    6.5290    7.0080 O.3       1 147        -0.3924
     11 O5          8.6210    7.7650    9.2320 O.3       1 147        -0.3367
     12 O1'         9.0210    9.1850   10.9590 O.3       1 147        -0.2805
     13 C1'         8.0930   10.2620   10.6320 C.ar      1 147         0.1016
     14 C2'         7.9120   10.6290    9.3240 C.ar      1 147        -0.0239
     15 C3'         6.9980   11.6920    8.9950 C.ar      1 147        -0.0271
     16 C4'         6.3270   12.3190    9.9830 C.ar      1 147         0.1882
     17 C5'         6.5120   11.9420   11.3040 C.ar      1 147        -0.0271
     18 C6'         7.4140   10.8950   11.6250 C.ar      1 147        -0.0239
     19 N1'         5.3960   13.3880    9.6690 N.2       1 147         0.3062
     20 O2'         5.3250   13.8680    8.4230 O.2       1 147         0.1732
     21 O3'         4.5910   13.8340   10.5930 O.2       1 147         0.1732
     22 H1          9.6677    9.4900    9.0448 H         1 147         0.0996
     23 H2         10.7112    7.2421   10.7901 H         1 147         0.0675
     24 H3         11.4237    9.3401   11.3487 H         1 147         0.2101
     25 H4         11.6426    8.1972    8.1013 H         1 147         0.0648
     26 H5         13.2481    7.3461    9.5873 H         1 147         0.2100
     27 H6         10.8966    6.2137    7.2617 H         1 147         0.0647
     28 H7          9.7176    4.7361    8.6594 H         1 147         0.2100
     29 H8          9.2442    7.9004    7.2445 H         1 147         0.0647
     30 H9          7.9425    5.4258    8.3654 H         1 147         0.0584
     31 H10         8.6846    5.5175    6.7321 H         1 147         0.0584
     32 H11         6.4741    5.7833    6.7303 H         1 147         0.2095
     33 H12         8.4566   10.1193    8.5375 H         1 147         0.0561
     34 H13         6.8504   11.9859    7.9621 H         1 147         0.0666
     35 H14         5.9669   12.4477   12.0927 H         1 147         0.0666
     36 H15         7.5611   10.6010   12.6580 H         1 147         0.0561
@<TRIPOS>BOND
     1    1    2 1  
     2    1   11 1  
     3    1   12 1  
     4    2    3 1  
     5    2    4 1  
     6    4    5 1  
     7    4    6 1  
     8    6    7 1  
     9    6    8 1  
    10    8    9 1  
    11    8   11 1  
    12    9   10 1  
    13   12   13 1  
    14   13   14 ar 
    15   13   18 ar 
    16   14   15 ar 
    17   15   16 ar 
    18   16   17 ar 
    19   16   19 1  
    20   17   18 ar 
    21   19   20 2  
    22   19   21 2  
    23    1   22 1  
    24    2   23 1  
    25    3   24 1  
    26    4   25 1  
    27    5   26 1  
    28    6   27 1  
    29    7   28 1  
    30    8   29 1  
    31    9   30 1  
    32    9   31 1  
    33   10   32 1  
    34   14   33 1  
    35   15   34 1  
    36   17   35 1  
    37   18   36 1  
@<TRIPOS>SUBSTRUCTURE
     1 147         1

