### 
### Created by X-TOOL on Mon Sep 10 21:13:06 2018
### 

@<TRIPOS>MOLECULE
3zyh_ligand
   30    30     1     0     0
SMALL
GAST_HUCK


@<TRIPOS>ATOM
      1 C1          8.5580  -18.5960  -37.2060 C.3       1 G0S         0.1330
      2 C2          7.1480  -18.3790  -36.6890 C.3       1 G0S         0.1188
      3 O2          6.2600  -18.0540  -37.7430 O.3       1 G0S        -0.3857
      4 C3          7.1350  -17.3300  -35.6740 C.3       1 G0S         0.1126
      5 O3          5.9050  -16.7260  -35.2680 O.3       1 G0S        -0.3865
      6 C4          8.2240  -17.1740  -34.7790 C.3       1 G0S         0.1118
      7 O4          7.8640  -17.9760  -33.6440 O.3       1 G0S        -0.3865
      8 C5          9.5690  -17.5610  -35.3510 C.3       1 G0S         0.1115
      9 O5          9.4960  -18.7680  -36.1890 O.3       1 G0S        -0.3553
     10 C6         10.5740  -17.7560  -34.3180 C.3       1 G0S         0.0730
     11 O6         11.8690  -17.9300  -34.7750 O.3       1 G0S        -0.3924
     12 S1          8.5580  -20.0040  -38.2580 S.3       1 G0S        -0.1274
     13 C1A         9.8530  -19.6770  -39.4160 C.3       1 G0S        -0.0067
     14 C2A         9.7330  -18.4470  -40.2590 C.3       1 G0S        -0.0561
     15 H           8.8528  -17.6976  -37.7482 H         1 G0S         0.0740
     16 H           6.8085  -19.3113  -36.2377 H         1 G0S         0.0655
     17 H           6.5564  -17.2483  -38.1727 H         1 G0S         0.2100
     18 H           7.4397  -16.6540  -36.4729 H         1 G0S         0.0647
     19 H           5.4866  -16.3132  -36.0271 H         1 G0S         0.2100
     20 H           8.3707  -16.1229  -34.5303 H         1 G0S         0.0647
     21 H           8.5586  -17.9236  -32.9833 H         1 G0S         0.2100
     22 H           9.8679  -16.7196  -35.9761 H         1 G0S         0.0646
     23 H          10.3046  -18.6709  -33.7903 H         1 G0S         0.0584
     24 H          10.5769  -16.8502  -33.7116 H         1 G0S         0.0584
     25 H          12.4578  -18.0504  -34.0265 H         1 G0S         0.2095
     26 H           9.8393  -20.5135  -40.1147 H         1 G0S         0.0374
     27 H          10.7526  -19.5351  -38.8171 H         1 G0S         0.0374
     28 H           8.8215  -18.5034  -40.8541 H         1 G0S         0.0238
     29 H           9.6939  -17.5688  -39.6146 H         1 G0S         0.0238
     30 H          10.5964  -18.3757  -40.9204 H         1 G0S         0.0238
@<TRIPOS>BOND
     1    1    2 1  
     2    1    9 1  
     3    1   12 1  
     4    2    3 1  
     5    2    4 1  
     6    4    5 1  
     7    4    6 1  
     8    6    7 1  
     9    6    8 1  
    10    8    9 1  
    11    8   10 1  
    12   10   11 1  
    13   12   13 1  
    14   13   14 1  
    15    1   15 1  
    16    2   16 1  
    17    3   17 1  
    18    4   18 1  
    19    5   19 1  
    20    6   20 1  
    21    7   21 1  
    22    8   22 1  
    23   10   23 1  
    24   10   24 1  
    25   11   25 1  
    26   13   26 1  
    27   13   27 1  
    28   14   28 1  
    29   14   29 1  
    30   14   30 1  
@<TRIPOS>SUBSTRUCTURE
     1 G0S         1

