### 
### Created by X-TOOL on Mon Sep 10 21:13:05 2018
### 

@<TRIPOS>MOLECULE
3zyu_ligand
   52    56     1     0     0
SMALL
GAST_HUCK


@<TRIPOS>ATOM
      1 O2          3.0300   -5.5000   26.5480 O.2       1 1GH        -0.3948
      2 C13         2.6320   -5.5910   25.3960 C.2       1 1GH         0.3170
      3 N1          2.2270   -6.7570   24.7660 N.am      1 1GH        -0.1798
      4 C6          2.2600   -8.0600   25.5120 C.3       1 1GH         0.1161
      5 C8          0.9120   -8.7100   25.6100 C.ar      1 1GH         0.0598
      6 N2          0.8900  -10.0500   25.6340 N.ar      1 1GH        -0.2951
      7 C12        -0.3100  -10.6330   25.7260 C.ar      1 1GH         0.0029
      8 C11        -1.4940   -9.9390   25.7970 C.ar      1 1GH        -0.0410
      9 C10        -1.4400   -8.5700   25.7750 C.ar      1 1GH        -0.0488
     10 C9         -0.2250   -7.9350   25.6800 C.ar      1 1GH        -0.0295
     11 C7          3.3030   -8.9940   24.9390 C.3       1 1GH        -0.0232
     12 N3          2.4940   -4.6040   24.4940 N.am      1 1GH        -0.2178
     13 C14         2.0100   -5.1120   23.3020 C.ar      1 1GH         0.1129
     14 C5          1.8370   -6.4610   23.4520 C.ar      1 1GH         0.1198
     15 C15         1.7100   -4.4880   22.0980 C.ar      1 1GH         0.0074
     16 N4          1.2490   -5.1640   21.0590 N.ar      1 1GH        -0.3403
     17 C16         1.0630   -6.4990   21.1690 C.ar      1 1GH         0.0035
     18 C4          1.3420   -7.2330   22.3590 C.ar      1 1GH         0.0071
     19 C3          1.1270   -8.5970   22.3820 C.ar      1 1GH        -0.0324
     20 C17         0.5670   -7.1870   20.0370 C.ar      1 1GH        -0.0602
     21 C18         0.3610   -8.5440   20.0960 C.ar      1 1GH        -0.0069
     22 C2          0.6420   -9.2410   21.2770 C.ar      1 1GH         0.0898
     23 O1          0.3820  -10.5830   21.1950 O.3       1 1GH        -0.3235
     24 C1          0.7890  -11.4090   22.2810 C.3       1 1GH         0.0588
     25 C19        -0.1960   -9.2380   18.9130 C.2       1 1GH         0.0202
     26 C22         0.3550  -10.3020   18.2760 C.2       1 1GH         0.1448
     27 C23         1.5890  -11.0780   18.4810 C.3       1 1GH         0.0123
     28 O3         -0.4440  -10.6920   17.2430 O.3       1 1GH        -0.1746
     29 N5         -1.5400   -9.8320   17.2370 N.2       1 1GH        -0.1678
     30 C20        -1.4020   -8.9550   18.2310 C.2       1 1GH         0.0226
     31 C21        -2.2990   -7.9910   18.4840 C.3       1 1GH        -0.0271
     32 H1          2.5711   -7.8275   26.5411 H         1 1GH         0.0827
     33 H2         -0.3512  -11.7160   25.7457 H         1 1GH         0.0803
     34 H3         -2.4424  -10.4591   25.8683 H         1 1GH         0.0652
     35 H4         -2.3535   -7.9893   25.8324 H         1 1GH         0.0719
     36 H5         -0.1628   -6.8530   25.6606 H         1 1GH         0.0652
     37 H6          3.3020   -9.9367   25.5058 H         1 1GH         0.0283
     38 H7          4.2950   -8.5242   25.0107 H         1 1GH         0.0283
     39 H8          3.0704   -9.2003   23.8839 H         1 1GH         0.0283
     40 H9          2.7100   -3.6419   24.6606 H         1 1GH         0.2246
     41 H10         1.8577   -3.4179   22.0075 H         1 1GH         0.0689
     42 H11         1.3441   -9.1611   23.2819 H         1 1GH         0.0484
     43 H12         0.3497   -6.6442   19.1242 H         1 1GH         0.0493
     44 H13         0.5137  -12.4530   22.0708 H         1 1GH         0.0577
     45 H14         0.2886  -11.0763   23.2024 H         1 1GH         0.0577
     46 H15         1.8791  -11.3359   22.4088 H         1 1GH         0.0577
     47 H16         1.6519  -11.8735   17.7239 H         1 1GH         0.0466
     48 H17         1.5770  -11.5275   19.4849 H         1 1GH         0.0466
     49 H18         2.4602  -10.4130   18.3873 H         1 1GH         0.0466
     50 H19        -3.1223   -8.0564   17.7575 H         1 1GH         0.0379
     51 H20        -1.8137   -7.0074   18.4005 H         1 1GH         0.0379
     52 H21        -2.6970   -8.1183   19.5015 H         1 1GH         0.0379
@<TRIPOS>BOND
     1    1    2 2  
     2    2    3 am 
     3    2   12 am 
     4    3    4 1  
     5    3   14 1  
     6    4    5 1  
     7    4   11 1  
     8    5    6 ar 
     9    5   10 ar 
    10    6    7 ar 
    11    7    8 ar 
    12    8    9 ar 
    13    9   10 ar 
    14   12   13 1  
    15   13   14 ar 
    16   13   15 ar 
    17   14   18 ar 
    18   15   16 ar 
    19   16   17 ar 
    20   17   18 ar 
    21   17   20 ar 
    22   18   19 ar 
    23   19   22 ar 
    24   20   21 ar 
    25   21   22 ar 
    26   21   25 1  
    27   22   23 1  
    28   23   24 1  
    29   25   26 2  
    30   25   30 1  
    31   26   27 1  
    32   26   28 1  
    33   28   29 1  
    34   29   30 2  
    35   30   31 1  
    36    4   32 1  
    37    7   33 1  
    38    8   34 1  
    39    9   35 1  
    40   10   36 1  
    41   11   37 1  
    42   11   38 1  
    43   11   39 1  
    44   12   40 1  
    45   15   41 1  
    46   19   42 1  
    47   20   43 1  
    48   24   44 1  
    49   24   45 1  
    50   24   46 1  
    51   27   47 1  
    52   27   48 1  
    53   27   49 1  
    54   31   50 1  
    55   31   51 1  
    56   31   52 1  
@<TRIPOS>SUBSTRUCTURE
     1 1GH         1

