### 
### Created by X-TOOL on Mon Sep 10 21:13:06 2018
### 

@<TRIPOS>MOLECULE
3zze_ligand
   44    46     1     0     0
SMALL
GAST_HUCK


@<TRIPOS>ATOM
      1 C50        19.7130    7.1210    8.2550 C.3       1 6XP        -0.0370
      2 C2         16.9290    8.1040    7.8770 C.ar      1 6XP        -0.0661
      3 C6         17.5310    8.4050    5.4870 C.ar      1 6XP        -0.0661
      4 C3         15.5250    8.1100    7.5120 C.ar      1 6XP        -0.0394
      5 C5         16.1480    8.4120    5.1220 C.ar      1 6XP        -0.0394
      6 C19        19.9560    9.5880    7.8300 C.2       1 6XP         0.2255
      7 C24        21.1430   14.8090    1.3270 C.3       1 6XP        -0.0364
      8 C20        19.4560    8.2530    7.2430 C.3       1 6XP         0.0782
      9 N13        20.9090   13.6360    4.1290 N.am      1 6XP        -0.2336
     10 N17        20.1210   10.4080    5.5880 N.4       1 6XP         0.3885
     11 N18        20.3730   10.5830    6.9720 N.am      1 6XP        -0.2493
     12 O16        20.8300   13.1160    6.3960 O.2       1 6XP        -0.3837
     13 O21        19.9710    9.7730    9.0510 O.2       1 6XP        -0.3895
     14 O22        13.8350    8.2710    5.7940 O.3       1 6XP        -0.3374
     15 CL2        19.6810    8.9150    2.5140 Cl        1 6XP        -0.0867
     16 C1         17.9610    8.2510    6.8590 C.ar      1 6XP        -0.0321
     17 C4         15.1550    8.2650    6.1330 C.ar      1 6XP         0.0809
     18 C8         20.5250   12.4290    0.6130 C.ar      1 6XP        -0.0791
     19 C7         20.1740   11.0110    0.9300 C.ar      1 6XP        -0.0755
     20 C11        20.3470   11.4960    3.3590 C.ar      1 6XP         0.0549
     21 C9         20.7860   13.3760    1.6000 C.ar      1 6XP        -0.0289
     22 C15        20.3610   11.4340    4.7020 C.3       1 6XP         0.1251
     23 C10        20.0880   10.5640    2.2350 C.ar      1 6XP         0.0293
     24 C12        20.7030   12.9230    3.0700 C.ar      1 6XP         0.0806
     25 C14        20.7230   12.8080    5.2020 C.2       1 6XP         0.2563
     26 H1         20.7767    7.1142    8.5351 H         1 6XP         0.0276
     27 H2         19.4474    6.1553    7.8002 H         1 6XP         0.0276
     28 H3         19.0986    7.2850    9.1525 H         1 6XP         0.0276
     29 H4         17.2130    7.9891    8.9168 H         1 6XP         0.0534
     30 H5         18.2797    8.5186    4.7114 H         1 6XP         0.0534
     31 H6         14.7617    7.9984    8.2736 H         1 6XP         0.0526
     32 H7         15.8577    8.5283    4.0841 H         1 6XP         0.0526
     33 H8         21.1632   14.9813    0.2408 H         1 6XP         0.0361
     34 H9         22.1341   15.0272    1.7513 H         1 6XP         0.0361
     35 H10        20.3932   15.4681    1.7889 H         1 6XP         0.0361
     36 H11        20.0371    8.0505    6.3312 H         1 6XP         0.0673
     37 H12        21.1562   14.6045    4.1580 H         1 6XP         0.2233
     38 H13        19.1453   10.1712    5.4991 H         1 6XP         0.2323
     39 H14        20.6847    9.6283    5.2875 H         1 6XP         0.2323
     40 H15        20.8372   11.4000    7.3140 H         1 6XP         0.2384
     41 H16        13.6201    9.0970    5.3770 H         1 6XP         0.2459
     42 H17        20.5785   12.7321   -0.4264 H         1 6XP         0.0463
     43 H18        19.9827   10.3181    0.1186 H         1 6XP         0.0463
     44 H19        19.2825   11.6489    4.7281 H         1 6XP         0.1253
@<TRIPOS>BOND
     1    8    1 1  
     2    2    4 ar 
     3   16    2 ar 
     4    3    5 ar 
     5   16    3 ar 
     6    4   17 ar 
     7    5   17 ar 
     8    6    8 1  
     9   11    6 am 
    10    6   13 2  
    11   21    7 1  
    12    8   16 1  
    13   24    9 1  
    14    9   25 am 
    15   10   11 1  
    16   22   10 1  
    17   25   12 2  
    18   17   14 1  
    19   23   15 1  
    20   19   18 ar 
    21   18   21 ar 
    22   23   19 ar 
    23   20   22 1  
    24   20   23 ar 
    25   20   24 ar 
    26   21   24 ar 
    27   22   25 1  
    28    1   26 1  
    29    1   27 1  
    30    1   28 1  
    31    2   29 1  
    32    3   30 1  
    33    4   31 1  
    34    5   32 1  
    35    7   33 1  
    36    7   34 1  
    37    7   35 1  
    38    8   36 1  
    39    9   37 1  
    40   10   38 1  
    41   10   39 1  
    42   11   40 1  
    43   14   41 1  
    44   18   42 1  
    45   19   43 1  
    46   22   44 1  
@<TRIPOS>SUBSTRUCTURE
     1 6XP         1

