### 
### Created by X-TOOL on Mon Sep 10 21:13:09 2018
### 

@<TRIPOS>MOLECULE
3zzf_ligand
   22    21     1     0     0
SMALL
GAST_HUCK


@<TRIPOS>ATOM
      1 CA          6.3750   32.3070    2.4190 C.3       1 NLG         0.0958
      2 C           7.5560   31.7840    1.5760 C.2       1 NLG         0.0602
      3 OXT         8.6130   32.4600    1.6000 O.co2     1 NLG        -0.5666
      4 O           7.3940   30.7200    0.9280 O.co2     1 NLG        -0.5666
      5 CB          6.3780   31.6520    3.8030 C.3       1 NLG        -0.0064
      6 CG          7.7310   31.7390    4.5120 C.3       1 NLG         0.0038
      7 CD          7.9290   33.0690    5.2440 C.2       1 NLG         0.0350
      8 OE1         9.0660   33.2520    5.7170 O.co2     1 NLG        -0.5690
      9 OE2         6.9720   33.8800    5.2850 O.co2     1 NLG        -0.5690
     10 C7          4.4860   32.6870    0.8540 C.2       1 NLG         0.1746
     11 C8          3.2690   32.2260    0.3460 C.3       1 NLG         0.0258
     12 O7          4.9360   33.7430    0.4210 O.2       1 NLG        -0.3973
     13 N2          5.0950   31.9550    1.7810 N.am      1 NLG        -0.2715
     14 H1          6.4564   33.3993    2.5202 H         1 NLG         0.0727
     15 H2          6.1123   30.5909    3.6874 H         1 NLG         0.0323
     16 H3          5.6239   32.1529    4.4278 H         1 NLG         0.0323
     17 H4          8.5288   31.6272    3.7630 H         1 NLG         0.0432
     18 H5          7.7981   30.9208    5.2442 H         1 NLG         0.0432
     19 H6          3.0052   31.2753    0.8324 H         1 NLG         0.0467
     20 H7          3.3601   32.0698   -0.7390 H         1 NLG         0.0467
     21 H8          2.4834   32.9698    0.5447 H         1 NLG         0.0467
     22 H9          4.6527   31.1045    2.0657 H         1 NLG         0.1875
@<TRIPOS>BOND
     1    1    2 1  
     2    1    5 1  
     3   13    1 1  
     4    2    3 ar 
     5    2    4 ar 
     6    5    6 1  
     7    6    7 1  
     8    7    8 ar 
     9    7    9 ar 
    10   10   11 1  
    11   10   12 2  
    12   10   13 am 
    13    1   14 1  
    14    5   15 1  
    15    5   16 1  
    16    6   17 1  
    17    6   18 1  
    18   11   19 1  
    19   11   20 1  
    20   11   21 1  
    21   13   22 1  
@<TRIPOS>SUBSTRUCTURE
     1 NLG         1

