### 
### Created by X-TOOL on Mon Sep 10 21:13:09 2018
### 

@<TRIPOS>MOLECULE
3zzh_ligand
   27    26     1     0     0
SMALL
GAST_HUCK


@<TRIPOS>ATOM
      1 N         -29.5550   47.8070  -67.8570 N.4       1 ARG         0.2327
      2 CA        -30.8490   48.3810  -68.3280 C.3       1 ARG         0.0284
      3 C         -31.5870   47.3650  -69.1780 C.2       1 ARG         0.0844
      4 O         -32.7750   47.5220  -69.4520 O.co2     1 ARG        -0.5643
      5 CB        -30.6190   49.6610  -69.1430 C.3       1 ARG         0.0055
      6 CG        -29.6950   49.4870  -70.3420 C.3       1 ARG        -0.0131
      7 CD        -29.5850   50.7620  -71.1760 C.3       1 ARG         0.0628
      8 NE        -28.8030   50.5440  -72.3930 N.pl3     1 ARG        -0.2723
      9 CZ        -28.4480   51.5010  -73.2510 C.cat     1 ARG         0.2882
     10 NH1       -28.8050   52.7670  -73.0470 N.pl3     1 ARG        -0.2849
     11 NH2       -27.7270   51.1880  -74.3240 N.pl3     1 ARG        -0.2849
     12 OXT       -30.9960   46.3790  -69.6170 O.co2     1 ARG        -0.5643
     13 H1        -29.0708   48.4879  -67.2931 H         1 ARG         0.2010
     14 H2        -28.9859   47.5638  -68.6526 H         1 ARG         0.2010
     15 H3        -29.7340   46.9815  -67.3070 H         1 ARG         0.2010
     16 H4        -31.4648   48.6270  -67.4504 H         1 ARG         0.1024
     17 H5        -30.1795   50.4183  -68.4772 H         1 ARG         0.0340
     18 H6        -31.5939   50.0157  -69.5088 H         1 ARG         0.0340
     19 H7        -30.0884   48.6805  -70.9782 H         1 ARG         0.0302
     20 H8        -28.6930   49.2130  -69.9802 H         1 ARG         0.0302
     21 H9        -29.0969   51.5419  -70.5731 H         1 ARG         0.0689
     22 H10       -30.5957   51.0937  -71.4559 H         1 ARG         0.0689
     23 H11       -28.5048   49.5806  -72.6025 H         1 ARG         0.2642
     24 H12       -28.5237   53.4959  -73.7181 H         1 ARG         0.2615
     25 H13       -29.3625   53.0177  -72.2180 H         1 ARG         0.2615
     26 H14       -27.4468   50.2107  -74.4890 H         1 ARG         0.2615
     27 H15       -27.4489   51.9229  -74.9899 H         1 ARG         0.2615
@<TRIPOS>BOND
     1    1    2 1  
     2    2    3 1  
     3    2    5 1  
     4    3    4 ar 
     5    3   12 ar 
     6    5    6 1  
     7    6    7 1  
     8    7    8 1  
     9    8    9 ar 
    10    9   10 ar 
    11    9   11 ar 
    12    1   13 1  
    13    1   14 1  
    14    1   15 1  
    15    2   16 1  
    16    5   17 1  
    17    5   18 1  
    18    6   19 1  
    19    6   20 1  
    20    7   21 1  
    21    7   22 1  
    22    8   23 1  
    23   10   24 1  
    24   10   25 1  
    25   11   26 1  
    26   11   27 1  
@<TRIPOS>SUBSTRUCTURE
     1 ARG         1

