### 
### Created by X-TOOL on Mon Sep 10 21:12:47 2018
### 

@<TRIPOS>MOLECULE
456c_ligand
   48    50     1     0     0
SMALL
GAST_HUCK


@<TRIPOS>ATOM
      1 C1         -8.2050   26.4530   50.6170 C.ar      1 CBP         0.1165
      2 C2         -9.5010   26.2820   50.1420 C.ar      1 CBP        -0.0278
      3 C3         -9.8810   26.8440   48.9250 C.ar      1 CBP        -0.0557
      4 C4         -8.9300   27.5900   48.2270 C.ar      1 CBP         0.0292
      5 C5         -7.6420   27.7990   48.7010 C.ar      1 CBP        -0.0557
      6 C6         -7.2760   27.2160   49.9030 C.ar      1 CBP        -0.0278
      7 O11        -7.8700   25.7800   51.7780 O.3       1 CBP        -0.2576
      8 C12        -7.2370   26.4150   52.8450 C.ar      1 CBP         0.1164
      9 C13        -6.8490   25.5710   53.8770 C.ar      1 CBP        -0.0266
     10 C14        -6.3180   26.0780   55.0490 C.ar      1 CBP        -0.0448
     11 C15        -6.1830   27.4460   55.1960 C.ar      1 CBP         0.0784
     12 C16        -6.5050   28.3000   54.1530 C.ar      1 CBP        -0.0448
     13 C17        -7.0270   27.7940   52.9740 C.ar      1 CBP        -0.0266
     14 S22        -5.6130   28.1620   56.7250 S.o2      1 CBP         0.0003
     15 O23        -5.6520   27.1610   57.7450 O.2       1 CBP        -0.1700
     16 O24        -6.4490   29.3070   56.9080 O.2       1 CBP        -0.1700
     17 C25        -3.8810   28.7010   56.5780 C.3       1 CBP         0.1122
     18 C26        -3.6280   29.6000   57.8350 C.3       1 CBP        -0.0018
     19 C27        -2.3980   30.5270   57.7130 C.3       1 CBP         0.0498
     20 O28        -2.4130   31.2060   56.4750 O.3       1 CBP        -0.3796
     21 C29        -2.4250   30.3770   55.3210 C.3       1 CBP         0.0498
     22 C30        -3.7240   29.5820   55.3110 C.3       1 CBP        -0.0018
     23 C39        -2.9130   27.4700   56.6050 C.3       1 CBP         0.0644
     24 C40        -2.8230   26.5310   55.3820 C.2       1 CBP         0.2009
     25 N43        -2.9440   25.2310   55.6160 N.am      1 CBP        -0.1642
     26 O44        -2.5970   26.9030   54.2270 O.2       1 CBP        -0.3969
     27 O45        -2.5660   24.3950   54.5570 O.3       1 CBP        -0.2717
     28 CL4        -9.3320   28.2410   46.6920 Cl        1 CBP        -0.0804
     29 H1        -10.2175   25.7099   50.7203 H         1 CBP         0.0553
     30 H2        -10.8823   26.7064   48.5332 H         1 CBP         0.0597
     31 H3         -6.9380   28.4053   48.1426 H         1 CBP         0.0597
     32 H4         -6.2721   27.3509   50.2891 H         1 CBP         0.0553
     33 H5         -6.9640   24.4992   53.7624 H         1 CBP         0.0553
     34 H6         -6.0106   25.4092   55.8448 H         1 CBP         0.0609
     35 H7         -6.3479   29.3672   54.2602 H         1 CBP         0.0609
     36 H8         -7.2717   28.4614   52.1556 H         1 CBP         0.0553
     37 H9         -3.4800   28.9432   58.7049 H         1 CBP         0.0310
     38 H10        -4.5176   30.2266   57.9958 H         1 CBP         0.0310
     39 H11        -1.4811   29.9235   57.7840 H         1 CBP         0.0560
     40 H12        -2.4167   31.2632   58.5301 H         1 CBP         0.0560
     41 H13        -1.5683   29.6877   55.3503 H         1 CBP         0.0560
     42 H14        -2.3640   30.9995   54.4162 H         1 CBP         0.0560
     43 H15        -4.5689   30.2845   55.2610 H         1 CBP         0.0310
     44 H16        -3.7346   28.9318   54.4238 H         1 CBP         0.0310
     45 H17        -3.2138   26.8483   57.4611 H         1 CBP         0.0523
     46 H18        -1.9010   27.8655   56.7767 H         1 CBP         0.0523
     47 H19        -3.2812   24.8729   56.4867 H         1 CBP         0.2216
     48 H20        -2.6853   23.4879   54.8129 H         1 CBP         0.2490
@<TRIPOS>BOND
     1    1    7 1  
     2    1    6 ar 
     3    1    2 ar 
     4    2    3 ar 
     5    3    4 ar 
     6    4    5 ar 
     7    5    6 ar 
     8    7    8 1  
     9    8   13 ar 
    10    8    9 ar 
    11    9   10 ar 
    12   10   11 ar 
    13   11   14 1  
    14   11   12 ar 
    15   12   13 ar 
    16   14   17 1  
    17   14   16 2  
    18   14   15 2  
    19   17   23 1  
    20   17   22 1  
    21   17   18 1  
    22   18   19 1  
    23    4   28 1  
    24   19   20 1  
    25   20   21 1  
    26   21   22 1  
    27   23   24 1  
    28   24   26 2  
    29   24   25 am 
    30   25   27 1  
    31    2   29 1  
    32    3   30 1  
    33    5   31 1  
    34    6   32 1  
    35    9   33 1  
    36   10   34 1  
    37   12   35 1  
    38   13   36 1  
    39   18   37 1  
    40   18   38 1  
    41   19   39 1  
    42   19   40 1  
    43   21   41 1  
    44   21   42 1  
    45   22   43 1  
    46   22   44 1  
    47   23   45 1  
    48   23   46 1  
    49   25   47 1  
    50   27   48 1  
@<TRIPOS>SUBSTRUCTURE
     1 CBP         1

