### 
### Created by X-TOOL on Mon Sep 10 21:13:08 2018
### 

@<TRIPOS>MOLECULE
4a16_ligand
   56    60     1     0     0
SMALL
GAST_HUCK


@<TRIPOS>ATOM
      1 CAN         9.9540  -25.1650   92.7710 C.3       1 H34        -0.0183
      2 CBC         8.9140  -25.7680   93.6680 C.3       1 H34         0.0005
      3 CAP         7.9590  -26.6780   92.7630 C.3       1 H34        -0.0333
      4 CAY         8.2410  -24.6940   94.2720 C.ar      1 H34         0.0103
      5 CAV         8.8500  -24.0130   95.3490 C.ar      1 H34         0.0669
      6 NAA        10.0410  -24.4210   95.8160 N.pl3     1 H34        -0.3283
      7 CBA         8.2060  -22.9470   95.9810 C.ar      1 H34         0.0195
      8 CAF         8.7760  -22.2840   97.0860 C.ar      1 H34        -0.0525
      9 CAE         8.0960  -21.1870   97.6650 C.ar      1 H34        -0.0494
     10 CAU         6.8370  -20.8130   97.1280 C.ar      1 H34         0.0385
     11 CL1         5.9460  -19.4960   97.7470 Cl        1 H34        -0.0699
     12 CAG         6.2570  -21.4880   96.0300 C.ar      1 H34        -0.0382
     13 CAZ         6.9380  -22.5680   95.4520 C.ar      1 H34         0.0183
     14 NAS         6.3620  -23.2200   94.4230 N.ar      1 H34        -0.3279
     15 CAX         6.9550  -24.2780   93.8220 C.ar      1 H34         0.0124
     16 CAO         6.2810  -24.9060   92.7070 C.3       1 H34        -0.0021
     17 CBB         7.2470  -25.7510   91.8260 C.3       1 H34        -0.0218
     18 CAD         8.1560  -24.9480   91.0650 C.2       1 H34        -0.1032
     19 CAT         9.4440  -24.6320   91.5210 C.2       1 H34        -0.0788
     20 CAL        10.3090  -23.7750   90.7170 C.3       1 H34        -0.0281
     21 CAJ        10.9170  -22.5510   91.5570 C.3       1 H34        -0.0419
     22 CAK        11.7330  -21.5960   90.7100 C.3       1 H34        -0.0208
     23 CAM        12.2980  -20.4650   91.6050 C.3       1 H34         0.0756
     24 NBD        13.2600  -19.6590   90.7980 N.pl3     1 H34        -0.1812
     25 CAH        14.5910  -19.7580   90.8050 C.2       1 H34         0.0716
     26 NAR        12.9430  -18.7640   89.8960 N.2       1 H34        -0.1019
     27 NAQ        14.0410  -18.2780   89.3220 N.2       1 H34        -0.2242
     28 CAW        15.0490  -18.9070   89.8940 C.2       1 H34         0.0622
     29 CAI        16.4920  -18.6410   89.5470 C.3       1 H34         0.0790
     30 OAB        16.5460  -17.2730   89.1730 O.3       1 H34        -0.3862
     31 H1         10.6948  -25.9430   92.5344 H         1 H34         0.0431
     32 H2         10.4443  -24.3460   93.3176 H         1 H34         0.0431
     33 H3          9.3835  -26.3916   94.4430 H         1 H34         0.0444
     34 H4          7.2328  -27.2110   93.3943 H         1 H34         0.0305
     35 H5          8.5558  -27.4069   92.1951 H         1 H34         0.0305
     36 H6         10.5306  -25.2056   95.3626 H         1 H34         0.1779
     37 H7         10.4649  -23.9494   96.6276 H         1 H34         0.1779
     38 H8          9.7275  -22.6118   97.4889 H         1 H34         0.0636
     39 H9          8.5265  -20.6449   98.4992 H         1 H34         0.0590
     40 H10         5.2959  -21.1738   95.6392 H         1 H34         0.0596
     41 H11         5.8279  -24.1225   92.0819 H         1 H34         0.0470
     42 H12         5.4920  -25.5654   93.0977 H         1 H34         0.0470
     43 H13         6.6527  -26.3455   91.1165 H         1 H34         0.0401
     44 H14         7.8352  -24.5685   90.0960 H         1 H34         0.0247
     45 H15         9.7232  -23.3703   89.8785 H         1 H34         0.0411
     46 H16        11.1396  -24.3806   90.3255 H         1 H34         0.0411
     47 H17        11.5639  -22.9568   92.3487 H         1 H34         0.0287
     48 H18        10.0863  -21.9923   92.0127 H         1 H34         0.0287
     49 H19        11.0927  -21.1601   89.9290 H         1 H34         0.0296
     50 H20        12.5646  -22.1416   90.2402 H         1 H34         0.0296
     51 H21        12.8154  -20.9013   92.4721 H         1 H34         0.0648
     52 H22        11.4763  -19.8221   91.9536 H         1 H34         0.0648
     53 H23        15.1884  -20.4126   91.4379 H         1 H34         0.0899
     54 H24        16.8107  -19.2809   88.7110 H         1 H34         0.0674
     55 H25        17.1375  -18.8271   90.4180 H         1 H34         0.0674
     56 H26        15.9766  -17.1272   88.4267 H         1 H34         0.2118
@<TRIPOS>BOND
     1    1    2 1  
     2    1   19 1  
     3    2    3 1  
     4    2    4 1  
     5    3   17 1  
     6    4    5 ar 
     7    4   15 ar 
     8    5    6 1  
     9    5    7 ar 
    10    7    8 ar 
    11    7   13 ar 
    12    8    9 ar 
    13    9   10 ar 
    14   10   11 1  
    15   10   12 ar 
    16   12   13 ar 
    17   13   14 ar 
    18   14   15 ar 
    19   15   16 1  
    20   16   17 1  
    21   17   18 1  
    22   18   19 2  
    23   19   20 1  
    24   20   21 1  
    25   21   22 1  
    26   22   23 1  
    27   23   24 1  
    28   24   25 1  
    29   24   26 1  
    30   25   28 2  
    31   26   27 2  
    32   27   28 1  
    33   28   29 1  
    34   29   30 1  
    35    1   31 1  
    36    1   32 1  
    37    2   33 1  
    38    3   34 1  
    39    3   35 1  
    40    6   36 1  
    41    6   37 1  
    42    8   38 1  
    43    9   39 1  
    44   12   40 1  
    45   16   41 1  
    46   16   42 1  
    47   17   43 1  
    48   18   44 1  
    49   20   45 1  
    50   20   46 1  
    51   21   47 1  
    52   21   48 1  
    53   22   49 1  
    54   22   50 1  
    55   23   51 1  
    56   23   52 1  
    57   25   53 1  
    58   29   54 1  
    59   29   55 1  
    60   30   56 1  
@<TRIPOS>SUBSTRUCTURE
     1 H34         1

