### 
### Created by X-TOOL on Mon Sep 10 21:13:05 2018
### 

@<TRIPOS>MOLECULE
4a23_ligand
   33    33     1     0     0
SMALL
GAST_HUCK


@<TRIPOS>ATOM
      1 O16        29.9990   21.3310   10.5810 O.2       1 C56        -0.3048
      2 C15        30.7600   22.2710   10.7700 C.2       1 C56         0.3240
      3 C2         31.8940   22.4740    9.7840 C.ar      1 C56         0.2504
      4 C3         32.9430   23.3900    9.9280 C.ar      1 C56         0.2662
      5 O13        33.0660   24.2280   11.0080 O.3       1 C56        -0.2426
      6 C14        34.3360   24.8490   11.2090 C.3       1 C56         0.0871
      7 C4         33.9350   23.4990    8.9600 C.ar      1 C56         0.1362
      8 C5         33.9180   22.6940    7.8400 C.ar      1 C56         0.2676
      9 N10        34.9470   22.8820    6.8950 N.pl3     1 C56        -0.2089
     10 C12        36.1440   23.6680    7.1720 C.3       1 C56         0.0661
     11 C11        34.9270   22.3110    5.5600 C.3       1 C56         0.0661
     12 C6         32.8670   21.7900    7.6960 C.ar      1 C56         0.2838
     13 N7         32.7390   20.9330    6.6100 N.2       1 C56        -0.1112
     14 O9         33.4540   19.7460    6.6660 O.2       1 C56        -0.4421
     15 O8         31.9840   21.2190    5.6980 O.2       1 C56        -0.4421
     16 C1         31.8760   21.6810    8.6540 C.ar      1 C56         0.1506
     17 N17        30.5640   23.0840   11.8150 N.am      1 C56        -0.2688
     18 C18        29.4630   22.8650   12.7470 C.3       1 C56         0.0208
     19 H1         34.2939   25.4888   12.1028 H         1 C56         0.0640
     20 H2         34.5876   25.4619   10.3309 H         1 C56         0.0640
     21 H3         35.1048   24.0748   11.3483 H         1 C56         0.0640
     22 H4         34.7304   24.2245    9.0868 H         1 C56         0.0810
     23 H5         36.7956   23.6684    6.2857 H         1 C56         0.0637
     24 H6         36.6833   23.2271    8.0233 H         1 C56         0.0637
     25 H7         35.8559   24.7012    7.4157 H         1 C56         0.0637
     26 H8         34.0004   21.7345    5.4217 H         1 C56         0.0637
     27 H9         35.7945   21.6469    5.4322 H         1 C56         0.0637
     28 H10        34.9708   23.1190    4.8149 H         1 C56         0.0637
     29 H11        31.0749   20.9639    8.5161 H         1 C56         0.1161
     30 H12        31.1835   23.8556   11.9596 H         1 C56         0.1857
     31 H13        29.4828   23.6408   13.5266 H         1 C56         0.0483
     32 H14        29.5686   21.8742   13.2129 H         1 C56         0.0483
     33 H15        28.5076   22.9150   12.2042 H         1 C56         0.0483
@<TRIPOS>BOND
     1    1    2 2  
     2    2    3 1  
     3    2   17 am 
     4    3    4 ar 
     5    3   16 ar 
     6    4    5 1  
     7    4    7 ar 
     8    5    6 1  
     9    7    8 ar 
    10    8    9 1  
    11    8   12 ar 
    12    9   10 1  
    13    9   11 1  
    14   12   13 1  
    15   12   16 ar 
    16   13   14 2  
    17   13   15 2  
    18   17   18 1  
    19    6   19 1  
    20    6   20 1  
    21    6   21 1  
    22    7   22 1  
    23   10   23 1  
    24   10   24 1  
    25   10   25 1  
    26   11   26 1  
    27   11   27 1  
    28   11   28 1  
    29   16   29 1  
    30   17   30 1  
    31   18   31 1  
    32   18   32 1  
    33   18   33 1  
@<TRIPOS>SUBSTRUCTURE
     1 C56         1

