### 
### Created by X-TOOL on Mon Sep 10 21:13:08 2018
### 

@<TRIPOS>MOLECULE
4a4e_ligand
   33    32     1     0     0
SMALL
GAST_HUCK


@<TRIPOS>ATOM
      1 N          16.2980    2.5720   -3.7600 N.4       1 2MR         0.2327
      2 CA         16.3830    3.0400   -2.3830 C.3       1 2MR         0.0284
      3 CB         16.0160    1.9050   -1.4240 C.3       1 2MR         0.0055
      4 CG         16.0080    2.2390    0.0670 C.3       1 2MR        -0.0131
      5 CD         14.6910    2.8560    0.4800 C.3       1 2MR         0.0628
      6 NE         13.5720    1.9730    0.0960 N.pl3     1 2MR        -0.2721
      7 CZ         12.3000    2.1390    0.4210 C.cat     1 2MR         0.2920
      8 NH1        11.9620    3.2210    1.1880 N.pl3     1 2MR        -0.2748
      9 CQ1        10.6670    3.6770    1.7100 C.3       1 2MR         0.0514
     10 NH2        11.4220    1.2520   -0.0760 N.pl3     1 2MR        -0.2748
     11 CQ2         9.9870    1.1520    0.0840 C.3       1 2MR         0.0514
     12 C          17.7900    3.5070   -2.1460 C.2       1 2MR         0.0844
     13 O          17.9850    4.6890   -1.8160 O.co2     1 2MR        -0.5643
     14 OXT        18.7200    2.7080   -2.3750 O.co2     1 2MR        -0.5643
     15 H          15.3497    2.2476   -3.9497 H         1 2MR         0.2010
     16 H          16.5297    3.3376   -4.3929 H         1 2MR         0.2010
     17 H          16.9553    1.8043   -3.8981 H         1 2MR         0.2010
     18 H          15.6862    3.8597   -2.2077 H         1 2MR         0.1024
     19 H          16.7830    1.1418   -1.5558 H         1 2MR         0.0340
     20 H          14.9933    1.6216   -1.6729 H         1 2MR         0.0340
     21 H          16.8061    2.9535    0.2685 H         1 2MR         0.0302
     22 H          16.1537    1.3179    0.6314 H         1 2MR         0.0302
     23 H          14.5748    3.8174   -0.0203 H         1 2MR         0.0689
     24 H          14.6839    2.9914    1.5615 H         1 2MR         0.0689
     25 H          13.8008    1.1583   -0.4734 H         1 2MR         0.2642
     26 H          12.7498    3.8169    1.4425 H         1 2MR         0.2639
     27 H           9.9895    3.8709    0.8785 H         1 2MR         0.0652
     28 H          10.2437    2.9052    2.3529 H         1 2MR         0.0652
     29 H          10.8102    4.5921    2.2847 H         1 2MR         0.0652
     30 H          11.8355    0.5284   -0.6641 H         1 2MR         0.2639
     31 H           9.7482    1.0284    1.1403 H         1 2MR         0.0652
     32 H           9.5166    2.0604   -0.2923 H         1 2MR         0.0652
     33 H           9.6193    0.2921   -0.4760 H         1 2MR         0.0652
@<TRIPOS>BOND
     1    1    2 1  
     2    2    3 1  
     3    2   12 1  
     4    3    4 1  
     5    4    5 1  
     6    5    6 1  
     7    6    7 ar 
     8    7    8 ar 
     9    7   10 ar 
    10    8    9 1  
    11   10   11 1  
    12   12   13 ar 
    13   12   14 ar 
    14    1   15 1  
    15    1   16 1  
    16    1   17 1  
    17    2   18 1  
    18    3   19 1  
    19    3   20 1  
    20    4   21 1  
    21    4   22 1  
    22    5   23 1  
    23    5   24 1  
    24    6   25 1  
    25    8   26 1  
    26    9   27 1  
    27    9   28 1  
    28    9   29 1  
    29   10   30 1  
    30   11   31 1  
    31   11   32 1  
    32   11   33 1  
@<TRIPOS>SUBSTRUCTURE
     1 2MR         1

