### 
### Created by X-TOOL on Mon Sep 10 21:13:08 2018
### 

@<TRIPOS>MOLECULE
4a4f_ligand
   33    32     1     0     0
SMALL
GAST_HUCK


@<TRIPOS>ATOM
      1 N         -17.1230   -5.3870   -0.2440 N.4       1 2MR         0.2327
      2 CA        -17.1340   -4.3330    0.7550 C.3       1 2MR         0.0284
      3 CB        -15.7360   -4.1480    1.3420 C.3       1 2MR         0.0055
      4 CG        -15.6570   -3.0910    2.4030 C.3       1 2MR        -0.0131
      5 CD        -14.2720   -2.9650    2.9600 C.3       1 2MR         0.0628
      6 NE        -13.3350   -2.5270    1.9390 N.pl3     1 2MR        -0.2721
      7 CZ        -12.0900   -2.2020    2.1590 C.cat     1 2MR         0.2920
      8 NH1       -11.6150   -2.2760    3.4440 N.pl3     1 2MR        -0.2748
      9 CQ1       -10.2910   -1.9820    4.0090 C.3       1 2MR         0.0514
     10 NH2       -11.3460   -1.8380    1.0880 N.pl3     1 2MR        -0.2748
     11 CQ2        -9.9530   -1.4230    0.9840 C.3       1 2MR         0.0514
     12 C         -17.5950   -3.0650    0.0980 C.2       1 2MR         0.0844
     13 O         -18.6220   -2.5000    0.5200 O.co2     1 2MR        -0.5643
     14 OXT       -16.9460   -2.6340   -0.8690 O.co2     1 2MR        -0.5643
     15 H         -16.8115   -6.2580    0.1858 H         1 2MR         0.2010
     16 H         -18.0639   -5.5087   -0.6184 H         1 2MR         0.2010
     17 H         -16.4859   -5.1320   -0.9986 H         1 2MR         0.2010
     18 H         -17.8096   -4.5967    1.5687 H         1 2MR         0.1024
     19 H         -15.0808   -3.8391    0.5275 H         1 2MR         0.0340
     20 H         -15.4510   -5.0931    1.8043 H         1 2MR         0.0340
     21 H         -16.3290   -3.3693    3.2148 H         1 2MR         0.0302
     22 H         -15.9353   -2.1361    1.9570 H         1 2MR         0.0302
     23 H         -13.9546   -3.9402    3.3293 H         1 2MR         0.0689
     24 H         -14.2844   -2.2266    3.7617 H         1 2MR         0.0689
     25 H         -13.6755   -2.4693    0.9792 H         1 2MR         0.2642
     26 H         -12.3028   -2.5909    4.1282 H         1 2MR         0.2639
     27 H          -9.5464   -2.6258    3.5407 H         1 2MR         0.0652
     28 H         -10.0406   -0.9380    3.8206 H         1 2MR         0.0652
     29 H         -10.3071   -2.1649    5.0834 H         1 2MR         0.0652
     30 H         -11.8475   -1.8577    0.2000 H         1 2MR         0.2639
     31 H          -9.7962   -0.5274    1.5852 H         1 2MR         0.0652
     32 H          -9.3086   -2.2235    1.3474 H         1 2MR         0.0652
     33 H          -9.7159   -1.2088   -0.0581 H         1 2MR         0.0652
@<TRIPOS>BOND
     1    1    2 1  
     2    2    3 1  
     3    2   12 1  
     4    3    4 1  
     5    4    5 1  
     6    5    6 1  
     7    6    7 ar 
     8    7    8 ar 
     9    7   10 ar 
    10    8    9 1  
    11   10   11 1  
    12   12   13 ar 
    13   12   14 ar 
    14    1   15 1  
    15    1   16 1  
    16    1   17 1  
    17    2   18 1  
    18    3   19 1  
    19    3   20 1  
    20    4   21 1  
    21    4   22 1  
    22    5   23 1  
    23    5   24 1  
    24    6   25 1  
    25    8   26 1  
    26    9   27 1  
    27    9   28 1  
    28    9   29 1  
    29   10   30 1  
    30   11   31 1  
    31   11   32 1  
    32   11   33 1  
@<TRIPOS>SUBSTRUCTURE
     1 2MR         1

