### 
### Created by X-TOOL on Mon Sep 10 21:13:08 2018
### 

@<TRIPOS>MOLECULE
4a4g_ligand
   33    32     1     0     0
SMALL
GAST_HUCK


@<TRIPOS>ATOM
      1 C1          9.7290   -1.5210    1.8900 C.3       1 DA2         0.0535
      2 C2         10.0350   -3.6920    0.7170 C.3       1 DA2         0.0535
      3 N          13.8110   -8.0090   -0.9830 N.4       1 DA2         0.2327
      4 CA         14.3100   -7.4700    0.2670 C.3       1 DA2         0.0284
      5 CB         13.9870   -5.9690    0.3680 C.3       1 DA2         0.0055
      6 CG         14.3010   -5.3420    1.7210 C.3       1 DA2        -0.0131
      7 CD         13.9780   -3.8640    1.7320 C.3       1 DA2         0.0628
      8 NE         12.5680   -3.6490    1.4650 N.pl3     1 DA2        -0.2721
      9 CZ         11.8380   -2.6250    1.8470 C.cat     1 DA2         0.2920
     10 NH2        12.3350   -1.6400    2.5440 N.pl3     1 DA2        -0.2847
     11 NH1        10.5860   -2.6100    1.5060 N.pl3     1 DA2        -0.2650
     12 C          13.6600   -8.2320    1.3850 C.2       1 DA2         0.0844
     13 OA1        14.3620   -8.8570    2.1840 O.co2     1 DA2        -0.5643
     14 OA2        12.4300   -8.2790    1.4220 O.co2     1 DA2        -0.5643
     15 H           9.6982   -1.4506    2.9773 H         1 DA2         0.0653
     16 H          10.1176   -0.5909    1.4753 H         1 DA2         0.0653
     17 H           8.7240   -1.6990    1.5075 H         1 DA2         0.0653
     18 H          10.5657   -3.7540   -0.2331 H         1 DA2         0.0653
     19 H          10.1485   -4.6303    1.2600 H         1 DA2         0.0653
     20 H           8.9775   -3.5033    0.5323 H         1 DA2         0.0653
     21 H          14.2376   -7.5079   -1.7623 H         1 DA2         0.2010
     22 H          14.0478   -8.9993   -1.0435 H         1 DA2         0.2010
     23 H          12.7978   -7.8977   -1.0195 H         1 DA2         0.2010
     24 H          15.3934   -7.5755    0.3237 H         1 DA2         0.1024
     25 H          12.9137   -5.8633    0.2098 H         1 DA2         0.0340
     26 H          14.6069   -5.4599   -0.3700 H         1 DA2         0.0340
     27 H          15.3653   -5.4655    1.9214 H         1 DA2         0.0302
     28 H          13.6940   -5.8349    2.4804 H         1 DA2         0.0302
     29 H          14.5642   -3.3680    0.9584 H         1 DA2         0.0689
     30 H          14.2182   -3.4567    2.7141 H         1 DA2         0.0689
     31 H          12.0923   -4.3700    0.9226 H         1 DA2         0.2642
     32 H          13.3198   -1.6491    2.8095 H         1 DA2         0.2615
     33 H          11.7387   -0.8611    2.8233 H         1 DA2         0.2615
@<TRIPOS>BOND
     1   11    1 1  
     2   11    2 1  
     3    4    3 1  
     4    5    4 1  
     5    4   12 1  
     6    6    5 1  
     7    7    6 1  
     8    8    7 1  
     9    9    8 ar 
    10    9   10 ar 
    11    9   11 ar 
    12   12   13 ar 
    13   12   14 ar 
    14    1   15 1  
    15    1   16 1  
    16    1   17 1  
    17    2   18 1  
    18    2   19 1  
    19    2   20 1  
    20    3   21 1  
    21    3   22 1  
    22    3   23 1  
    23    4   24 1  
    24    5   25 1  
    25    5   26 1  
    26    6   27 1  
    27    6   28 1  
    28    7   29 1  
    29    7   30 1  
    30    8   31 1  
    31   10   32 1  
    32   10   33 1  
@<TRIPOS>SUBSTRUCTURE
     1 DA2         1

