### 
### Created by X-TOOL on Mon Sep 10 21:13:08 2018
### 

@<TRIPOS>MOLECULE
4a4h_ligand
   33    32     1     0     0
SMALL
GAST_HUCK


@<TRIPOS>ATOM
      1 C1         -9.8610   -2.0020   -0.7750 C.3       1 DA2         0.0535
      2 C2        -10.1980   -3.6530    1.0790 C.3       1 DA2         0.0535
      3 N         -15.8920   -4.7610    3.9600 N.4       1 DA2         0.2327
      4 CA        -15.8380   -4.7810    2.5130 C.3       1 DA2         0.0284
      5 CB        -14.5900   -5.5200    2.0310 C.3       1 DA2         0.0055
      6 CG        -14.4820   -5.5880    0.5200 C.3       1 DA2        -0.0131
      7 CD        -14.0990   -4.2550   -0.0840 C.3       1 DA2         0.0628
      8 NE        -12.7120   -3.9360    0.2170 N.pl3     1 DA2        -0.2721
      9 CZ        -11.9450   -3.0950   -0.4500 C.cat     1 DA2         0.2920
     10 NH2       -12.3920   -2.4410   -1.4880 N.pl3     1 DA2        -0.2847
     11 NH1       -10.7250   -2.9170   -0.0630 N.pl3     1 DA2        -0.2650
     12 C         -17.0590   -5.4960    2.0310 C.2       1 DA2         0.0844
     13 OA1       -17.8600   -4.9050    1.2910 O.co2     1 DA2        -0.5643
     14 OA2       -17.2470   -6.6420    2.4260 O.co2     1 DA2        -0.5643
     15 H          -9.7621   -2.3288   -1.8101 H         1 DA2         0.0653
     16 H         -10.2926   -1.0014   -0.7482 H         1 DA2         0.0653
     17 H          -8.8793   -1.9884   -0.3015 H         1 DA2         0.0653
     18 H         -10.7884   -3.4183    1.9647 H         1 DA2         0.0653
     19 H         -10.2531   -4.7227    0.8770 H         1 DA2         0.0653
     20 H          -9.1597   -3.3665    1.2465 H         1 DA2         0.0653
     21 H         -15.0701   -4.2783    4.3231 H         1 DA2         0.2010
     22 H         -16.7353   -4.2723    4.2608 H         1 DA2         0.2010
     23 H         -15.9086   -5.7183    4.3117 H         1 DA2         0.2010
     24 H         -15.7977   -3.7632    2.1250 H         1 DA2         0.1024
     25 H         -14.6469   -6.5425    2.4044 H         1 DA2         0.0340
     26 H         -13.7207   -4.9757    2.4000 H         1 DA2         0.0340
     27 H         -15.4556   -5.8742    0.1222 H         1 DA2         0.0302
     28 H         -13.7067   -6.3112    0.2669 H         1 DA2         0.0302
     29 H         -14.7391   -3.4796    0.3369 H         1 DA2         0.0689
     30 H         -14.2222   -4.3089   -1.1657 H         1 DA2         0.0689
     31 H         -12.2931   -4.4068    1.0191 H         1 DA2         0.2642
     32 H         -13.3539   -2.5749   -1.7997 H         1 DA2         0.2615
     33 H         -11.7793   -1.7962   -1.9871 H         1 DA2         0.2615
@<TRIPOS>BOND
     1   11    1 1  
     2   11    2 1  
     3    4    3 1  
     4    5    4 1  
     5    4   12 1  
     6    6    5 1  
     7    7    6 1  
     8    8    7 1  
     9    9    8 ar 
    10    9   10 ar 
    11    9   11 ar 
    12   12   13 ar 
    13   12   14 ar 
    14    1   15 1  
    15    1   16 1  
    16    1   17 1  
    17    2   18 1  
    18    2   19 1  
    19    2   20 1  
    20    3   21 1  
    21    3   22 1  
    22    3   23 1  
    23    4   24 1  
    24    5   25 1  
    25    5   26 1  
    26    6   27 1  
    27    6   28 1  
    28    7   29 1  
    29    7   30 1  
    30    8   31 1  
    31   10   32 1  
    32   10   33 1  
@<TRIPOS>SUBSTRUCTURE
     1 DA2         1

