### 
### Created by X-TOOL on Mon Sep 10 21:13:11 2018
### 

@<TRIPOS>MOLECULE
4a4l_ligand
   59    62     1     0     0
SMALL
GAST_HUCK


@<TRIPOS>ATOM
      1 N1         10.8510   42.6060    8.2990 N.ar      1 939        -0.2606
      2 C2         11.0680   43.8630    8.5380 C.ar      1 939         0.1992
      3 N3         10.5730   44.4700    9.7170 N.ar      1 939        -0.2566
      4 C4          9.8970   43.8090   10.5830 C.ar      1 939         0.0655
      5 C5          9.6380   42.3820   10.3300 C.ar      1 939        -0.0225
      6 C6         10.1180   41.8190    9.2090 C.ar      1 939         0.0068
      7 N7         11.7960   44.6080    7.5960 N.pl3     1 939        -0.2483
      8 C8          9.3730   44.4990   11.7950 C.2       1 939         0.0876
      9 N9          9.7750   45.7710   12.3000 N.pl3     1 939        -0.2606
     10 C10         9.0270   46.0700   13.4310 C.2       1 939         0.0534
     11 C11         8.2040   45.0390   13.6120 C.2       1 939         0.0444
     12 C12         8.4110   44.0230   12.5790 C.2       1 939        -0.0427
     13 C13         7.2160   44.9430   14.6920 C.2       1 939         0.1809
     14 N14         6.6430   46.0910   15.1990 N.am      1 939        -0.3044
     15 O15         6.8630   43.8470   15.1310 O.2       1 939        -0.3982
     16 C16        12.0480   46.0210    7.6180 C.ar      1 939         0.0845
     17 C17        13.2420   46.4100    7.1480 C.ar      1 939         0.1110
     18 C18        13.5890   47.8830    7.1240 C.ar      1 939        -0.0528
     19 C19        12.7110   48.8030    7.5670 C.ar      1 939        -0.0642
     20 C20        11.3810   48.3940    8.0920 C.ar      1 939         0.0197
     21 C21        11.0650   47.0500    8.1140 C.ar      1 939        -0.0288
     22 O22        14.1150   45.3560    6.6810 O.3       1 939        -0.2393
     23 C23        14.7760   45.5580    5.3940 C.3       1 939         0.5419
     24 F24        15.7880   46.4670    5.5190 F         1 939        -0.1406
     25 F25        13.8890   45.9950    4.4190 F         1 939        -0.1406
     26 F26        15.3100   44.3680    4.9800 F         1 939        -0.1406
     27 C27        10.7810   46.6490   11.7570 C.3       1 939         0.0458
     28 N28        10.4600   49.4150    8.5480 N.pl3     1 939        -0.3066
     29 C29         9.0080   49.2410    8.3050 C.3       1 939         0.0648
     30 C30         8.1160   50.0890    9.2430 C.3       1 939        -0.0123
     31 N31         8.6480   51.4830    9.4130 N.4       1 939         0.2358
     32 C32         9.9730   51.4140   10.0520 C.3       1 939        -0.0123
     33 C33        11.0010   50.6370    9.1780 C.3       1 939         0.0648
     34 C34         7.7460   52.2580   10.2880 C.3       1 939        -0.0430
     35 H1          9.0674   41.7934   11.0392 H         1 939         0.0630
     36 H2          9.9430   40.7686    9.0063 H         1 939         0.0867
     37 H3         12.1922   44.0834    6.8031 H         1 939         0.2148
     38 H4          9.0989   46.9662   14.0455 H         1 939         0.1025
     39 H5          7.8861   43.0746   12.4745 H         1 939         0.0436
     40 H6          5.9690   46.0303   15.9353 H         1 939         0.1800
     41 H7          6.9016   46.9838   14.8302 H         1 939         0.1800
     42 H8         14.5542   48.2007    6.7464 H         1 939         0.0477
     43 H9         12.9767   49.8536    7.5406 H         1 939         0.0394
     44 H10        10.1001   46.7318    8.4919 H         1 939         0.0402
     45 H11        11.2280   46.1868   10.8645 H         1 939         0.0588
     46 H12        11.5630   46.8215   12.5112 H         1 939         0.0588
     47 H13        10.3198   47.6087   11.4809 H         1 939         0.0588
     48 H14         8.7558   48.1803    8.4508 H         1 939         0.0562
     49 H15         8.7924   49.5297    7.2657 H         1 939         0.0562
     50 H16         8.0728   49.6023   10.2285 H         1 939         0.0834
     51 H17         7.1035   50.1444    8.8167 H         1 939         0.0834
     52 H18         8.7216   51.9320    8.5135 H         1 939         0.2032
     53 H19         9.8738   50.9041   11.0216 H         1 939         0.0834
     54 H20        10.3441   52.4371   10.2120 H         1 939         0.0834
     55 H21        11.3535   51.3086    8.3813 H         1 939         0.0562
     56 H22        11.8489   50.3492    9.8169 H         1 939         0.0562
     57 H23         6.7500   52.3197    9.8253 H         1 939         0.0778
     58 H24         8.1499   53.2719   10.4251 H         1 939         0.0778
     59 H25         7.6660   51.7598   11.2655 H         1 939         0.0778
@<TRIPOS>BOND
     1    1    2 ar 
     2    1    6 ar 
     3    2    3 ar 
     4    2    7 1  
     5    3    4 ar 
     6    4    5 ar 
     7    4    8 1  
     8    5    6 ar 
     9    7   16 1  
    10    8    9 1  
    11    8   12 2  
    12    9   10 1  
    13    9   27 1  
    14   10   11 2  
    15   11   12 1  
    16   11   13 1  
    17   13   14 am 
    18   13   15 2  
    19   16   17 ar 
    20   16   21 ar 
    21   17   18 ar 
    22   17   22 1  
    23   18   19 ar 
    24   19   20 ar 
    25   20   21 ar 
    26   20   28 1  
    27   22   23 1  
    28   23   24 1  
    29   23   25 1  
    30   23   26 1  
    31   28   29 1  
    32   28   33 1  
    33   29   30 1  
    34   30   31 1  
    35   31   32 1  
    36   31   34 1  
    37   32   33 1  
    38    5   35 1  
    39    6   36 1  
    40    7   37 1  
    41   10   38 1  
    42   12   39 1  
    43   14   40 1  
    44   14   41 1  
    45   18   42 1  
    46   19   43 1  
    47   21   44 1  
    48   27   45 1  
    49   27   46 1  
    50   27   47 1  
    51   29   48 1  
    52   29   49 1  
    53   30   50 1  
    54   30   51 1  
    55   31   52 1  
    56   32   53 1  
    57   32   54 1  
    58   33   55 1  
    59   33   56 1  
    60   34   57 1  
    61   34   58 1  
    62   34   59 1  
@<TRIPOS>SUBSTRUCTURE
     1 939         1

