### 
### Created by X-TOOL on Mon Sep 10 21:13:10 2018
### 

@<TRIPOS>MOLECULE
4a4q_ligand
  103   108     1     0     0
SMALL
GAST_HUCK


@<TRIPOS>ATOM
      1 C1         10.6130   23.5350    5.3730 C.2       1 UX9         0.2111
      2 O2         10.0230   22.4790    5.6440 O.2       1 UX9        -0.3437
      3 C3         11.6470   23.6270    4.2650 C.3       1 UX9         0.0934
      4 C4         11.8940   25.1580    4.0750 C.3       1 UX9         0.0903
      5 C5         11.3360   25.7710    5.3690 C.3       1 UX9         0.0621
      6 N6         10.4660   24.7330    5.9620 N.am      1 UX9        -0.2537
      7 C7          9.4650   24.9270    7.0840 C.3       1 UX9         0.1038
      8 C8          9.7440   25.8940    8.1950 C.ar      1 UX9        -0.0129
      9 C9          8.5630   26.5730    8.5690 C.ar      1 UX9        -0.0360
     10 C10         7.3600   26.1420    7.7870 C.3       1 UX9         0.0085
     11 C11         8.0410   25.4660    6.5870 C.3       1 UX9         0.0954
     12 O12         8.2090   26.4410    5.5250 O.3       1 UX9        -0.3856
     13 C13         8.5920   27.6300    9.6860 C.ar      1 UX9        -0.0667
     14 C14         9.8210   27.8870   10.3050 C.ar      1 UX9        -0.0755
     15 C15        11.0810   27.1060    9.8480 C.ar      1 UX9        -0.0754
     16 C16        10.9910   26.1510    8.8210 C.ar      1 UX9        -0.0646
     17 O17        13.2670   25.5900    3.9230 O.3       1 UX9        -0.3902
     18 C18        12.9650   22.8140    4.5720 C.3       1 UX9         0.0049
     19 C19        13.8700   23.2600    5.7870 C.3       1 UX9        -0.0059
     20 C21        10.9420   23.0770    2.8870 C.3       1 UX9        -0.0041
     21 C22         9.4790   23.6580    2.5600 C.ar      1 UX9        -0.0434
     22 C23         8.2530   22.9760    3.0370 C.ar      1 UX9        -0.0605
     23 C24         6.9260   23.5110    2.7490 C.ar      1 UX9        -0.0686
     24 C25         6.7910   24.7480    1.9740 C.ar      1 UX9        -0.0687
     25 C26         7.9830   25.4380    1.4920 C.ar      1 UX9        -0.0686
     26 C27         9.3050   24.9020    1.7810 C.ar      1 UX9        -0.0605
     27 C28        16.8980   17.9070   10.9100 C.ar      1 UX9        -0.0034
     28 C29        16.5120   19.1460   10.0870 C.ar      1 UX9        -0.0152
     29 C30        17.5480   19.9840    9.4320 C.ar      1 UX9        -0.0569
     30 C31        17.1670   21.1660    8.6600 C.ar      1 UX9        -0.0521
     31 C32        15.7500   21.5330    8.5280 C.ar      1 UX9         0.0049
     32 C33        14.7240   20.7160    9.1630 C.ar      1 UX9        -0.0521
     33 C34        15.0960   19.5380    9.9330 C.ar      1 UX9        -0.0569
     34 C35        15.3170   22.7640    7.7220 C.3       1 UX9         0.0278
     35 N36        14.5870   22.2120    6.5130 N.4       1 UX9         0.3801
     36 N37        15.4550   21.5010    5.6730 N.am      1 UX9        -0.2494
     37 C38        15.1450   20.1790    5.3290 C.2       1 UX9         0.2392
     38 C39        16.0940   19.3690    4.4250 C.3       1 UX9         0.1419
     39 N40        16.8530   18.5790    5.4470 N.am      1 UX9        -0.2405
     40 C41        18.2220   18.6670    5.6770 C.2       1 UX9         0.3216
     41 O42        18.5780   17.8010    6.7020 O.3       1 UX9        -0.2672
     42 C43        19.9790   17.7370    7.1100 C.3       1 UX9         0.0663
     43 O44        19.0170   19.4190    5.0520 O.2       1 UX9        -0.3774
     44 C45        15.4270   18.3950    3.3110 C.3       1 UX9         0.0027
     45 C46        14.4980   17.2610    3.8660 C.3       1 UX9        -0.0558
     46 C47        14.6110   19.2500    2.2810 C.3       1 UX9        -0.0558
     47 C48        16.5550   17.6680    2.5090 C.3       1 UX9        -0.0558
     48 O49        14.1080   19.6530    5.7660 O.2       1 UX9        -0.3898
     49 C50        16.1720   16.6190   10.7590 C.ar      1 UX9        -0.0289
     50 C51        16.5870   15.4880   11.5770 C.ar      1 UX9         0.0089
     51 N52        17.6570   15.6630   12.4750 N.ar      1 UX9        -0.3001
     52 C53        18.3610   16.8840   12.6330 C.ar      1 UX9         0.0089
     53 C54        17.9910   18.0160   11.8560 C.ar      1 UX9        -0.0289
     54 H1         11.3269   25.5071    3.1995 H         1 UX9         0.0607
     55 H2         10.7536   26.6766    5.1441 H         1 UX9         0.0550
     56 H3         12.1555   26.0237    6.0579 H         1 UX9         0.0550
     57 H4          9.3373   23.9307    7.5324 H         1 UX9         0.0736
     58 H5          6.7472   27.0010    7.4764 H         1 UX9         0.0439
     59 H6          6.7381   25.4338    8.3542 H         1 UX9         0.0439
     60 H7          7.4281   24.6275    6.2247 H         1 UX9         0.0659
     61 H8          8.6299   26.0273    4.7805 H         1 UX9         0.2103
     62 H9          7.6927   28.1572    9.9833 H         1 UX9         0.0537
     63 H10         9.8915   28.6247   11.0961 H         1 UX9         0.0541
     64 H11        12.0361   27.2979   10.3234 H         1 UX9         0.0541
     65 H12        11.8760   25.6097    8.5065 H         1 UX9         0.0538
     66 H13        13.6281   25.2193    3.1263 H         1 UX9         0.2097
     67 H14        13.5911   22.8606    3.6688 H         1 UX9         0.0311
     68 H15        12.6659   21.7718    4.7575 H         1 UX9         0.0311
     69 H16        13.2212   23.7768    6.5094 H         1 UX9         0.0821
     70 H17        14.6202   23.9644    5.3984 H         1 UX9         0.0821
     71 H18        10.8592   21.9829    2.9655 H         1 UX9         0.0419
     72 H19        11.6019   23.3354    2.0457 H         1 UX9         0.0419
     73 H20         8.3436   22.0612    3.6115 H         1 UX9         0.0557
     74 H21         6.0425   22.9950    3.1072 H         1 UX9         0.0599
     75 H22         5.8072   25.1495    1.7593 H         1 UX9         0.0559
     76 H23         7.8837   26.3518    0.9174 H         1 UX9         0.0599
     77 H24        10.1810   25.4266    1.4170 H         1 UX9         0.0557
     78 H25        18.5945   19.7176    9.5268 H         1 UX9         0.0624
     79 H26        17.9301   21.7718    8.1848 H         1 UX9         0.0567
     80 H27        13.6792   20.9866    9.0615 H         1 UX9         0.0567
     81 H28        14.3224   18.9395   10.4004 H         1 UX9         0.0624
     82 H29        16.1949   23.3482    7.4088 H         1 UX9         0.0995
     83 H30        14.6474   23.4001    8.3194 H         1 UX9         0.0995
     84 H31        13.8976   21.5595    6.8522 H         1 UX9         0.2321
     85 H32        16.2864   21.9327    5.3231 H         1 UX9         0.2384
     86 H33        16.7650   20.0603    3.8942 H         1 UX9         0.0806
     87 H34        16.3331   17.9362    6.0096 H         1 UX9         0.1899
     88 H35        20.0901   17.0085    7.9267 H         1 UX9         0.0575
     89 H36        20.3058   18.7286    7.4562 H         1 UX9         0.0575
     90 H37        20.5962   17.4256    6.2544 H         1 UX9         0.0575
     91 H38        14.1041   16.6668    3.0282 H         1 UX9         0.0237
     92 H39        13.6619   17.7109    4.4214 H         1 UX9         0.0237
     93 H40        15.0760   16.6094    4.5378 H         1 UX9         0.0237
     94 H41        15.2501   20.0513    1.8818 H         1 UX9         0.0237
     95 H42        13.7378   19.6929    2.7823 H         1 UX9         0.0237
     96 H43        14.2726   18.6057    1.4561 H         1 UX9         0.0237
     97 H44        17.1554   17.0534    3.1959 H         1 UX9         0.0237
     98 H45        17.2013   18.4154    2.0257 H         1 UX9         0.0237
     99 H46        16.1020   17.0236    1.7412 H         1 UX9         0.0237
    100 H47        15.3523   16.5237   10.0561 H         1 UX9         0.0703
    101 H48        16.0828   14.5318   11.4962 H         1 UX9         0.0817
    102 H49        19.1773   16.9540   13.3428 H         1 UX9         0.0817
    103 H50        18.5225   18.9538   11.9703 H         1 UX9         0.0703
@<TRIPOS>BOND
     1    1    2 2  
     2    3    1 1  
     3    1    6 am 
     4    3    4 1  
     5   18    3 1  
     6    3   20 1  
     7    4    5 1  
     8    4   17 1  
     9    5    6 1  
    10    6    7 1  
    11    7    8 1  
    12    7   11 1  
    13    8    9 ar 
    14    8   16 ar 
    15   10    9 1  
    16    9   13 ar 
    17   11   10 1  
    18   11   12 1  
    19   13   14 ar 
    20   15   14 ar 
    21   16   15 ar 
    22   19   18 1  
    23   35   19 1  
    24   20   21 1  
    25   21   22 ar 
    26   21   26 ar 
    27   22   23 ar 
    28   23   24 ar 
    29   25   24 ar 
    30   26   25 ar 
    31   28   27 1  
    32   27   49 ar 
    33   27   53 ar 
    34   29   28 ar 
    35   33   28 ar 
    36   30   29 ar 
    37   31   30 ar 
    38   31   32 ar 
    39   34   31 1  
    40   32   33 ar 
    41   34   35 1  
    42   35   36 1  
    43   36   37 am 
    44   37   38 1  
    45   37   48 2  
    46   38   39 1  
    47   38   44 1  
    48   39   40 am 
    49   40   41 1  
    50   40   43 2  
    51   41   42 1  
    52   44   45 1  
    53   44   46 1  
    54   44   47 1  
    55   49   50 ar 
    56   50   51 ar 
    57   51   52 ar 
    58   52   53 ar 
    59    4   54 1  
    60    5   55 1  
    61    5   56 1  
    62    7   57 1  
    63   10   58 1  
    64   10   59 1  
    65   11   60 1  
    66   12   61 1  
    67   13   62 1  
    68   14   63 1  
    69   15   64 1  
    70   16   65 1  
    71   17   66 1  
    72   18   67 1  
    73   18   68 1  
    74   19   69 1  
    75   19   70 1  
    76   20   71 1  
    77   20   72 1  
    78   22   73 1  
    79   23   74 1  
    80   24   75 1  
    81   25   76 1  
    82   26   77 1  
    83   29   78 1  
    84   30   79 1  
    85   32   80 1  
    86   33   81 1  
    87   34   82 1  
    88   34   83 1  
    89   35   84 1  
    90   36   85 1  
    91   38   86 1  
    92   39   87 1  
    93   42   88 1  
    94   42   89 1  
    95   42   90 1  
    96   45   91 1  
    97   45   92 1  
    98   45   93 1  
    99   46   94 1  
   100   46   95 1  
   101   46   96 1  
   102   47   97 1  
   103   47   98 1  
   104   47   99 1  
   105   49  100 1  
   106   50  101 1  
   107   52  102 1  
   108   53  103 1  
@<TRIPOS>SUBSTRUCTURE
     1 UX9         1

