### 
### Created by X-TOOL on Mon Sep 10 21:13:11 2018
### 

@<TRIPOS>MOLECULE
4a4v_ligand
   47    47     1     0     0
SMALL
GAST_HUCK


@<TRIPOS>ATOM
      1 CAA       -14.1320   27.8250  -50.8340 C.3       1 YFD        -0.0653
      2 CAJ       -15.0780   26.8200  -50.1640 C.3       1 YFD        -0.0558
      3 CAL       -14.9800   25.4570  -50.8580 C.3       1 YFD        -0.0515
      4 CAM       -15.9670   24.4090  -50.2920 C.3       1 YFD        -0.0439
      5 CAN       -15.6960   24.1030  -48.8150 C.3       1 YFD        -0.0244
      6 CAS       -16.1200   22.6970  -48.3480 C.ar      1 YFD        -0.0513
      7 CAV       -17.4260   22.1850  -48.1920 C.ar      1 YFD         0.0230
      8 CAQ       -18.6980   23.0130  -48.5230 C.2       1 YFD         0.0456
      9 OAF       -19.8150   22.4370  -48.4500 O.co2     1 YFD        -0.5694
     10 OAE       -18.5640   24.2240  -48.8240 O.co2     1 YFD        -0.5694
     11 CAR       -17.6070   20.8700  -47.7330 C.ar      1 YFD         0.0914
     12 OAG       -18.8740   20.3930  -47.6050 O.3       1 YFD        -0.3377
     13 CAI       -15.0650   21.8640  -48.0050 C.ar      1 YFD        -0.0447
     14 CAT       -15.2630   20.5620  -47.5480 C.ar      1 YFD         0.0822
     15 OAO       -14.1640   19.8250  -47.2530 O.3       1 YFD        -0.3273
     16 CAB       -13.4960   19.4510  -48.4540 C.3       1 YFD         0.0581
     17 CAU       -16.5450   20.0250  -47.3910 C.ar      1 YFD         0.0155
     18 CAK       -16.8310   18.5900  -46.8740 C.3       1 YFD        -0.0201
     19 CAH       -16.2230   18.3330  -45.6270 C.2       1 YFD        -0.1025
     20 CAP       -16.7700   17.9860  -44.3750 C.2       1 YFD        -0.0856
     21 CAD       -15.8350   17.7030  -43.1710 C.3       1 YFD        -0.0403
     22 CAC       -18.3030   17.8630  -44.1520 C.3       1 YFD        -0.0403
     23 H1        -14.2119   28.7979  -50.3270 H         1 YFD         0.0230
     24 H2        -14.4085   27.9394  -51.8925 H         1 YFD         0.0230
     25 H3        -13.0974   27.4584  -50.7628 H         1 YFD         0.0230
     26 H4        -16.1113   27.1905  -50.2352 H         1 YFD         0.0263
     27 H5        -14.8002   26.7095  -49.1054 H         1 YFD         0.0263
     28 H6        -13.9560   25.0749  -50.7337 H         1 YFD         0.0267
     29 H7        -15.1927   25.5943  -51.9285 H         1 YFD         0.0267
     30 H8        -15.8681   23.4790  -50.8711 H         1 YFD         0.0287
     31 H9        -16.9918   24.7961  -50.3921 H         1 YFD         0.0287
     32 H10       -16.2409   24.8416  -48.2088 H         1 YFD         0.0419
     33 H11       -14.6155   24.2089  -48.6381 H         1 YFD         0.0419
     34 H12       -19.3067   20.4159  -48.4504 H         1 YFD         0.2469
     35 H13       -14.0518   22.2385  -48.0955 H         1 YFD         0.0383
     36 H14       -12.6058   18.8536  -48.2076 H         1 YFD         0.0576
     37 H15       -13.1908   20.3554  -49.0008 H         1 YFD         0.0576
     38 H16       -14.1754   18.8551  -49.0811 H         1 YFD         0.0576
     39 H17       -16.4471   17.8673  -47.6090 H         1 YFD         0.0443
     40 H18       -17.9186   18.4633  -46.7687 H         1 YFD         0.0443
     41 H19       -15.1373   18.4179  -45.6328 H         1 YFD         0.0254
     42 H20       -16.4405   17.4506  -42.2880 H         1 YFD         0.0377
     43 H21       -15.2308   18.5971  -42.9579 H         1 YFD         0.0377
     44 H22       -15.1705   16.8604  -43.4129 H         1 YFD         0.0377
     45 H23       -18.8295   18.0919  -45.0903 H         1 YFD         0.0377
     46 H24       -18.6182   18.5720  -43.3723 H         1 YFD         0.0377
     47 H25       -18.5465   16.8380  -43.8356 H         1 YFD         0.0377
@<TRIPOS>BOND
     1    1    2 1  
     2    2    3 1  
     3    3    4 1  
     4    4    5 1  
     5    5    6 1  
     6    6    7 ar 
     7    6   13 ar 
     8    7    8 1  
     9    7   11 ar 
    10    8    9 ar 
    11    8   10 ar 
    12   11   12 1  
    13   11   17 ar 
    14   13   14 ar 
    15   14   15 1  
    16   14   17 ar 
    17   15   16 1  
    18   17   18 1  
    19   18   19 1  
    20   19   20 2  
    21   20   21 1  
    22   20   22 1  
    23    1   23 1  
    24    1   24 1  
    25    1   25 1  
    26    2   26 1  
    27    2   27 1  
    28    3   28 1  
    29    3   29 1  
    30    4   30 1  
    31    4   31 1  
    32    5   32 1  
    33    5   33 1  
    34   12   34 1  
    35   13   35 1  
    36   16   36 1  
    37   16   37 1  
    38   16   38 1  
    39   18   39 1  
    40   18   40 1  
    41   19   41 1  
    42   21   42 1  
    43   21   43 1  
    44   21   44 1  
    45   22   45 1  
    46   22   46 1  
    47   22   47 1  
@<TRIPOS>SUBSTRUCTURE
     1 YFD         1

