### 
### Created by X-TOOL on Mon Sep 10 21:13:10 2018
### 

@<TRIPOS>MOLECULE
4a4w_ligand
   61    62     1     0     0
SMALL
GAST_HUCK


@<TRIPOS>ATOM
      1 CAB       -10.5160   15.8320  -13.1880 C.3       1 YFB        -0.0406
      2 CAV       -11.9000   15.8090  -13.8430 C.2       1 YFB        -0.0870
      3 CAC       -12.1460   14.6730  -14.8480 C.3       1 YFB        -0.0406
      4 CAH       -12.8510   16.8110  -13.5600 C.2       1 YFB        -0.1074
      5 CAP       -14.1780   16.9410  -14.0050 C.3       1 YFB        -0.0387
      6 CAR       -14.8900   18.1340  -13.3510 C.3       1 YFB        -0.0251
      7 CAW       -16.4000   17.9090  -13.0740 C.2       1 YFB        -0.0813
      8 CAD       -17.3380   17.5290  -14.2490 C.3       1 YFB        -0.0399
      9 CAI       -16.9190   18.0270  -11.7750 C.2       1 YFB        -0.1021
     10 CAQ       -16.2630   18.3270  -10.5670 C.3       1 YFB        -0.0200
     11 CBC       -16.5680   19.7680  -10.0800 C.ar      1 YFB         0.0155
     12 CBB       -17.8640   20.2670   -9.9570 C.ar      1 YFB         0.0822
     13 CAO       -18.1170   21.5650   -9.5230 C.ar      1 YFB        -0.0446
     14 OAU       -18.9230   19.4830  -10.2640 O.3       1 YFB        -0.3273
     15 CAA       -19.8240   19.4470   -9.1470 C.3       1 YFB         0.0581
     16 CAZ       -15.5250   20.6440   -9.7260 C.ar      1 YFB         0.0914
     17 OAG       -14.2290   20.2090   -9.8120 O.3       1 YFB        -0.3377
     18 CBD       -15.7640   21.9550   -9.2890 C.ar      1 YFB         0.0231
     19 CAX       -14.5460   22.8550   -8.9380 C.2       1 YFB         0.0456
     20 OAF       -13.4020   22.3230   -8.9460 O.co2     1 YFB        -0.5694
     21 OAE       -14.7560   24.0710   -8.6850 O.co2     1 YFB        -0.5694
     22 CBA       -17.0840   22.4240   -9.1810 C.ar      1 YFB        -0.0494
     23 CAT       -17.5210   23.8180   -8.7310 C.3       1 YFB        -0.0147
     24 CAS       -17.7520   23.8660   -7.2280 C.3       1 YFB        -0.0100
     25 CAY       -17.9220   25.3110   -6.7480 C.ar      1 YFB        -0.0411
     26 CAM       -18.9480   26.1100   -7.2610 C.ar      1 YFB        -0.0602
     27 CAK       -19.1080   27.4270   -6.8260 C.ar      1 YFB        -0.0686
     28 CAJ       -18.2250   27.9350   -5.8680 C.ar      1 YFB        -0.0687
     29 CAL       -17.2000   27.1370   -5.3480 C.ar      1 YFB        -0.0686
     30 CAN       -17.0460   25.8210   -5.7900 C.ar      1 YFB        -0.0602
     31 H1         -9.9300   14.9697  -13.5388 H         1 YFB         0.0375
     32 H2        -10.6267   15.7798  -12.0948 H         1 YFB         0.0375
     33 H3         -9.9970   16.7630  -13.4599 H         1 YFB         0.0375
     34 H4        -13.1656   14.7556  -15.2524 H         1 YFB         0.0375
     35 H5        -12.0300   13.7036  -14.3413 H         1 YFB         0.0375
     36 H6        -11.4186   14.7465  -15.6698 H         1 YFB         0.0375
     37 H7        -12.5055   17.6030  -12.8972 H         1 YFB         0.0244
     38 H8        -14.7273   16.0206  -13.7577 H         1 YFB         0.0361
     39 H9        -14.1744   17.0840  -15.0956 H         1 YFB         0.0361
     40 H10       -14.7888   19.0025  -14.0184 H         1 YFB         0.0426
     41 H11       -14.3931   18.3477  -12.3932 H         1 YFB         0.0426
     42 H12       -18.3652   17.4092  -13.8741 H         1 YFB         0.0377
     43 H13       -16.9990   16.5837  -14.6979 H         1 YFB         0.0377
     44 H14       -17.3153   18.3245  -15.0084 H         1 YFB         0.0377
     45 H15       -17.9919   17.8612  -11.6893 H         1 YFB         0.0254
     46 H16       -15.1781   18.2257  -10.7178 H         1 YFB         0.0443
     47 H17       -16.5943   17.6148   -9.7970 H         1 YFB         0.0443
     48 H18       -19.1418   21.9110   -9.4510 H         1 YFB         0.0383
     49 H19       -20.6869   18.8104   -9.3923 H         1 YFB         0.0576
     50 H20       -20.1721   20.4663   -8.9237 H         1 YFB         0.0576
     51 H21       -19.3035   19.0367   -8.2691 H         1 YFB         0.0576
     52 H22       -13.6434   20.9067   -9.5422 H         1 YFB         0.2469
     53 H23       -18.4558   24.0842   -9.2459 H         1 YFB         0.0441
     54 H24       -16.7370   24.5425   -8.9964 H         1 YFB         0.0441
     55 H25       -16.8888   23.4155   -6.7162 H         1 YFB         0.0448
     56 H26       -18.6609   23.2962   -6.9847 H         1 YFB         0.0448
     57 H27       -19.6254   25.7034   -8.0032 H         1 YFB         0.0557
     58 H28       -19.9039   28.0458   -7.2245 H         1 YFB         0.0599
     59 H29       -18.3357   28.9573   -5.5248 H         1 YFB         0.0559
     60 H30       -16.5251   27.5403   -4.6017 H         1 YFB         0.0599
     61 H31       -16.2515   25.2006   -5.3914 H         1 YFB         0.0557
@<TRIPOS>BOND
     1    1    2 1  
     2    2    3 1  
     3    2    4 2  
     4    4    5 1  
     5    5    6 1  
     6    6    7 1  
     7    7    8 1  
     8    7    9 2  
     9    9   10 1  
    10   10   11 1  
    11   11   12 ar 
    12   11   16 ar 
    13   12   13 ar 
    14   12   14 1  
    15   13   22 ar 
    16   14   15 1  
    17   16   17 1  
    18   16   18 ar 
    19   18   19 1  
    20   18   22 ar 
    21   19   20 ar 
    22   19   21 ar 
    23   22   23 1  
    24   23   24 1  
    25   24   25 1  
    26   25   26 ar 
    27   25   30 ar 
    28   26   27 ar 
    29   27   28 ar 
    30   28   29 ar 
    31   29   30 ar 
    32    1   31 1  
    33    1   32 1  
    34    1   33 1  
    35    3   34 1  
    36    3   35 1  
    37    3   36 1  
    38    4   37 1  
    39    5   38 1  
    40    5   39 1  
    41    6   40 1  
    42    6   41 1  
    43    8   42 1  
    44    8   43 1  
    45    8   44 1  
    46    9   45 1  
    47   10   46 1  
    48   10   47 1  
    49   13   48 1  
    50   15   49 1  
    51   15   50 1  
    52   15   51 1  
    53   17   52 1  
    54   23   53 1  
    55   23   54 1  
    56   24   55 1  
    57   24   56 1  
    58   26   57 1  
    59   27   58 1  
    60   28   59 1  
    61   29   60 1  
    62   30   61 1  
@<TRIPOS>SUBSTRUCTURE
     1 YFB         1

