### 
### Created by X-TOOL on Mon Sep 10 21:13:10 2018
### 

@<TRIPOS>MOLECULE
4a4x_ligand
   66    69     1     0     0
SMALL
GAST_HUCK


@<TRIPOS>ATOM
      1 C01         1.2240  -11.2850   16.2510 C.3       1 JUP        -0.0186
      2 C02         1.8890  -10.7920   14.9790 C.3       1 JUP         0.1288
      3 O03         2.9760   -9.9420   15.2640 O.3       1 JUP        -0.2915
      4 C04         3.5980   -9.1700   14.2160 C.ar      1 JUP         0.1156
      5 C05         2.8980   -8.8900   13.0130 C.ar      1 JUP        -0.0215
      6 C06         3.5500   -8.1440   11.9820 C.ar      1 JUP        -0.0215
      7 C07         2.8640   -7.8730   10.7770 C.ar      1 JUP         0.0282
      8 C08         2.2650   -8.9380   10.0870 C.ar      1 JUP        -0.0384
      9 C09         1.5690   -8.6450    8.8940 C.ar      1 JUP         0.0038
     10 C10         0.9680   -9.6480    8.1500 C.2       1 JUP         0.0306
     11 C11         0.4320   -9.6100    6.8680 C.2       1 JUP        -0.0606
     12 C12        -0.1010  -10.7660    6.3910 C.2       1 JUP        -0.0158
     13 C13        -0.7060  -10.9090    4.9660 C.3       1 JUP        -0.0103
     14 N14        -2.1260  -10.4630    4.8300 N.4       1 JUP         0.2396
     15 C15        -2.1770   -9.4200    3.8330 C.3       1 JUP        -0.0423
     16 C16        -2.9190  -11.6100    4.3570 C.3       1 JUP        -0.0423
     17 C17        -0.0600  -11.8900    7.2330 C.2       1 JUP        -0.0081
     18 S18         0.7490  -11.2700    8.6110 S.3       1 JUP        -0.0528
     19 C19         1.5100   -7.2860    8.4460 C.ar      1 JUP         0.0043
     20 N20         2.0900   -6.2920    9.1310 N.ar      1 JUP        -0.2827
     21 C21         2.7650   -6.5400   10.2860 C.ar      1 JUP         0.1201
     22 N22         3.3890   -5.4350   10.9960 N.pl3     1 JUP        -0.3196
     23 C23         4.8640   -7.6810   12.1690 C.ar      1 JUP        -0.0612
     24 C24         5.5420   -7.9430   13.3750 C.ar      1 JUP        -0.0511
     25 C25         4.9140   -8.6910   14.3890 C.ar      1 JUP         0.0769
     26 C26         5.6360   -8.9640   15.6410 C.2       1 JUP         0.1957
     27 N27         5.0290   -9.8180   16.6440 N.am      1 JUP        -0.3022
     28 O28         6.7150   -8.4760   15.8100 O.2       1 JUP        -0.3919
     29 C29         2.1380  -11.9040   13.9750 C.ar      1 JUP         0.0244
     30 C30         3.3500  -12.6220   14.0180 C.ar      1 JUP        -0.0263
     31 C31         3.6150  -13.6560   13.0940 C.ar      1 JUP        -0.0405
     32 C32         2.6380  -13.9780   12.1330 C.ar      1 JUP        -0.0392
     33 C33         1.3850  -13.2650   12.1100 C.ar      1 JUP        -0.0379
     34 C34         1.1370  -12.2410   13.0240 C.ar      1 JUP         0.0519
     35 C35        -0.1850  -11.4830   12.9270 C.3       1 JUP         0.3706
     36 F36        -0.8750  -11.4330   14.0880 F         1 JUP        -0.2263
     37 F37         0.0310  -10.1920   12.5510 F         1 JUP        -0.2263
     38 F38        -0.9080  -12.1140   12.0240 F         1 JUP        -0.2263
     39 H1          0.3820  -11.9441   15.9928 H         1 JUP         0.0291
     40 H2          0.8529  -10.4250   16.8278 H         1 JUP         0.0291
     41 H3          1.9550  -11.8433   16.8543 H         1 JUP         0.0291
     42 H4          1.1465  -10.1431   14.4916 H         1 JUP         0.0895
     43 H5          1.8803   -9.2380   12.8776 H         1 JUP         0.0542
     44 H6          2.3345   -9.9540   10.4584 H         1 JUP         0.0698
     45 H7          0.4387   -8.6974    6.2739 H         1 JUP         0.0407
     46 H8         -0.6534  -11.9695    4.6788 H         1 JUP         0.0931
     47 H9         -0.0939  -10.3111    4.2748 H         1 JUP         0.0931
     48 H10        -2.4801  -10.1270    5.7119 H         1 JUP         0.2038
     49 H11        -3.2150   -9.0754    3.7157 H         1 JUP         0.0778
     50 H12        -1.8101   -9.8121    2.8730 H         1 JUP         0.0778
     51 H13        -1.5448   -8.5778    4.1507 H         1 JUP         0.0778
     52 H14        -2.8879  -12.4123    5.1089 H         1 JUP         0.0778
     53 H15        -2.5003  -11.9794    3.4092 H         1 JUP         0.0778
     54 H16        -3.9612  -11.2953    4.1996 H         1 JUP         0.0778
     55 H17        -0.4427  -12.8941    7.0561 H         1 JUP         0.0592
     56 H18         0.9817   -7.0557    7.5279 H         1 JUP         0.0782
     57 H19         3.3089   -4.4761   10.6287 H         1 JUP         0.1790
     58 H20         3.9111   -5.6112   11.8662 H         1 JUP         0.1790
     59 H21         5.3567   -7.1207   11.3826 H         1 JUP         0.0533
     60 H22         6.5484   -7.5684   13.5228 H         1 JUP         0.0637
     61 H23         5.5133  -10.0085   17.4979 H         1 JUP         0.1803
     62 H24         4.1262  -10.2162   16.4816 H         1 JUP         0.1803
     63 H25         4.0896  -12.3767   14.7716 H         1 JUP         0.0637
     64 H26         4.5559  -14.1935   13.1241 H         1 JUP         0.0834
     65 H27         2.8279  -14.7627   11.4096 H         1 JUP         0.0648
     66 H28         0.6303  -13.5266   11.3771 H         1 JUP         0.0820
@<TRIPOS>BOND
     1    1    2 1  
     2    2    3 1  
     3    2   29 1  
     4    3    4 1  
     5    4    5 ar 
     6    4   25 ar 
     7    5    6 ar 
     8    6    7 1  
     9    6   23 ar 
    10    7    8 ar 
    11    7   21 ar 
    12    8    9 ar 
    13    9   10 1  
    14    9   19 ar 
    15   10   11 2  
    16   10   18 1  
    17   11   12 1  
    18   12   13 1  
    19   12   17 2  
    20   13   14 1  
    21   14   15 1  
    22   14   16 1  
    23   17   18 1  
    24   19   20 ar 
    25   20   21 ar 
    26   21   22 1  
    27   23   24 ar 
    28   24   25 ar 
    29   25   26 1  
    30   26   27 am 
    31   26   28 2  
    32   29   30 ar 
    33   29   34 ar 
    34   30   31 ar 
    35   31   32 ar 
    36   32   33 ar 
    37   33   34 ar 
    38   34   35 1  
    39   35   36 1  
    40   35   37 1  
    41   35   38 1  
    42    1   39 1  
    43    1   40 1  
    44    1   41 1  
    45    2   42 1  
    46    5   43 1  
    47    8   44 1  
    48   11   45 1  
    49   13   46 1  
    50   13   47 1  
    51   14   48 1  
    52   15   49 1  
    53   15   50 1  
    54   15   51 1  
    55   16   52 1  
    56   16   53 1  
    57   16   54 1  
    58   17   55 1  
    59   19   56 1  
    60   22   57 1  
    61   22   58 1  
    62   23   59 1  
    63   24   60 1  
    64   27   61 1  
    65   27   62 1  
    66   30   63 1  
    67   31   64 1  
    68   32   65 1  
    69   33   66 1  
@<TRIPOS>SUBSTRUCTURE
     1 JUP         1

