### 
### Created by X-TOOL on Mon Sep 10 21:13:10 2018
### 

@<TRIPOS>MOLECULE
4a50_ligand
   52    54     1     0     0
SMALL
GAST_HUCK


@<TRIPOS>ATOM
      1 CAA        17.0020    6.4490  -21.4200 C.3       1 DQ6        -0.0271
      2 CAV        16.0530    7.3010  -22.2550 C.ar      1 DQ6        -0.0282
      3 CAR        14.8670    6.7420  -22.7280 C.ar      1 DQ6        -0.0556
      4 CAL        16.3840    8.6290  -22.5260 C.ar      1 DQ6        -0.0419
      5 CAK        15.5140    9.4030  -23.2900 C.ar      1 DQ6        -0.0495
      6 CAQ        14.3190    8.8480  -23.7550 C.ar      1 DQ6        -0.0626
      7 CAY        13.9990    7.5070  -23.5030 C.ar      1 DQ6        -0.0890
      8 CBA        12.6600    6.9340  -24.0310 C.3       1 DQ6        -0.0276
      9 CAX        12.6170    5.4500  -24.4310 C.ar      1 DQ6        -0.0821
     10 CAO        11.4160    4.7470  -24.3130 C.ar      1 DQ6        -0.0563
     11 CAI        11.3210    3.4100  -24.6990 C.ar      1 DQ6        -0.0435
     12 CAF        12.4380    2.7720  -25.2320 C.ar      1 DQ6        -0.0437
     13 CAJ        13.6340    3.4760  -25.3700 C.ar      1 DQ6        -0.0435
     14 CAP        13.7200    4.8160  -24.9900 C.ar      1 DQ6        -0.0563
     15 CAT        11.6140    7.2090  -22.9450 C.3       1 DQ6        -0.0833
     16 CB         12.1320    6.7850  -21.5750 C.3       1 DQ6        -0.0105
     17 CA         11.0500    6.9250  -20.5150 C.3       1 DQ6         0.0270
     18 C          11.5590    6.2960  -19.1840 C.2       1 DQ6         0.0844
     19 OXT        11.6000    5.0320  -19.0960 O.co2     1 DQ6        -0.5643
     20 O          11.9420    7.0970  -18.2920 O.co2     1 DQ6        -0.5643
     21 N          10.7630    8.3670  -20.4110 N.4       1 DQ6         0.2326
     22 CAW        12.2230    7.6390  -25.3130 C.ar      1 DQ6        -0.0821
     23 CAM        13.0940    7.7000  -26.3980 C.ar      1 DQ6        -0.0563
     24 CAG        12.7160    8.3560  -27.5660 C.ar      1 DQ6        -0.0435
     25 CAE        11.4470    8.9160  -27.6500 C.ar      1 DQ6        -0.0437
     26 CAH        10.5640    8.8300  -26.5740 C.ar      1 DQ6        -0.0435
     27 CAN        10.9450    8.1840  -25.4010 C.ar      1 DQ6        -0.0563
     28 H          16.4873    6.1083  -20.5216 H         1 DQ6         0.0394
     29 H          17.3242    5.5873  -22.0045 H         1 DQ6         0.0394
     30 H          17.8707    7.0443  -21.1389 H         1 DQ6         0.0394
     31 H          14.6192    5.7072  -22.4915 H         1 DQ6         0.0691
     32 H          17.3118    9.0554  -22.1446 H         1 DQ6         0.0717
     33 H          15.7644   10.4377  -23.5243 H         1 DQ6         0.0653
     34 H          13.6248    9.4677  -24.3226 H         1 DQ6         0.0707
     35 H          10.5372    5.2521  -23.9121 H         1 DQ6         0.0760
     36 H          10.3813    2.8698  -24.5845 H         1 DQ6         0.0669
     37 H          12.3780    1.7281  -25.5397 H         1 DQ6         0.0772
     38 H          14.5109    2.9742  -25.7790 H         1 DQ6         0.0669
     39 H          14.6512    5.3647  -25.1315 H         1 DQ6         0.0760
     40 H          10.7131    6.6389  -23.1721 H         1 DQ6         0.0097
     41 H          11.4007    8.2777  -22.9249 H         1 DQ6         0.0097
     42 H          12.9709    7.4263  -21.3048 H         1 DQ6         0.0325
     43 H          12.4387    5.7403  -21.6254 H         1 DQ6         0.0325
     44 H          10.1289    6.3981  -20.7642 H         1 DQ6         0.1024
     45 H          10.0388    8.5185  -19.7088 H         1 DQ6         0.2010
     46 H          11.6118    8.8626  -20.1382 H         1 DQ6         0.2010
     47 H          10.4405    8.7143  -21.3142 H         1 DQ6         0.2010
     48 H          14.0762    7.2319  -26.3322 H         1 DQ6         0.0760
     49 H          13.4076    8.4296  -28.4053 H         1 DQ6         0.0669
     50 H          11.1397    9.4259  -28.5630 H         1 DQ6         0.0772
     51 H           9.5702    9.2709  -26.6518 H         1 DQ6         0.0669
     52 H          10.2522    8.1060  -24.5631 H         1 DQ6         0.0760
@<TRIPOS>BOND
     1    1    2 1  
     2    2    3 ar 
     3    2    4 ar 
     4    3    7 ar 
     5    4    5 ar 
     6    5    6 ar 
     7    6    7 ar 
     8    7    8 1  
     9    8    9 1  
    10    8   15 1  
    11    8   22 1  
    12    9   10 ar 
    13    9   14 ar 
    14   10   11 ar 
    15   11   12 ar 
    16   12   13 ar 
    17   13   14 ar 
    18   15   16 1  
    19   16   17 1  
    20   17   18 1  
    21   17   21 1  
    22   18   19 ar 
    23   18   20 ar 
    24   22   23 ar 
    25   22   27 ar 
    26   23   24 ar 
    27   24   25 ar 
    28   25   26 ar 
    29   26   27 ar 
    30    1   28 1  
    31    1   29 1  
    32    1   30 1  
    33    3   31 1  
    34    4   32 1  
    35    5   33 1  
    36    6   34 1  
    37   10   35 1  
    38   11   36 1  
    39   12   37 1  
    40   13   38 1  
    41   14   39 1  
    42   15   40 1  
    43   15   41 1  
    44   16   42 1  
    45   16   43 1  
    46   17   44 1  
    47   21   45 1  
    48   21   46 1  
    49   21   47 1  
    50   23   48 1  
    51   24   49 1  
    52   25   50 1  
    53   26   51 1  
    54   27   52 1  
@<TRIPOS>SUBSTRUCTURE
     1 DQ6         1

