### 
### Created by X-TOOL on Mon Sep 10 21:13:11 2018
### 

@<TRIPOS>MOLECULE
4a51_ligand
   50    52     1     0     0
SMALL
GAST_HUCK


@<TRIPOS>ATOM
      1 CAA       -14.0830  -45.1680   25.1790 C.3       1 DQ8         0.0113
      2 CAU       -13.4300  -44.8040   26.4840 C.2       1 DQ8         0.1344
      3 OAC       -13.8690  -43.8750   27.1460 O.2       1 DQ8        -0.3782
      4 CAV       -12.2930  -45.6130   27.0640 C.ar      1 DQ8         0.0505
      5 CAQ       -11.6930  -45.0780   28.1790 C.ar      1 DQ8        -0.0364
      6 CAK       -11.8090  -46.7740   26.4810 C.ar      1 DQ8        -0.0253
      7 CAJ       -10.7330  -47.4130   27.0700 C.ar      1 DQ8        -0.0381
      8 CAP       -10.1500  -46.8810   28.2110 C.ar      1 DQ8        -0.0513
      9 CAY       -10.6160  -45.7010   28.7480 C.ar      1 DQ8        -0.0661
     10 CAZ       -10.0240  -45.1050   30.0020 C.3       1 DQ8         0.0195
     11 CAX        -9.9450  -43.5830   30.0690 C.ar      1 DQ8        -0.0721
     12 CAN        -9.3460  -42.8450   29.0700 C.ar      1 DQ8        -0.0555
     13 CAH        -9.2790  -41.4680   29.1910 C.ar      1 DQ8        -0.0434
     14 CAE        -9.8030  -40.8320   30.3130 C.ar      1 DQ8        -0.0437
     15 CAI       -10.3990  -41.5580   31.3270 C.ar      1 DQ8        -0.0434
     16 CAO       -10.4530  -42.9320   31.1910 C.ar      1 DQ8        -0.0555
     17 SAT       -11.2030  -45.5770   31.3320 S.3       1 DQ8        -0.2217
     18 CAS       -12.8490  -44.8670   30.8220 C.3       1 DQ8         0.0188
     19 CAR       -13.9840  -45.0440   31.8480 C.3       1 DQ8        -0.0276
     20 NAB       -14.1850  -46.4820   32.1170 N.4       1 DQ8         0.2191
     21 CAW        -8.6160  -45.6160   30.3020 C.ar      1 DQ8        -0.0721
     22 CAL        -7.6660  -45.7370   29.3110 C.ar      1 DQ8        -0.0555
     23 CAF        -6.3860  -46.1980   29.6260 C.ar      1 DQ8        -0.0434
     24 CAD        -6.0260  -46.5180   30.9260 C.ar      1 DQ8        -0.0437
     25 CAG        -6.9750  -46.3830   31.9230 C.ar      1 DQ8        -0.0434
     26 CAM        -8.2520  -45.9320   31.6050 C.ar      1 DQ8        -0.0555
     27 H         -15.1238  -45.4379   25.3578 H         1 DQ8         0.0450
     28 H         -14.0387  -44.3151   24.5017 H         1 DQ8         0.0450
     29 H         -13.5581  -46.0138   24.7350 H         1 DQ8         0.0450
     30 H         -12.0767  -44.1540   28.6115 H         1 DQ8         0.0820
     31 H         -12.2671  -47.1750   25.5769 H         1 DQ8         0.0823
     32 H         -10.3431  -48.3345   26.6377 H         1 DQ8         0.0680
     33 H          -9.3175  -47.4002   28.6858 H         1 DQ8         0.0794
     34 H          -8.9293  -43.3413   28.1936 H         1 DQ8         0.0760
     35 H          -8.8128  -40.8774   28.4024 H         1 DQ8         0.0669
     36 H          -9.7425  -39.7466   30.3930 H         1 DQ8         0.0772
     37 H         -10.8129  -41.0628   32.2053 H         1 DQ8         0.0669
     38 H         -10.9067  -43.5244   31.9855 H         1 DQ8         0.0760
     39 H         -13.1546  -45.3995   29.9214 H         1 DQ8         0.0414
     40 H         -12.7028  -43.7940   30.6982 H         1 DQ8         0.0414
     41 H         -14.9041  -44.6170   31.4490 H         1 DQ8         0.0821
     42 H         -13.7187  -44.5348   32.7745 H         1 DQ8         0.0821
     43 H         -14.9368  -46.5977   32.7965 H         1 DQ8         0.1994
     44 H         -14.4331  -46.9575   31.2494 H         1 DQ8         0.1994
     45 H         -13.3234  -46.8805   32.4902 H         1 DQ8         0.1994
     46 H          -7.9134  -45.4732   28.2827 H         1 DQ8         0.0760
     47 H          -5.6508  -46.3091   28.8290 H         1 DQ8         0.0669
     48 H          -5.0196  -46.8674   31.1567 H         1 DQ8         0.0772
     49 H          -6.7232  -46.6292   32.9545 H         1 DQ8         0.0669
     50 H          -8.9884  -45.8234   32.4013 H         1 DQ8         0.0760
@<TRIPOS>BOND
     1    1    2 1  
     2    2    3 2  
     3    2    4 1  
     4    4    5 ar 
     5    4    6 ar 
     6    5    9 ar 
     7    6    7 ar 
     8    7    8 ar 
     9    8    9 ar 
    10    9   10 1  
    11   10   11 1  
    12   10   17 1  
    13   10   21 1  
    14   11   12 ar 
    15   11   16 ar 
    16   12   13 ar 
    17   13   14 ar 
    18   14   15 ar 
    19   15   16 ar 
    20   17   18 1  
    21   18   19 1  
    22   19   20 1  
    23   21   22 ar 
    24   21   26 ar 
    25   22   23 ar 
    26   23   24 ar 
    27   24   25 ar 
    28   25   26 ar 
    29    1   27 1  
    30    1   28 1  
    31    1   29 1  
    32    5   30 1  
    33    6   31 1  
    34    7   32 1  
    35    8   33 1  
    36   12   34 1  
    37   13   35 1  
    38   14   36 1  
    39   15   37 1  
    40   16   38 1  
    41   18   39 1  
    42   18   40 1  
    43   19   41 1  
    44   19   42 1  
    45   20   43 1  
    46   20   44 1  
    47   20   45 1  
    48   22   46 1  
    49   23   47 1  
    50   24   48 1  
    51   25   49 1  
    52   26   50 1  
@<TRIPOS>SUBSTRUCTURE
     1 DQ8         1

