### 
### Created by X-TOOL on Mon Sep 10 21:13:11 2018
### 

@<TRIPOS>MOLECULE
4a6b_ligand
  107   112     1     0     0
SMALL
GAST_HUCK


@<TRIPOS>ATOM
      1 C1         10.5810   24.1940    6.1680 C.2       1 QG8         0.2109
      2 O2         10.3020   23.1950    6.8270 O.2       1 QG8        -0.3437
      3 C3         11.8820   24.2760    5.2930 C.3       1 QG8         0.0888
      4 C4         11.8990   25.8270    5.0080 C.3       1 QG8         0.0901
      5 C5         10.4780   26.2600    5.2200 C.3       1 QG8         0.0621
      6 N6          9.8420   25.3180    6.1030 N.am      1 QG8        -0.2537
      7 C7          8.5550   25.5940    6.8020 C.3       1 QG8         0.1038
      8 C8          8.4680   26.8600    7.6580 C.ar      1 QG8        -0.0129
      9 C9          7.1380   27.3880    7.6210 C.ar      1 QG8        -0.0360
     10 C10         6.2480   26.5480    6.7520 C.3       1 QG8         0.0085
     11 C11         7.2470   25.7020    5.9240 C.3       1 QG8         0.0954
     12 O12         7.4050   26.4330    4.7030 O.3       1 QG8        -0.3856
     13 C13         6.7760   28.5910    8.3480 C.ar      1 QG8        -0.0667
     14 C14         7.8020   29.2680    9.1300 C.ar      1 QG8        -0.0755
     15 C15         9.1680   28.7350    9.1690 C.ar      1 QG8        -0.0754
     16 C16         9.5100   27.5230    8.4370 C.ar      1 QG8        -0.0646
     17 O17        12.6160   26.6320    5.9050 O.3       1 QG8        -0.3902
     18 C18        14.4990   24.0060    5.5580 C.3       1 QG8        -0.0119
     19 C19        15.6380   23.8450    6.5310 C.3       1 QG8        -0.0059
     20 C20        13.0820   23.7840    6.1560 C.3       1 QG8        -0.0316
     21 C21        11.7550   23.3560    3.9420 C.3       1 QG8        -0.0043
     22 C22        10.6600   23.7040    2.9080 C.ar      1 QG8        -0.0434
     23 C23        10.9410   24.5980    1.7910 C.ar      1 QG8        -0.0605
     24 C24         9.9050   24.9210    0.8390 C.ar      1 QG8        -0.0686
     25 C25         8.5840   24.3600    0.9900 C.ar      1 QG8        -0.0687
     26 C26         8.3020   23.4750    2.0900 C.ar      1 QG8        -0.0686
     27 C27         9.3240   23.1420    3.0480 C.ar      1 QG8        -0.0605
     28 C28        17.7430   17.3490   10.8930 C.ar      1 QG8        -0.0221
     29 C29        17.4430   18.6510   10.2400 C.ar      1 QG8        -0.0242
     30 C30        18.5370   19.4900    9.7600 C.ar      1 QG8        -0.0599
     31 C31        18.2780   20.7620    9.1260 C.ar      1 QG8        -0.0539
     32 C32        16.9170   21.2340    8.9530 C.ar      1 QG8         0.0032
     33 C33        15.7980   20.4180    9.4210 C.ar      1 QG8        -0.0539
     34 C34        16.0620   19.1290   10.0620 C.ar      1 QG8        -0.0599
     35 C35        16.7130   22.5890    8.2800 C.3       1 QG8         0.0271
     36 N36        15.7740   22.5130    7.1350 N.4       1 QG8         0.3800
     37 N37        16.2600   21.6140    6.1680 N.am      1 QG8        -0.2494
     38 C38        15.5500   20.6050    5.6480 C.2       1 QG8         0.2392
     39 C39        16.3590   19.7980    4.6180 C.3       1 QG8         0.1419
     40 N40        17.1470   18.9070    5.4710 N.am      1 QG8        -0.2405
     41 C41        18.5150   19.0190    5.6740 C.2       1 QG8         0.3216
     42 O42        18.8950   18.0300    6.5190 O.3       1 QG8        -0.2672
     43 C43        20.2570   17.8860    6.9140 C.3       1 QG8         0.0663
     44 O44        19.2320   19.8900    5.1520 O.2       1 QG8        -0.3774
     45 C45        15.5870   18.8970    3.5410 C.3       1 QG8         0.0027
     46 C46        14.7390   19.8260    2.6260 C.3       1 QG8        -0.0558
     47 C47        16.6130   18.1840    2.6090 C.3       1 QG8        -0.0558
     48 C48        14.6830   17.7890    4.1490 C.3       1 QG8        -0.0558
     49 O49        14.3770   20.3610    5.9720 O.2       1 QG8        -0.3898
     50 C50        17.8420   17.2480   12.3500 C.ar      1 QG8        -0.0557
     51 C51        18.1330   15.9780   12.9980 C.ar      1 QG8        -0.0622
     52 C52        18.3310   14.7810   12.1920 C.ar      1 QG8        -0.0627
     53 C53        18.2380   14.8610   10.7400 C.ar      1 QG8        -0.0622
     54 C54        17.9460   16.1310   10.0950 C.ar      1 QG8        -0.0557
     55 H1         12.2468   26.0106    3.9807 H         1 QG8         0.0607
     56 H2          9.9485   26.2812    4.2561 H         1 QG8         0.0550
     57 H3         10.4588   27.2631    5.6711 H         1 QG8         0.0550
     58 H4          8.4240   24.7349    7.4764 H         1 QG8         0.0736
     59 H5          5.6291   27.1786    6.0968 H         1 QG8         0.0439
     60 H6          5.5976   25.9035    7.3616 H         1 QG8         0.0439
     61 H7          6.8561   24.6956    5.7134 H         1 QG8         0.0659
     62 H8          7.7459   27.2986    4.8953 H         1 QG8         0.2103
     63 H9          5.7639   28.9774    8.3099 H         1 QG8         0.0537
     64 H10         7.5556   30.1667    9.6837 H         1 QG8         0.0541
     65 H11         9.9288   29.2470    9.7470 H         1 QG8         0.0541
     66 H12        10.5165   27.1218    8.4699 H         1 QG8         0.0538
     67 H13        13.5415   26.4270    5.8425 H         1 QG8         0.2097
     68 H14        14.6421   23.2807    4.7434 H         1 QG8         0.0315
     69 H15        14.5406   25.0272    5.1513 H         1 QG8         0.0315
     70 H16        15.4939   24.5719    7.3439 H         1 QG8         0.0822
     71 H17        16.5730   24.0717    5.9978 H         1 QG8         0.0822
     72 H18        12.9543   22.7042    6.3224 H         1 QG8         0.0261
     73 H19        13.0393   24.3113    7.1204 H         1 QG8         0.0261
     74 H20        11.5736   22.3219    4.2702 H         1 QG8         0.0419
     75 H21        12.7220   23.4110    3.4206 H         1 QG8         0.0419
     76 H22        11.9319   25.0219    1.6749 H         1 QG8         0.0557
     77 H23        10.1195   25.5856    0.0099 H         1 QG8         0.0599
     78 H24         7.8054   24.6045    0.2765 H         1 QG8         0.0559
     79 H25         7.3088   23.0545    2.1982 H         1 QG8         0.0599
     80 H26         9.0993   22.4743    3.8718 H         1 QG8         0.0557
     81 H27        19.5602   19.1531    9.8813 H         1 QG8         0.0609
     82 H28        19.1063   21.3680    8.7771 H         1 QG8         0.0562
     83 H29        14.7791   20.7654    9.2941 H         1 QG8         0.0562
     84 H30        15.2339   18.5213   10.4085 H         1 QG8         0.0609
     85 H31        17.6852   22.9534    7.9166 H         1 QG8         0.0992
     86 H32        16.3105   23.2951    9.0212 H         1 QG8         0.0992
     87 H33        14.8741   22.1976    7.4617 H         1 QG8         0.2321
     88 H34        17.1992   21.7370    5.8474 H         1 QG8         0.2384
     89 H35        17.0101   20.4903    4.0641 H         1 QG8         0.0806
     90 H36        16.6661   18.1662    5.9400 H         1 QG8         0.1899
     91 H37        20.3520   17.0292    7.5973 H         1 QG8         0.0575
     92 H38        20.5892   18.8014    7.4255 H         1 QG8         0.0575
     93 H39        20.8809   17.7162    6.0241 H         1 QG8         0.0575
     94 H40        14.2038   19.2182    1.8817 H         1 QG8         0.0237
     95 H41        15.4014   20.5371    2.1108 H         1 QG8         0.0237
     96 H42        14.0121   20.3796    3.2384 H         1 QG8         0.0237
     97 H43        17.2440   17.5095    3.2064 H         1 QG8         0.0237
     98 H44        17.2455   18.9369    2.1160 H         1 QG8         0.0237
     99 H45        16.0736   17.6023    1.8470 H         1 QG8         0.0237
    100 H46        13.9396   18.2481    4.8173 H         1 QG8         0.0237
    101 H47        15.3029   17.0825    4.7205 H         1 QG8         0.0237
    102 H48        14.1665   17.2521    3.3397 H         1 QG8         0.0237
    103 H49        17.6960   18.1345   12.9566 H         1 QG8         0.0615
    104 H50        18.2023   15.9229   14.0784 H         1 QG8         0.0615
    105 H51        18.5470   13.8330   12.6712 H         1 QG8         0.0610
    106 H52        18.3869   13.9712   10.1390 H         1 QG8         0.0615
    107 H53        17.8773   16.1803    9.0143 H         1 QG8         0.0615
@<TRIPOS>BOND
     1    1    2 2  
     2    3    1 1  
     3    1    6 am 
     4    3    4 1  
     5   20    3 1  
     6    3   21 1  
     7    4    5 1  
     8    4   17 1  
     9    5    6 1  
    10    6    7 1  
    11    7    8 1  
    12    7   11 1  
    13    8    9 ar 
    14    8   16 ar 
    15   10    9 1  
    16    9   13 ar 
    17   11   10 1  
    18   11   12 1  
    19   13   14 ar 
    20   15   14 ar 
    21   16   15 ar 
    22   19   18 1  
    23   18   20 1  
    24   36   19 1  
    25   21   22 1  
    26   22   23 ar 
    27   22   27 ar 
    28   23   24 ar 
    29   24   25 ar 
    30   26   25 ar 
    31   27   26 ar 
    32   29   28 1  
    33   28   50 ar 
    34   28   54 ar 
    35   30   29 ar 
    36   34   29 ar 
    37   31   30 ar 
    38   32   31 ar 
    39   32   33 ar 
    40   35   32 1  
    41   33   34 ar 
    42   35   36 1  
    43   36   37 1  
    44   37   38 am 
    45   38   39 1  
    46   38   49 2  
    47   39   40 1  
    48   39   45 1  
    49   40   41 am 
    50   41   42 1  
    51   41   44 2  
    52   42   43 1  
    53   45   46 1  
    54   45   47 1  
    55   45   48 1  
    56   50   51 ar 
    57   51   52 ar 
    58   52   53 ar 
    59   53   54 ar 
    60    4   55 1  
    61    5   56 1  
    62    5   57 1  
    63    7   58 1  
    64   10   59 1  
    65   10   60 1  
    66   11   61 1  
    67   12   62 1  
    68   13   63 1  
    69   14   64 1  
    70   15   65 1  
    71   16   66 1  
    72   17   67 1  
    73   18   68 1  
    74   18   69 1  
    75   19   70 1  
    76   19   71 1  
    77   20   72 1  
    78   20   73 1  
    79   21   74 1  
    80   21   75 1  
    81   23   76 1  
    82   24   77 1  
    83   25   78 1  
    84   26   79 1  
    85   27   80 1  
    86   30   81 1  
    87   31   82 1  
    88   33   83 1  
    89   34   84 1  
    90   35   85 1  
    91   35   86 1  
    92   36   87 1  
    93   37   88 1  
    94   39   89 1  
    95   40   90 1  
    96   43   91 1  
    97   43   92 1  
    98   43   93 1  
    99   46   94 1  
   100   46   95 1  
   101   46   96 1  
   102   47   97 1  
   103   47   98 1  
   104   47   99 1  
   105   48  100 1  
   106   48  101 1  
   107   48  102 1  
   108   50  103 1  
   109   51  104 1  
   110   52  105 1  
   111   53  106 1  
   112   54  107 1  
@<TRIPOS>SUBSTRUCTURE
     1 QG8         1

