### 
### Created by X-TOOL on Mon Sep 10 21:13:11 2018
### 

@<TRIPOS>MOLECULE
4a6c_ligand
  106   111     1     0     0
SMALL
GAST_HUCK


@<TRIPOS>ATOM
      1 C1         10.7320   24.3680    6.1060 C.2       1 QG9         0.2109
      2 O2         10.5130   23.3840    6.8300 O.2       1 QG9        -0.3437
      3 C4         11.9630   26.0240    4.9070 C.3       1 QG9         0.0901
      4 C5         10.5140   26.3540    5.0220 C.3       1 QG9         0.0621
      5 N6          9.9160   25.4100    5.9350 N.am      1 QG9        -0.2537
      6 C7          8.5990   25.6310    6.5670 C.3       1 QG9         0.1038
      7 C8          8.4340   26.8860    7.4080 C.ar      1 QG9        -0.0129
      8 C9          7.0810   27.3170    7.3520 C.ar      1 QG9        -0.0360
      9 C10         6.2640   26.4010    6.4850 C.3       1 QG9         0.0085
     10 C11         7.3360   25.6980    5.6230 C.3       1 QG9         0.0954
     11 O12         7.4970   26.5270    4.4680 O.3       1 QG9        -0.3856
     12 C13         6.6340   28.4960    8.0560 C.ar      1 QG9        -0.0667
     13 C14         7.6070   29.2440    8.8420 C.ar      1 QG9        -0.0755
     14 C15         9.0010   28.8080    8.9060 C.ar      1 QG9        -0.0754
     15 C16         9.4290   27.6190    8.1900 C.ar      1 QG9        -0.0646
     16 O17        12.5660   26.9050    5.8200 O.3       1 QG9        -0.3902
     17 C18        14.6380   24.4000    5.6370 C.3       1 QG9        -0.0119
     18 C19        15.7440   24.1370    6.6190 C.3       1 QG9        -0.0058
     19 C21        12.0790   23.4740    3.9710 C.3       1 QG9        -0.0043
     20 C22        10.8350   23.6470    2.9730 C.ar      1 QG9        -0.0434
     21 C27        10.4760   24.6140    1.9390 C.ar      1 QG9        -0.0605
     22 C26         9.2520   24.4940    1.1880 C.ar      1 QG9        -0.0686
     23 C25         8.3500   23.3960    1.4560 C.ar      1 QG9        -0.0687
     24 C24         8.6830   22.4190    2.4790 C.ar      1 QG9        -0.0686
     25 C23         9.9110   22.5350    3.2350 C.ar      1 QG9        -0.0605
     26 C28        17.1980   17.5490   11.0130 C.ar      1 QG9        -0.0034
     27 C29        17.0830   18.9050   10.3180 C.ar      1 QG9        -0.0152
     28 C30        18.2770   19.6290    9.8550 C.ar      1 QG9        -0.0569
     29 C31        18.1860   20.9160    9.1950 C.ar      1 QG9        -0.0521
     30 C32        16.9020   21.5310    8.9740 C.ar      1 QG9         0.0049
     31 C33        15.6930   20.8540    9.4160 C.ar      1 QG9        -0.0521
     32 C34        15.7810   19.5580   10.0790 C.ar      1 QG9        -0.0569
     33 C35        16.7070   22.7770    8.3390 C.3       1 QG9         0.0278
     34 N36        15.8020   22.7940    7.1660 N.4       1 QG9         0.3802
     35 N37        16.2440   21.8850    6.1970 N.am      1 QG9        -0.2494
     36 C38        15.5070   20.8670    5.7160 C.2       1 QG9         0.2392
     37 C39        16.2930   20.0420    4.6950 C.3       1 QG9         0.1419
     38 N40        17.0760   19.1570    5.5950 N.am      1 QG9        -0.2405
     39 C41        18.4560   19.2700    5.7740 C.2       1 QG9         0.3216
     40 O42        18.8770   18.3410    6.6620 O.3       1 QG9        -0.2672
     41 C43        20.2620   18.2660    7.0120 C.3       1 QG9         0.0663
     42 O44        19.1680   20.1050    5.2010 O.2       1 QG9        -0.3774
     43 C45        15.5340   19.2240    3.5680 C.3       1 QG9         0.0027
     44 C46        14.5750   18.1420    4.1210 C.3       1 QG9        -0.0558
     45 C47        14.7430   20.1960    2.6610 C.3       1 QG9        -0.0558
     46 C48        16.5590   18.4930    2.6520 C.3       1 QG9        -0.0558
     47 O49        14.3460   20.6210    6.0770 O.2       1 QG9        -0.3898
     48 C54        18.5010   17.0180   11.1900 C.ar      1 QG9        -0.0289
     49 C53        18.6880   15.7870   11.8160 C.ar      1 QG9         0.0089
     50 N52        17.5780   15.0050   12.3040 N.ar      1 QG9        -0.3001
     51 C51        16.2300   15.5230   12.1360 C.ar      1 QG9         0.0089
     52 C3         12.0240   24.4970    5.2620 C.3       1 QG9         0.0888
     53 C50        16.0320   16.7960   11.4870 C.ar      1 QG9        -0.0289
     54 C20        13.2130   24.2100    6.2240 C.3       1 QG9        -0.0316
     55 H1         12.3617   26.1934    3.8959 H         1 QG9         0.0607
     56 H2         10.0333   26.2760    4.0357 H         1 QG9         0.0550
     57 H3         10.3930   27.3765    5.4091 H         1 QG9         0.0550
     58 H4          8.4649   24.7667    7.2340 H         1 QG9         0.0736
     59 H5          5.5624   26.9706    5.8578 H         1 QG9         0.0439
     60 H6          5.7054   25.6741    7.0929 H         1 QG9         0.0439
     61 H7          7.0302   24.6854    5.3210 H         1 QG9         0.0659
     62 H8          6.6681   26.5923    4.0084 H         1 QG9         0.2103
     63 H9          5.6000   28.8168    8.0012 H         1 QG9         0.0537
     64 H10         7.2949   30.1300    9.3830 H         1 QG9         0.0541
     65 H11         9.7177   29.3741    9.4899 H         1 QG9         0.0541
     66 H12        10.4589   27.2837    8.2341 H         1 QG9         0.0538
     67 H13        13.5060   26.7674    5.8175 H         1 QG9         0.2097
     68 H14        14.7573   23.7099    4.7888 H         1 QG9         0.0315
     69 H15        14.7302   25.4370    5.2819 H         1 QG9         0.0315
     70 H16        15.6226   24.8375    7.4584 H         1 QG9         0.0822
     71 H17        16.6994   24.3352    6.1112 H         1 QG9         0.0822
     72 H18        13.0058   23.6676    3.4110 H         1 QG9         0.0419
     73 H19        12.0858   22.4396    4.3450 H         1 QG9         0.0419
     74 H20        11.1456   25.4409    1.7318 H         1 QG9         0.0557
     75 H21         9.0083   25.2243    0.4249 H         1 QG9         0.0599
     76 H22         7.4273   23.3018    0.8949 H         1 QG9         0.0559
     77 H23         8.0055   21.5963    2.6773 H         1 QG9         0.0599
     78 H24        10.1498   21.8006    3.9957 H         1 QG9         0.0557
     79 H25        19.2541   19.1866   10.0122 H         1 QG9         0.0624
     80 H26        19.0884   21.4184    8.8660 H         1 QG9         0.0567
     81 H27        14.7249   21.3135    9.2524 H         1 QG9         0.0567
     82 H28        14.8719   19.0643   10.4028 H         1 QG9         0.0624
     83 H29        17.6910   23.1383    8.0055 H         1 QG9         0.0995
     84 H30        16.2957   23.4710    9.0868 H         1 QG9         0.0995
     85 H31        14.8775   22.5238    7.4634 H         1 QG9         0.2322
     86 H32        17.1702   22.0001    5.8380 H         1 QG9         0.2384
     87 H33        16.9734   20.7232    4.1631 H         1 QG9         0.0806
     88 H34        16.5895   18.4432    6.0988 H         1 QG9         0.1899
     89 H35        20.4125   17.4564    7.7413 H         1 QG9         0.0575
     90 H36        20.5808   19.2215    7.4539 H         1 QG9         0.0575
     91 H37        20.8577   18.0623    6.1100 H         1 QG9         0.0575
     92 H38        14.0886   17.6206    3.2835 H         1 QG9         0.0237
     93 H39        13.8092   18.6181    4.7509 H         1 QG9         0.0237
     94 H40        15.1458   17.4184    4.7215 H         1 QG9         0.0237
     95 H41        15.4232   20.9656    2.2672 H         1 QG9         0.0237
     96 H42        13.9452   20.6766    3.2463 H         1 QG9         0.0237
     97 H43        14.2982   19.6371    1.8245 H         1 QG9         0.0237
     98 H44        17.1496   17.7864    3.2536 H         1 QG9         0.0237
     99 H45        17.2305   19.2319    2.1904 H         1 QG9         0.0237
    100 H46        16.0212   17.9441    1.8649 H         1 QG9         0.0237
    101 H47        19.3603   17.5753   10.8348 H         1 QG9         0.0703
    102 H48        19.6954   15.4064   11.9397 H         1 QG9         0.0817
    103 H49        15.3791   14.9562   12.4962 H         1 QG9         0.0817
    104 H50        15.0321   17.1919   11.3511 H         1 QG9         0.0703
    105 H51        13.1144   24.8837    7.0879 H         1 QG9         0.0261
    106 H52        13.1263   23.1665    6.5609 H         1 QG9         0.0261
@<TRIPOS>BOND
     1    1    2 2  
     2    1    5 am 
     3   52    1 1  
     4    3    4 1  
     5    3   16 1  
     6   52    3 1  
     7    4    5 1  
     8    5    6 1  
     9    6    7 1  
    10    6   10 1  
    11    7    8 ar 
    12    7   15 ar 
    13    9    8 1  
    14    8   12 ar 
    15   10    9 1  
    16   10   11 1  
    17   12   13 ar 
    18   14   13 ar 
    19   15   14 ar 
    20   17   18 1  
    21   54   17 1  
    22   18   34 1  
    23   19   20 1  
    24   52   19 1  
    25   20   21 ar 
    26   20   25 ar 
    27   21   22 ar 
    28   22   23 ar 
    29   24   23 ar 
    30   25   24 ar 
    31   27   26 1  
    32   26   48 ar 
    33   26   53 ar 
    34   28   27 ar 
    35   32   27 ar 
    36   29   28 ar 
    37   30   29 ar 
    38   30   31 ar 
    39   33   30 1  
    40   31   32 ar 
    41   34   33 1  
    42   34   35 1  
    43   35   36 am 
    44   36   37 1  
    45   36   47 2  
    46   37   38 1  
    47   37   43 1  
    48   38   39 am 
    49   39   40 1  
    50   39   42 2  
    51   40   41 1  
    52   43   44 1  
    53   43   45 1  
    54   43   46 1  
    55   48   49 ar 
    56   49   50 ar 
    57   51   50 ar 
    58   53   51 ar 
    59   52   54 1  
    60    3   55 1  
    61    4   56 1  
    62    4   57 1  
    63    6   58 1  
    64    9   59 1  
    65    9   60 1  
    66   10   61 1  
    67   11   62 1  
    68   12   63 1  
    69   13   64 1  
    70   14   65 1  
    71   15   66 1  
    72   16   67 1  
    73   17   68 1  
    74   17   69 1  
    75   18   70 1  
    76   18   71 1  
    77   19   72 1  
    78   19   73 1  
    79   21   74 1  
    80   22   75 1  
    81   23   76 1  
    82   24   77 1  
    83   25   78 1  
    84   28   79 1  
    85   29   80 1  
    86   31   81 1  
    87   32   82 1  
    88   33   83 1  
    89   33   84 1  
    90   34   85 1  
    91   35   86 1  
    92   37   87 1  
    93   38   88 1  
    94   41   89 1  
    95   41   90 1  
    96   41   91 1  
    97   44   92 1  
    98   44   93 1  
    99   44   94 1  
   100   45   95 1  
   101   45   96 1  
   102   45   97 1  
   103   46   98 1  
   104   46   99 1  
   105   46  100 1  
   106   48  101 1  
   107   49  102 1  
   108   51  103 1  
   109   53  104 1  
   110   54  105 1  
   111   54  106 1  
@<TRIPOS>SUBSTRUCTURE
     1 QG9         1

