### 
### Created by X-TOOL on Mon Sep 10 21:13:10 2018
### 

@<TRIPOS>MOLECULE
4a6l_ligand
   54    57     1     0     0
SMALL
GAST_HUCK


@<TRIPOS>ATOM
      1 C1         -9.4230   53.1060   -7.0260 C.1       1 P43        -0.0296
      2 C2         -4.0660   62.0940   -3.6050 C.ar      1 P43        -0.0750
      3 C3         -3.9650   60.6810   -3.3970 C.ar      1 P43        -0.0670
      4 C4         -4.2740   59.7400   -4.4610 C.ar      1 P43        -0.0465
      5 C5         -4.6730   60.1830   -5.8050 C.ar      1 P43        -0.0539
      6 C6         -4.7880   61.5820   -6.0040 C.ar      1 P43        -0.0055
      7 C7         -4.4620   62.5210   -4.9300 C.ar      1 P43        -0.0622
      8 C8         -5.2310   62.1600   -7.3660 C.3       1 P43        -0.0032
      9 N9         -4.5720   61.5100   -8.4650 N.4       1 P43         0.2307
     10 C10        -4.1680   58.2980   -4.1550 C.3       1 P43        -0.0053
     11 C11        -3.4080   57.4960   -5.2680 C.3       1 P43        -0.0201
     12 C12        -3.2390   56.0470   -4.7870 C.3       1 P43         0.0350
     13 N13        -4.6460   55.5340   -4.5640 N.am      1 P43        -0.2719
     14 C14        -5.4500   56.2240   -3.3570 C.3       1 P43         0.0350
     15 C15        -5.5860   57.7600   -3.6330 C.3       1 P43        -0.0201
     16 C16        -5.1590   54.5850   -5.3760 C.2       1 P43         0.2332
     17 O17        -4.4630   54.0930   -6.3640 O.2       1 P43        -0.3884
     18 C18        -6.5540   54.0650   -5.1590 C.2       1 P43         0.1877
     19 O19        -7.2930   53.8650   -6.2900 O.3       1 P43        -0.2354
     20 C20        -8.5150   53.3660   -5.9610 C.2       1 P43         0.1697
     21 C21        -8.6190   53.2380   -4.6030 C.2       1 P43        -0.0371
     22 C22        -7.2990   53.7050   -4.0540 C.2       1 P43        -0.0379
     23 C23       -10.2070   52.8750   -7.8910 C.1       1 P43        -0.0627
     24 C24       -11.1420   52.5970   -8.9210 C.ar      1 P43         0.0572
     25 C25       -10.7080   52.3590  -10.3220 C.ar      1 P43        -0.0486
     26 C26       -11.7140   52.0080  -11.3520 C.ar      1 P43        -0.0651
     27 C27       -13.0780   51.9280  -10.8890 C.ar      1 P43        -0.0640
     28 C28       -13.5100   52.1430   -9.4810 C.ar      1 P43        -0.0271
     29 C29       -12.5310   52.5040   -8.4830 C.ar      1 P43         0.1481
     30 F30       -12.9100   52.7190   -7.1430 F         1 P43        -0.1812
     31 H1         -3.8574   62.8048   -2.8136 H         1 P43         0.0582
     32 H2         -3.6526   60.3063   -2.4290 H         1 P43         0.0500
     33 H3         -4.8692   59.4760   -6.6030 H         1 P43         0.0496
     34 H4         -4.5197   63.5837   -5.1360 H         1 P43         0.0501
     35 H5         -4.9905   63.2331   -7.3919 H         1 P43         0.0978
     36 H6         -6.3174   62.0250   -7.4730 H         1 P43         0.0978
     37 H7         -4.8874   61.9146   -9.3327 H         1 P43         0.2008
     38 H8         -4.7911   60.5262   -8.4539 H         1 P43         0.2008
     39 H9         -3.5752   61.6332   -8.3795 H         1 P43         0.2008
     40 H10        -3.5063   58.2255   -3.2793 H         1 P43         0.0461
     41 H11        -2.4203   57.9474   -5.4432 H         1 P43         0.0309
     42 H12        -3.9896   57.5127   -6.2015 H         1 P43         0.0309
     43 H13        -2.6646   56.0167   -3.8494 H         1 P43         0.0522
     44 H14        -2.7258   55.4447   -5.5510 H         1 P43         0.0522
     45 H15        -4.9036   56.0674   -2.4152 H         1 P43         0.0522
     46 H16        -6.4512   55.7752   -3.2791 H         1 P43         0.0522
     47 H17        -6.3563   57.9348   -4.3986 H         1 P43         0.0309
     48 H18        -5.8651   58.2824   -2.7061 H         1 P43         0.0309
     49 H19        -9.4765   52.8747   -4.0386 H         1 P43         0.0411
     50 H20        -6.9959   53.7496   -3.0090 H         1 P43         0.0454
     51 H21        -9.6607   52.4417  -10.5893 H         1 P43         0.0614
     52 H22       -11.4428   51.8235  -12.3852 H         1 P43         0.0583
     53 H23       -13.8439   51.6943  -11.6196 H         1 P43         0.0604
     54 H24       -14.5525   52.0293   -9.2067 H         1 P43         0.0602
@<TRIPOS>BOND
     1   20    1 1  
     2    1   23 3  
     3    3    2 ar 
     4    2    7 ar 
     5    4    3 ar 
     6    4    5 ar 
     7   10    4 1  
     8    5    6 ar 
     9    6    7 ar 
    10    6    8 1  
    11    8    9 1  
    12   11   10 1  
    13   15   10 1  
    14   12   11 1  
    15   13   12 1  
    16   13   14 1  
    17   16   13 am 
    18   14   15 1  
    19   16   17 2  
    20   18   16 1  
    21   19   18 1  
    22   18   22 2  
    23   19   20 1  
    24   20   21 2  
    25   21   22 1  
    26   23   24 1  
    27   24   25 ar 
    28   24   29 ar 
    29   25   26 ar 
    30   26   27 ar 
    31   27   28 ar 
    32   28   29 ar 
    33   29   30 1  
    34    2   31 1  
    35    3   32 1  
    36    5   33 1  
    37    7   34 1  
    38    8   35 1  
    39    8   36 1  
    40    9   37 1  
    41    9   38 1  
    42    9   39 1  
    43   10   40 1  
    44   11   41 1  
    45   11   42 1  
    46   12   43 1  
    47   12   44 1  
    48   14   45 1  
    49   14   46 1  
    50   15   47 1  
    51   15   48 1  
    52   21   49 1  
    53   22   50 1  
    54   25   51 1  
    55   26   52 1  
    56   27   53 1  
    57   28   54 1  
@<TRIPOS>SUBSTRUCTURE
     1 P43         1

