### 
### Created by X-TOOL on Mon Sep 10 21:13:11 2018
### 

@<TRIPOS>MOLECULE
4a6s_ligand
   40    42     1     0     0
SMALL
GAST_HUCK


@<TRIPOS>ATOM
      1 C1         13.6040   15.0270   67.2280 C.3       1 GS9         0.1457
      2 O5         13.8860   15.1620   65.8200 O.3       1 GS9        -0.3529
      3 S1         13.2460   16.6800   67.9720 S.3       1 GS9        -0.0669
      4 C2         12.3860   14.1540   67.2590 C.3       1 GS9         0.1210
      5 O2         11.9220   14.0320   68.5930 O.3       1 GS9        -0.3855
      6 C3         12.8210   12.7760   66.7370 C.3       1 GS9         0.1127
      7 O3         11.6700   11.9540   66.8610 O.3       1 GS9        -0.3865
      8 C4         13.2930   12.8730   65.2840 C.3       1 GS9         0.1118
      9 O4         12.1530   13.1410   64.4550 O.3       1 GS9        -0.3865
     10 C5         14.3530   13.9840   65.1440 C.3       1 GS9         0.1117
     11 C80        14.7730   18.3620   69.2040 C.ar      1 GS9        -0.0460
     12 O6         15.7550   15.3480   63.7350 O.3       1 GS9        -0.3924
     13 C6         14.6070   14.4570   63.7160 C.3       1 GS9         0.0730
     14 C90        16.0120   18.8910   69.5790 C.ar      1 GS9        -0.0559
     15 C7         14.7050   17.2410   68.3540 C.ar      1 GS9         0.0188
     16 C8         15.8780   16.5940   67.9130 C.ar      1 GS9        -0.0443
     17 C9         17.1240   17.0760   68.2910 C.ar      1 GS9        -0.0251
     18 C14        17.2100   18.2790   69.1510 C.ar      1 GS9        -0.0222
     19 C13        18.4660   18.7900   69.5590 C.ar      1 GS9        -0.0568
     20 C12        19.6160   18.1260   69.1140 C.ar      1 GS9        -0.0634
     21 C11        19.5280   17.0070   68.2720 C.ar      1 GS9        -0.0637
     22 C10        18.3000   16.4530   67.8610 C.ar      1 GS9        -0.0578
     23 H1         14.4437   14.5543   67.7586 H         1 GS9         0.0766
     24 H2         11.5932   14.5749   66.6231 H         1 GS9         0.0657
     25 H3         11.1502   13.4783   68.6093 H         1 GS9         0.2100
     26 H4         13.6395   12.3755   67.3531 H         1 GS9         0.0647
     27 H5         11.4060   11.9161   67.7728 H         1 GS9         0.2100
     28 H6         13.7415   11.9151   64.9820 H         1 GS9         0.0647
     29 H7         12.4299   13.2042   63.5485 H         1 GS9         0.2100
     30 H8         15.2949   13.6273   65.5863 H         1 GS9         0.0646
     31 H9         13.8597   18.8173   69.5696 H         1 GS9         0.0594
     32 H10        15.5694   16.0899   64.2986 H         1 GS9         0.2095
     33 H11        13.7243   14.9937   63.3380 H         1 GS9         0.0584
     34 H12        14.8160   13.5929   63.0682 H         1 GS9         0.0584
     35 H13        16.0528   19.7768   70.2024 H         1 GS9         0.0620
     36 H14        15.8066   15.7186   67.2776 H         1 GS9         0.0539
     37 H15        18.5351   19.6656   70.1943 H         1 GS9         0.0619
     38 H16        20.5911   18.4827   69.4255 H         1 GS9         0.0598
     39 H17        20.4459   16.5485   67.9223 H         1 GS9         0.0611
     40 H18        18.2674   15.5714   67.2311 H         1 GS9         0.0603
@<TRIPOS>BOND
     1    1    2 1  
     2    3    1 1  
     3    1    4 1  
     4    2   10 1  
     5   15    3 1  
     6    4    5 1  
     7    4    6 1  
     8    6    7 1  
     9    6    8 1  
    10    8    9 1  
    11   10    8 1  
    12   10   13 1  
    13   11   14 ar 
    14   11   15 ar 
    15   13   12 1  
    16   14   18 ar 
    17   15   16 ar 
    18   16   17 ar 
    19   17   18 ar 
    20   17   22 ar 
    21   18   19 ar 
    22   19   20 ar 
    23   20   21 ar 
    24   21   22 ar 
    25    1   23 1  
    26    4   24 1  
    27    5   25 1  
    28    6   26 1  
    29    7   27 1  
    30    8   28 1  
    31    9   29 1  
    32   10   30 1  
    33   11   31 1  
    34   12   32 1  
    35   13   33 1  
    36   13   34 1  
    37   14   35 1  
    38   16   36 1  
    39   19   37 1  
    40   20   38 1  
    41   21   39 1  
    42   22   40 1  
@<TRIPOS>SUBSTRUCTURE
     1 GS9         1

