### 
### Created by X-TOOL on Mon Sep 10 21:13:08 2018
### 

@<TRIPOS>MOLECULE
4a6v_ligand
   26    27     1     0     0
SMALL
GAST_HUCK


@<TRIPOS>ATOM
      1 FAC        10.5040   -1.6960   -1.5380 F         1 IKY        -0.2315
      2 CAS        11.6750   -1.1510   -1.4130 C.3       1 IKY         0.3667
      3 FAD        12.4820   -1.9550   -2.0270 F         1 IKY        -0.2315
      4 FAE        11.9530   -1.1320   -0.1170 F         1 IKY        -0.2315
      5 CAR        11.7390    0.1700   -2.0570 C.ar      1 IKY         0.0521
      6 CAI        12.8510    0.4890   -2.8530 C.ar      1 IKY        -0.0335
      7 CAG        12.8130    1.6820   -3.5610 C.ar      1 IKY        -0.0332
      8 CAF        11.7670    2.5920   -3.4630 C.ar      1 IKY        -0.0338
      9 CAH        10.6530    2.3090   -2.6970 C.ar      1 IKY        -0.0197
     10 CAP        10.6610    1.0900   -1.9690 C.ar      1 IKY         0.0677
     11 CAQ         9.5270    0.9470   -1.0370 C.2       1 IKY         0.2289
     12 NAK         9.5080    0.5620    0.1950 N.2       1 IKY        -0.2657
     13 OAM         8.3340    1.3870   -1.3780 O.3       1 IKY        -0.2075
     14 CAJ         7.5060    1.2120   -0.2100 C.2       1 IKY         0.1419
     15 CAO         8.3550    0.6580    0.7020 C.2       1 IKY         0.1304
     16 CAN         7.9790    0.3060    2.1010 C.2       1 IKY         0.2262
     17 OAA         6.7950    0.1110    2.4090 O.2       1 IKY        -0.3937
     18 NAL         8.9210    0.1730    3.1010 N.am      1 IKY        -0.1657
     19 OAB         8.5090   -0.1150    4.3330 O.3       1 IKY        -0.2724
     20 H1         13.7078   -0.1724   -2.9123 H         1 IKY         0.0838
     21 H2         13.6393    1.9155   -4.2226 H         1 IKY         0.0703
     22 H3         11.8262    3.5351   -3.9941 H         1 IKY         0.0840
     23 H4          9.8092    2.9881   -2.6535 H         1 IKY         0.0717
     24 H5          6.4535    1.4626   -0.0860 H         1 IKY         0.1265
     25 H6          9.8942    0.2908    2.9035 H         1 IKY         0.2205
     26 H7          7.9269    0.5704    4.6394 H         1 IKY         0.2490
@<TRIPOS>BOND
     1    1    2 1  
     2    2    3 1  
     3    2    4 1  
     4    2    5 1  
     5    5    6 ar 
     6    5   10 ar 
     7    6    7 ar 
     8    7    8 ar 
     9    8    9 ar 
    10    9   10 ar 
    11   10   11 1  
    12   11   12 2  
    13   11   13 1  
    14   12   15 1  
    15   13   14 1  
    16   14   15 2  
    17   15   16 1  
    18   16   17 2  
    19   16   18 am 
    20   18   19 1  
    21    6   20 1  
    22    7   21 1  
    23    8   22 1  
    24    9   23 1  
    25   14   24 1  
    26   18   25 1  
    27   19   26 1  
@<TRIPOS>SUBSTRUCTURE
     1 IKY         1

