### 
### Created by X-TOOL on Mon Sep 10 21:13:08 2018
### 

@<TRIPOS>MOLECULE
4a6w_ligand
   23    24     1     0     0
SMALL
GAST_HUCK


@<TRIPOS>ATOM
      1 C1         -1.9840   -0.4470    8.1340 C.2       1 5C1         0.2757
      2 O1          1.2690    0.3000    9.6770 O.3       1 5C1        -0.2716
      3 C2         -3.8560   -1.2130    7.3880 C.2       1 5C1         0.0187
      4 C3         -4.1080   -0.7990    8.6510 C.2       1 5C1         0.1494
      5 C4         -0.5470   -0.1410    8.2650 C.2       1 5C1         0.2892
      6 C5         -5.3710   -0.8280    9.4480 C.ar      1 5C1         0.0306
      7 C6         -5.6910    0.1970   10.3560 C.ar      1 5C1         0.0498
      8 C7         -6.7860    0.1230   11.2020 C.ar      1 5C1        -0.0485
      9 C8         -7.4700   -1.0620   11.2050 C.ar      1 5C1        -0.0625
     10 N1         -2.6460   -0.9900    7.1670 N.2       1 5C1        -0.2815
     11 C9         -7.1900   -2.1130   10.3470 C.ar      1 5C1        -0.0623
     12 C10        -6.1000   -2.0130    9.5260 C.ar      1 5C1        -0.0520
     13 N2         -0.0210    0.1010    9.5600 N.am      1 5C1        -0.1572
     14 O2         -2.8260   -0.2970    9.1060 O.3       1 5C1        -0.2104
     15 O3          0.2030   -0.2140    7.2920 O.2       1 5C1        -0.3730
     16 Cl1        -4.7400    1.6060   10.4630 Cl        1 5C1        -0.0702
     17 H1          1.4838    0.4484   10.5904 H         1 5C1         0.2492
     18 H2         -4.5707   -1.6559    6.6960 H         1 5C1         0.0589
     19 H3         -7.0840    0.9574   11.8266 H         1 5C1         0.0620
     20 H4         -8.2763   -1.1854   11.9189 H         1 5C1         0.0607
     21 H5         -7.8202   -2.9947   10.3265 H         1 5C1         0.0616
     22 H6         -5.7998   -2.8663    8.9287 H         1 5C1         0.0615
     23 H7         -0.6183    0.1192   10.3618 H         1 5C1         0.2217
@<TRIPOS>BOND
     1    5    1 1  
     2    1   10 2  
     3    1   14 1  
     4   13    2 1  
     5    4    3 2  
     6   10    3 1  
     7    4    6 1  
     8   14    4 1  
     9    5   13 am 
    10    5   15 2  
    11    6    7 ar 
    12    6   12 ar 
    13    7    8 ar 
    14    7   16 1  
    15    8    9 ar 
    16    9   11 ar 
    17   11   12 ar 
    18    2   17 1  
    19    3   18 1  
    20    8   19 1  
    21    9   20 1  
    22   11   21 1  
    23   12   22 1  
    24   13   23 1  
@<TRIPOS>SUBSTRUCTURE
     1 5C1         1

