### 
### Created by X-TOOL on Mon Sep 10 21:13:06 2018
### 

@<TRIPOS>MOLECULE
4a7b_ligand
   66    70     1     0     0
SMALL
GAST_HUCK


@<TRIPOS>ATOM
      1 C1         23.9110   14.2050   12.7810 C.ar      1 3W5        -0.0532
      2 C2         24.2880   13.6590   13.9850 C.ar      1 3W5        -0.0260
      3 C3         23.3660   12.9000   14.6890 C.ar      1 3W5         0.1189
      4 C4         22.0840   12.6880   14.2450 C.ar      1 3W5        -0.0260
      5 C5         21.7000   13.2360   13.0350 C.ar      1 3W5        -0.0532
      6 C6         22.6330   13.9790   12.3350 C.ar      1 3W5         0.0151
      7 C7         22.1850   14.4810   11.1120 C.1       1 3W5        -0.0720
      8 C8         21.8400   14.8780   10.0370 C.1       1 3W5        -0.0624
      9 C9         21.3920   15.2990    8.7370 C.3       1 3W5         0.1674
     10 C10        19.8850   15.0890    8.7540 C.3       1 3W5         0.0090
     11 N1         19.5190   14.2480    7.5690 N.4       1 3W5         0.2380
     12 C11        19.8790   14.9550    6.2870 C.3       1 3W5        -0.0314
     13 C12        21.4000   15.0780    6.2760 C.3       1 3W5        -0.0058
     14 C13        22.0220   14.5120    7.5660 C.3       1 3W5         0.0135
     15 C14        21.6320   13.0120    7.6580 C.3       1 3W5        -0.0058
     16 C15        20.0880   12.8560    7.6960 C.3       1 3W5        -0.0314
     17 O1         21.7950   16.6640    8.6780 O.3       1 3W5        -0.3718
     18 O2         23.6460   12.3080   15.8780 O.3       1 3W5        -0.2536
     19 C16        24.2550   12.9870   16.9000 C.ar      1 3W5         0.1219
     20 C21        24.3350   14.3600   17.0040 C.ar      1 3W5        -0.0222
     21 C20        24.9580   14.9150   18.1110 C.ar      1 3W5        -0.0495
     22 C19        25.4850   14.1000   19.0830 C.ar      1 3W5         0.0391
     23 C18        25.4220   12.7390   18.9790 C.ar      1 3W5        -0.0495
     24 C17        24.7890   12.1780   17.8800 C.ar      1 3W5        -0.0222
     25 C22        26.2000   14.6530   20.2400 C.2       1 3W5         0.1974
     26 O3         26.2290   14.0410   21.3000 O.2       1 3W5        -0.3896
     27 N2         26.8850   15.8210   19.8930 N.am      1 3W5        -0.2831
     28 C23        27.3570   16.8950   20.7520 C.3       1 3W5         0.0606
     29 C24        26.4420   17.2620   21.8930 C.3       1 3W5        -0.0270
     30 C25        26.9780   18.4060   22.7550 C.3       1 3W5        -0.0315
     31 C26        28.0140   17.8530   23.7070 C.3       1 3W5         0.0659
     32 S1         29.3260   17.5900   22.5720 S.o2      1 3W5        -0.0289
     33 O5         30.4500   16.8140   23.0920 O.2       1 3W5        -0.1743
     34 O4         29.3980   18.9400   22.0280 O.2       1 3W5        -0.1743
     35 C27        28.7340   16.5410   21.2380 C.3       1 3W5         0.0885
     36 H1         24.6058   14.7992   12.1985 H         1 3W5         0.0607
     37 H2         25.2863   13.8188   14.3761 H         1 3W5         0.0558
     38 H3         21.3861   12.1020   14.8321 H         1 3W5         0.0558
     39 H4         20.6987   13.0878   12.6471 H         1 3W5         0.0607
     40 H5         19.3724   16.0604    8.6944 H         1 3W5         0.0853
     41 H6         19.5905   14.5753    9.6810 H         1 3W5         0.0853
     42 H7         18.5159   14.1484    7.5710 H         1 3W5         0.2035
     43 H8         19.4164   15.9526    6.2597 H         1 3W5         0.0814
     44 H9         19.5384   14.3690    5.4206 H         1 3W5         0.0814
     45 H10        21.6720   16.1399    6.1843 H         1 3W5         0.0321
     46 H11        21.7972   14.5220    5.4140 H         1 3W5         0.0321
     47 H12        23.1161   14.6259    7.5643 H         1 3W5         0.0343
     48 H13        22.0625   12.5810    8.5739 H         1 3W5         0.0321
     49 H14        22.0286   12.4798    6.7808 H         1 3W5         0.0321
     50 H15        19.7479   12.2276    6.8597 H         1 3W5         0.0814
     51 H16        19.7743   12.4015    8.6473 H         1 3W5         0.0814
     52 H17        22.7437   16.7129    8.6708 H         1 3W5         0.2116
     53 H18        23.9170   14.9955   16.2317 H         1 3W5         0.0567
     54 H19        25.0293   15.9922   18.2096 H         1 3W5         0.0643
     55 H20        25.8600   12.1077   19.7436 H         1 3W5         0.0643
     56 H21        24.7139   11.1002   17.7914 H         1 3W5         0.0567
     57 H22        27.0772   15.9336   18.9181 H         1 3W5         0.1845
     58 H23        27.4441   17.7938   20.1239 H         1 3W5         0.0571
     59 H24        26.3084   16.3766   22.5319 H         1 3W5         0.0288
     60 H25        25.4695   17.5643   21.4772 H         1 3W5         0.0288
     61 H26        26.1532   18.8562   23.3268 H         1 3W5         0.0282
     62 H27        27.4378   19.1702   22.1112 H         1 3W5         0.0282
     63 H28        27.6823   16.9154   24.1770 H         1 3W5         0.0500
     64 H29        28.2846   18.5790   24.4878 H         1 3W5         0.0500
     65 H30        29.4327   16.6277   20.3929 H         1 3W5         0.0523
     66 H31        28.7185   15.5010   21.5958 H         1 3W5         0.0523
@<TRIPOS>BOND
     1    1    2 ar 
     2    1    6 ar 
     3    2    3 ar 
     4    3    4 ar 
     5    3   18 1  
     6    4    5 ar 
     7    5    6 ar 
     8    6    7 1  
     9    7    8 3  
    10    8    9 1  
    11    9   10 1  
    12    9   14 1  
    13    9   17 1  
    14   10   11 1  
    15   11   12 1  
    16   11   16 1  
    17   12   13 1  
    18   13   14 1  
    19   14   15 1  
    20   15   16 1  
    21   18   19 1  
    22   19   20 ar 
    23   19   24 ar 
    24   20   21 ar 
    25   21   22 ar 
    26   22   23 ar 
    27   22   25 1  
    28   23   24 ar 
    29   25   26 2  
    30   25   27 am 
    31   27   28 1  
    32   28   29 1  
    33   28   35 1  
    34   29   30 1  
    35   30   31 1  
    36   31   32 1  
    37   32   33 2  
    38   32   34 2  
    39   32   35 1  
    40    1   36 1  
    41    2   37 1  
    42    4   38 1  
    43    5   39 1  
    44   10   40 1  
    45   10   41 1  
    46   11   42 1  
    47   12   43 1  
    48   12   44 1  
    49   13   45 1  
    50   13   46 1  
    51   14   47 1  
    52   15   48 1  
    53   15   49 1  
    54   16   50 1  
    55   16   51 1  
    56   17   52 1  
    57   20   53 1  
    58   21   54 1  
    59   23   55 1  
    60   24   56 1  
    61   27   57 1  
    62   28   58 1  
    63   29   59 1  
    64   29   60 1  
    65   30   61 1  
    66   30   62 1  
    67   31   63 1  
    68   31   64 1  
    69   35   65 1  
    70   35   66 1  
@<TRIPOS>SUBSTRUCTURE
     1 3W5         1

