### 
### Created by X-TOOL on Mon Sep 10 21:13:09 2018
### 

@<TRIPOS>MOLECULE
4a7c_ligand
   48    51     1     0     0
SMALL
GAST_HUCK


@<TRIPOS>ATOM
      1 FAA       -45.7690   -2.1330    2.1850 F         1 E46        -0.1400
      2 CBB       -45.9770   -1.3950    1.1070 C.3       1 E46         0.5463
      3 FAB       -46.6310   -0.3020    1.4530 F         1 E46        -0.1400
      4 FAC       -46.6500   -2.0170    0.1560 F         1 E46        -0.1400
      5 OAT       -44.6990   -1.0480    0.6290 O.3       1 E46        -0.2276
      6 CAU       -44.1440   -1.5640   -0.5060 C.ar      1 E46         0.0957
      7 CAI       -42.8300   -1.9780   -0.4390 C.ar      1 E46         0.0017
      8 CAE       -44.8400   -1.6370   -1.6970 C.ar      1 E46        -0.0403
      9 CAD       -44.1850   -2.1480   -2.8040 C.ar      1 E46        -0.0751
     10 CAF       -42.8610   -2.5620   -2.7090 C.ar      1 E46        -0.0374
     11 CAW       -42.1400   -2.4950   -1.5210 C.ar      1 E46         0.1085
     12 NBA       -40.8720   -2.8880   -1.4370 N.pl3     1 E46        -0.1092
     13 NAP       -40.2180   -3.4010   -2.5500 N.2       1 E46        -0.0637
     14 NAO       -38.9420   -3.6920   -2.0310 N.2       1 E46        -0.1977
     15 CAX       -38.9100   -3.3660   -0.7150 C.ar      1 E46         0.0944
     16 CAH       -37.8960   -3.4630    0.2130 C.ar      1 E46        -0.0386
     17 CAG       -38.1230   -3.0500    1.5120 C.ar      1 E46        -0.0215
     18 CAY       -40.1400   -2.8490   -0.3240 C.ar      1 E46         0.1851
     19 NAQ       -40.3490   -2.4470    0.9570 N.ar      1 E46        -0.2615
     20 CAV       -39.3540   -2.5400    1.8830 C.ar      1 E46         0.1020
     21 NAS       -39.4880   -2.1430    3.1760 N.pl3     1 E46        -0.3089
     22 CAN       -40.7280   -1.6640    3.7530 C.3       1 E46         0.0302
     23 CAZ       -41.6080   -2.8530    4.1150 C.3       1 E46        -0.0114
     24 CAL       -42.5280   -2.4540    5.2740 C.3       1 E46        -0.0077
     25 CAM       -40.7370   -4.0560    4.4920 C.3       1 E46        -0.0077
     26 CAK       -41.5990   -5.2410    4.9270 C.3       1 E46        -0.0334
     27 NAR       -42.9960   -4.8470    4.9880 N.4       1 E46         0.2270
     28 CAJ       -43.3730   -3.6440    5.7230 C.3       1 E46        -0.0334
     29 H         -42.3089   -1.8936    0.5146 H         1 E46         0.0499
     30 H         -45.8751   -1.3019   -1.7631 H         1 E46         0.0480
     31 H         -44.7102   -2.2264   -3.7559 H         1 E46         0.0571
     32 H         -42.3692   -2.9540   -3.5993 H         1 E46         0.0488
     33 H         -36.9234   -3.8620   -0.0750 H         1 E46         0.0705
     34 H         -37.3251   -3.1268    2.2506 H         1 E46         0.0556
     35 H         -38.6651   -2.1848    3.7772 H         1 E46         0.1810
     36 H         -41.2464   -1.0332    3.0309 H         1 E46         0.0521
     37 H         -40.5124   -1.0835    4.6500 H         1 E46         0.0521
     38 H         -42.2192   -3.1396    3.2592 H         1 E46         0.0324
     39 H         -43.1910   -1.6558    4.9402 H         1 E46         0.0320
     40 H         -41.9162   -2.1190    6.1116 H         1 E46         0.0320
     41 H         -40.0884   -3.7723    5.3208 H         1 E46         0.0320
     42 H         -40.1513   -4.3505    3.6212 H         1 E46         0.0320
     43 H         -41.2778   -5.5734    5.9141 H         1 E46         0.0814
     44 H         -41.4867   -6.0492    4.2043 H         1 E46         0.0814
     45 H         -43.4580   -5.6088    5.4846 H         1 E46         0.2013
     46 H         -43.2513   -4.6494    4.0204 H         1 E46         0.2013
     47 H         -44.4230   -3.4254    5.5285 H         1 E46         0.0814
     48 H         -43.2078   -3.8135    6.7870 H         1 E46         0.0814
@<TRIPOS>BOND
     1    1    2 1  
     2    2    3 1  
     3    2    4 1  
     4    2    5 1  
     5    5    6 1  
     6    6    7 ar 
     7    6    8 ar 
     8    7   11 ar 
     9    8    9 ar 
    10    9   10 ar 
    11   10   11 ar 
    12   11   12 1  
    13   12   13 1  
    14   12   18 1  
    15   13   14 2  
    16   14   15 1  
    17   15   16 ar 
    18   15   18 ar 
    19   16   17 ar 
    20   17   20 ar 
    21   18   19 ar 
    22   19   20 ar 
    23   20   21 1  
    24   21   22 1  
    25   22   23 1  
    26   23   24 1  
    27   23   25 1  
    28   24   28 1  
    29   25   26 1  
    30   26   27 1  
    31   27   28 1  
    32    7   29 1  
    33    8   30 1  
    34    9   31 1  
    35   10   32 1  
    36   16   33 1  
    37   17   34 1  
    38   21   35 1  
    39   22   36 1  
    40   22   37 1  
    41   23   38 1  
    42   24   39 1  
    43   24   40 1  
    44   25   41 1  
    45   25   42 1  
    46   26   43 1  
    47   26   44 1  
    48   27   45 1  
    49   27   46 1  
    50   28   47 1  
    51   28   48 1  
@<TRIPOS>SUBSTRUCTURE
     1 E46         1

