### 
### Created by X-TOOL on Mon Sep 10 21:13:10 2018
### 

@<TRIPOS>MOLECULE
4a7i_ligand
   49    50     1     0     0
SMALL
GAST_HUCK


@<TRIPOS>ATOM
      1 C15        48.8000    5.0580   57.9920 C.3       1 A7I         0.0073
      2 C16        47.9210    3.9930   58.6530 C.3       1 A7I        -0.0299
      3 N17        48.6840    2.7400   58.7880 N.4       1 A7I         0.2371
      4 C20        47.9740    1.7030   59.5570 C.3       1 A7I        -0.0266
      5 C22        46.5940    1.3730   58.9790 C.3       1 A7I        -0.0218
      6 C21        47.8650    2.1050   61.0300 C.3       1 A7I        -0.0218
      7 C18        49.0770    2.2100   57.4720 C.3       1 A7I        -0.0299
      8 C19        50.0050    3.2140   56.7840 C.3       1 A7I         0.0073
      9 C14        49.3150    4.5720   56.6340 C.3       1 A7I         0.0471
     10 N13        50.2770    5.5330   56.0740 N.am      1 A7I        -0.2483
     11 S12        49.5530    6.8010   55.3470 S.o2      1 A7I         0.0411
     12 O23        48.1420    6.5140   54.9290 O.2       1 A7I        -0.1554
     13 O24        49.6660    8.0690   56.1400 O.2       1 A7I        -0.1554
     14 C10        50.5080    7.0700   53.8090 C.3       1 A7I         0.1043
     15 C9         50.0170    8.2340   52.9450 C.3       1 A7I         0.0509
     16 N8         48.7140    7.9160   52.3410 N.am      1 A7I        -0.2861
     17 C7         47.5880    8.5030   52.7340 C.2       1 A7I         0.2075
     18 O25        47.5220    9.3430   53.6300 O.2       1 A7I        -0.3910
     19 C3         46.3230    8.0600   51.9950 C.2       1 A7I         0.0995
     20 C2         46.2680    7.4030   50.8370 C.2       1 A7I        -0.0542
     21 C1         45.0330    7.1270   50.4040 C.2       1 A7I        -0.0524
     22 C5         44.0490    7.5540   51.1960 C.2       1 A7I         0.1023
     23 CL6        42.3550    7.2980   50.9520 Cl        1 A7I        -0.0499
     24 S4         44.7300    8.3470   52.5500 S.3       1 A7I        -0.0137
     25 H1         49.6573    5.2748   58.6462 H         1 A7I         0.0335
     26 H2         48.2088    5.9741   57.8466 H         1 A7I         0.0335
     27 H3         47.0310    3.8150   58.0316 H         1 A7I         0.0815
     28 H4         47.6093    4.3414   59.6487 H         1 A7I         0.0815
     29 H5         49.5277    2.9616   59.2930 H         1 A7I         0.2036
     30 H6         48.5781    0.7852   59.5043 H         1 A7I         0.0846
     31 H7         46.1155    0.5960   59.5933 H         1 A7I         0.0284
     32 H8         46.7063    1.0075   57.9476 H         1 A7I         0.0284
     33 H9         45.9694    2.2785   58.9812 H         1 A7I         0.0284
     34 H10        47.3328    1.3192   61.5861 H         1 A7I         0.0284
     35 H11        47.3106    3.0515   61.1117 H         1 A7I         0.0284
     36 H12        48.8732    2.2331   61.4507 H         1 A7I         0.0284
     37 H13        48.1799    2.0548   56.8546 H         1 A7I         0.0815
     38 H14        49.6024    1.2525   57.6026 H         1 A7I         0.0815
     39 H15        50.2739    2.8334   55.7876 H         1 A7I         0.0335
     40 H16        50.9161    3.3365   57.3880 H         1 A7I         0.0335
     41 H17        48.4630    4.4712   55.9456 H         1 A7I         0.0515
     42 H18        51.2690    5.4211   56.1326 H         1 A7I         0.1672
     43 H19        50.4543    6.1507   53.2074 H         1 A7I         0.0538
     44 H20        51.5543    7.2666   54.0856 H         1 A7I         0.0538
     45 H21        50.7487    8.4253   52.1463 H         1 A7I         0.0535
     46 H22        49.9154    9.1321   53.5720 H         1 A7I         0.0535
     47 H23        48.6739    7.2350   51.6098 H         1 A7I         0.1837
     48 H24        47.1608    7.1128   50.2851 H         1 A7I         0.0517
     49 H25        44.8451    6.5931   49.4736 H         1 A7I         0.0447
@<TRIPOS>BOND
     1    1    2 1  
     2    1    9 1  
     3    2    3 1  
     4    3    4 1  
     5    3    7 1  
     6    4    5 1  
     7    4    6 1  
     8    7    8 1  
     9    8    9 1  
    10    9   10 1  
    11   10   11 am 
    12   11   12 2  
    13   11   13 2  
    14   11   14 1  
    15   14   15 1  
    16   15   16 1  
    17   16   17 am 
    18   17   18 2  
    19   17   19 1  
    20   19   20 2  
    21   19   24 1  
    22   20   21 1  
    23   21   22 2  
    24   22   23 1  
    25   22   24 1  
    26    1   25 1  
    27    1   26 1  
    28    2   27 1  
    29    2   28 1  
    30    3   29 1  
    31    4   30 1  
    32    5   31 1  
    33    5   32 1  
    34    5   33 1  
    35    6   34 1  
    36    6   35 1  
    37    6   36 1  
    38    7   37 1  
    39    7   38 1  
    40    8   39 1  
    41    8   40 1  
    42    9   41 1  
    43   10   42 1  
    44   14   43 1  
    45   14   44 1  
    46   15   45 1  
    47   15   46 1  
    48   16   47 1  
    49   20   48 1  
    50   21   49 1  
@<TRIPOS>SUBSTRUCTURE
     1 A7I         1

