### 
### Created by X-TOOL on Mon Sep 10 21:13:10 2018
### 

@<TRIPOS>MOLECULE
4a95_ligand
   44    45     1     0     0
SMALL
GAST_HUCK


@<TRIPOS>ATOM
      1 N1         20.2020   43.9940   62.3900 N.1       1 9MT        -0.3035
      2 C17        21.2520   44.4240   62.7060 C.1       1 9MT         0.0907
      3 C16        22.5770   44.8910   63.1320 C.3       1 9MT         0.0840
      4 C15        23.3900   45.2490   61.8820 C.3       1 9MT         0.0320
      5 S          22.7660   46.6960   61.0630 S.3       1 9MT        -0.0934
      6 C14        22.6820   47.9280   62.2940 C.ar      1 9MT         0.0368
      7 C13        23.8070   48.3070   63.0210 C.ar      1 9MT        -0.0001
      8 C12        25.0760   47.7990   62.6560 C.ar      1 9MT        -0.0272
      9 C10        26.1620   48.2420   63.3960 C.ar      1 9MT         0.0909
     10 O          27.4280   47.7520   63.0860 O.3       1 9MT        -0.3220
     11 C11        27.6070   47.0610   61.8120 C.3       1 9MT         0.0591
     12 C9         25.9690   49.0960   64.4850 C.ar      1 9MT        -0.0288
     13 C8         24.7430   49.6430   64.8330 C.ar      1 9MT        -0.0517
     14 C7         23.6490   49.1810   64.0880 C.ar      1 9MT         0.0179
     15 N          22.4390   49.6670   64.4570 N.ar      1 9MT        -0.3210
     16 C5         21.3210   49.3590   63.7740 C.ar      1 9MT         0.0147
     17 C6         20.0350   50.0070   64.2950 C.3       1 9MT        -0.0188
     18 C4         21.4430   48.4510   62.6850 C.ar      1 9MT        -0.0023
     19 C3         20.2980   47.9820   61.7960 C.3       1 9MT        -0.0185
     20 C2         18.9150   47.8120   62.3180 C.3       1 9MT        -0.0449
     21 C1         17.8540   48.0460   61.2530 C.3       1 9MT        -0.0543
     22 C          17.1470   49.3710   61.4630 C.3       1 9MT        -0.0651
     23 H1         23.0889   44.0948   63.6924 H         1 9MT         0.0566
     24 H2         22.4697   45.7791   63.7720 H         1 9MT         0.0566
     25 H3         23.3524   44.4021   61.1811 H         1 9MT         0.0425
     26 H4         24.4330   45.4330   62.1792 H         1 9MT         0.0425
     27 H5         25.1937   47.0977   61.8378 H         1 9MT         0.0510
     28 H6         28.6535   46.7364   61.7149 H         1 9MT         0.0577
     29 H7         27.3567   47.7434   60.9864 H         1 9MT         0.0577
     30 H8         26.9458   46.1827   61.7751 H         1 9MT         0.0577
     31 H9         26.8297   49.3461   65.0947 H         1 9MT         0.0593
     32 H10        24.6381   50.3758   65.6249 H         1 9MT         0.0598
     33 H11        19.1864   49.6916   63.6702 H         1 9MT         0.0416
     34 H12        20.1334   51.1018   64.2541 H         1 9MT         0.0416
     35 H13        19.8614   49.6930   65.3348 H         1 9MT         0.0416
     36 H14        20.5992   47.0023   61.3966 H         1 9MT         0.0404
     37 H15        20.2295   48.7083   60.9727 H         1 9MT         0.0404
     38 H16        18.7567   48.5298   63.1364 H         1 9MT         0.0285
     39 H17        18.8074   46.7872   62.7031 H         1 9MT         0.0285
     40 H18        17.1140   47.2335   61.2995 H         1 9MT         0.0264
     41 H19        18.3339   48.0487   60.2632 H         1 9MT         0.0264
     42 H20        16.3881   49.5100   60.6789 H         1 9MT         0.0230
     43 H21        17.8800   50.1897   61.4130 H         1 9MT         0.0230
     44 H22        16.6600   49.3745   62.4493 H         1 9MT         0.0230
@<TRIPOS>BOND
     1    1    2 3  
     2    2    3 1  
     3    3    4 1  
     4    4    5 1  
     5    5    6 1  
     6    6    7 ar 
     7    6   18 ar 
     8    7    8 ar 
     9    7   14 ar 
    10    8    9 ar 
    11    9   10 1  
    12    9   12 ar 
    13   10   11 1  
    14   12   13 ar 
    15   13   14 ar 
    16   14   15 ar 
    17   15   16 ar 
    18   16   17 1  
    19   16   18 ar 
    20   18   19 1  
    21   19   20 1  
    22   20   21 1  
    23   21   22 1  
    24    3   23 1  
    25    3   24 1  
    26    4   25 1  
    27    4   26 1  
    28    8   27 1  
    29   11   28 1  
    30   11   29 1  
    31   11   30 1  
    32   12   31 1  
    33   13   32 1  
    34   17   33 1  
    35   17   34 1  
    36   17   35 1  
    37   19   36 1  
    38   19   37 1  
    39   20   38 1  
    40   20   39 1  
    41   21   40 1  
    42   21   41 1  
    43   22   42 1  
    44   22   43 1  
    45   22   44 1  
@<TRIPOS>SUBSTRUCTURE
     1 9MT         1

