### 
### Created by X-TOOL on Mon Sep 10 21:13:10 2018
### 

@<TRIPOS>MOLECULE
4a9i_ligand
   30    32     1     0     0
SMALL
GAST_HUCK


@<TRIPOS>ATOM
      1 O          21.1960    8.2980   -8.4330 O.2       1 P9I        -0.3965
      2 C2         20.0390    8.6830   -8.3300 C.2       1 P9I         0.1340
      3 C1         19.2650    8.4230   -7.0690 C.3       1 P9I         0.0072
      4 C3         19.3460    9.4180   -9.3820 C.2       1 P9I         0.1248
      5 N2         20.0200    9.8410  -10.5540 N.pl3     1 P9I        -0.2089
      6 C15        21.3380    9.6790  -10.9620 C.2       1 P9I         0.0830
      7 C14        21.7320   10.2070  -12.1810 C.2       1 P9I        -0.0227
      8 C13        20.8060   10.8790  -12.9710 C.2       1 P9I        -0.0583
      9 C12        19.5050   11.0430  -12.5840 C.2       1 P9I        -0.0253
     10 C11        19.0860   10.5220  -11.3440 C.2       1 P9I         0.0954
     11 C5         17.8610   10.5490  -10.6860 C.2       1 P9I        -0.0040
     12 C4         18.0310    9.8490   -9.4880 C.2       1 P9I        -0.0523
     13 C6         16.5690   11.1380  -11.1800 C.ar      1 P9I         0.0197
     14 N1         15.4400   10.6000  -10.6820 N.ar      1 P9I        -0.3111
     15 C10        14.2650   11.0920  -11.1220 C.ar      1 P9I        -0.0027
     16 C9         14.1660   12.0990  -12.0650 C.ar      1 P9I        -0.0441
     17 C8         15.3290   12.6350  -12.5780 C.ar      1 P9I        -0.0525
     18 C7         16.5530   12.1480  -12.1330 C.ar      1 P9I        -0.0417
     19 H1         18.2526    8.8417   -7.1673 H         1 P9I         0.0441
     20 H2         19.7774    8.8983   -6.2196 H         1 P9I         0.0441
     21 H3         19.1982    7.3386   -6.8968 H         1 P9I         0.0441
     22 H4         22.0500    9.1457  -10.3339 H         1 P9I         0.1216
     23 H5         22.7614   10.0962  -12.5185 H         1 P9I         0.0580
     24 H6         21.1271   11.2875  -13.9281 H         1 P9I         0.0639
     25 H7         18.8012   11.5700  -13.2265 H         1 P9I         0.0611
     26 H8         17.2504    9.6692   -8.7502 H         1 P9I         0.0433
     27 H9         13.3498   10.6769  -10.7157 H         1 P9I         0.0795
     28 H10        13.1974   12.4585  -12.3932 H         1 P9I         0.0629
     29 H11        15.2892   13.4257  -13.3185 H         1 P9I         0.0705
     30 H12        17.4805   12.5505  -12.5239 H         1 P9I         0.0633
@<TRIPOS>BOND
     1    1    2 2  
     2    2    3 1  
     3    2    4 1  
     4    4    5 1  
     5    4   12 2  
     6    5    6 1  
     7    5   10 1  
     8    6    7 2  
     9    7    8 1  
    10    8    9 2  
    11    9   10 1  
    12   10   11 2  
    13   11   12 1  
    14   11   13 1  
    15   13   14 ar 
    16   13   18 ar 
    17   14   15 ar 
    18   15   16 ar 
    19   16   17 ar 
    20   17   18 ar 
    21    3   19 1  
    22    3   20 1  
    23    3   21 1  
    24    6   22 1  
    25    7   23 1  
    26    8   24 1  
    27    9   25 1  
    28   12   26 1  
    29   15   27 1  
    30   16   28 1  
    31   17   29 1  
    32   18   30 1  
@<TRIPOS>SUBSTRUCTURE
     1 P9I         1

