### 
### Created by X-TOOL on Mon Sep 10 21:13:09 2018
### 

@<TRIPOS>MOLECULE
4a9m_ligand
   45    47     1     0     0
SMALL
GAST_HUCK


@<TRIPOS>ATOM
      1 O3         21.1020   12.6740  -12.7700 O.2       1 P9M        -0.1514
      2 S          19.6900   12.8060  -12.9660 S.o2      1 P9M         0.0646
      3 O2         19.1180   12.4780  -14.2450 O.2       1 P9M        -0.1514
      4 N2         19.3260   14.3290  -12.6780 N.am      1 P9M        -0.2453
      5 C13        19.7060   14.8620  -11.3620 C.3       1 P9M         0.0377
      6 C17        20.4260   16.1850  -11.5540 C.3       1 P9M        -0.0333
      7 C16        20.2630   16.8790  -10.2280 C.3       1 P9M        -0.0513
      8 C15        18.9040   16.4300   -9.7270 C.3       1 P9M        -0.0513
      9 C14        18.4530   15.2740  -10.6000 C.3       1 P9M        -0.0333
     10 C11        18.8950   11.7690  -11.7550 C.ar      1 P9M         0.1028
     11 C9         17.5020   11.7520  -11.5850 C.ar      1 P9M        -0.0256
     12 C10        16.5300   12.5950  -12.3890 C.3       1 P9M        -0.0321
     13 C8         16.9970   10.8860  -10.6040 C.ar      1 P9M        -0.0652
     14 C7         17.8240   10.0720   -9.8240 C.ar      1 P9M        -0.0710
     15 C12        19.7170   10.9690  -10.9760 C.ar      1 P9M        -0.0445
     16 C6         19.2050   10.1120  -10.0120 C.ar      1 P9M        -0.0438
     17 C5         20.1280    9.2710   -9.2000 C.2       1 P9M         0.0164
     18 C2         20.0480    8.9300   -7.8340 C.2       1 P9M         0.0221
     19 C1         19.0070    9.2850   -6.8150 C.3       1 P9M        -0.0272
     20 C3         21.2640    8.6810   -9.6490 C.2       1 P9M         0.1442
     21 C4         21.9780    8.6200  -10.9720 C.3       1 P9M         0.0121
     22 O1         21.8620    8.0190   -8.6390 O.3       1 P9M        -0.1750
     23 N1         21.0610    8.1840   -7.4760 N.2       1 P9M        -0.1681
     24 H1         18.8616   14.8952  -13.3591 H         1 P9M         0.1674
     25 H2         20.3121   14.1338  -10.8031 H         1 P9M         0.0511
     26 H3         19.9621   16.7699  -12.3619 H         1 P9M         0.0283
     27 H4         21.4896   16.0226  -11.7830 H         1 P9M         0.0283
     28 H5         20.2886   17.9713  -10.3554 H         1 P9M         0.0266
     29 H6         21.0553   16.5727   -9.5292 H         1 P9M         0.0266
     30 H7         18.1844   17.2587   -9.8006 H         1 P9M         0.0266
     31 H8         18.9797   16.1020   -8.6798 H         1 P9M         0.0266
     32 H9         18.0817   14.4424   -9.9831 H         1 P9M         0.0283
     33 H10        17.6634   15.5962  -11.2948 H         1 P9M         0.0283
     34 H11        15.5025   12.3889  -12.0547 H         1 P9M         0.0381
     35 H12        16.6251   12.3466  -13.4563 H         1 P9M         0.0381
     36 H13        16.7576   13.6606  -12.2388 H         1 P9M         0.0381
     37 H14        15.9255   10.8463  -10.4446 H         1 P9M         0.0542
     38 H15        17.3941    9.4138   -9.0776 H         1 P9M         0.0541
     39 H16        20.7899   11.0143  -11.1242 H         1 P9M         0.0560
     40 H17        19.2763    8.8405   -5.8455 H         1 P9M         0.0378
     41 H18        18.0301    8.8960   -7.1379 H         1 P9M         0.0378
     42 H19        18.9509   10.3789   -6.7138 H         1 P9M         0.0378
     43 H20        22.8877    8.0101  -10.8699 H         1 P9M         0.0465
     44 H21        22.2522    9.6373  -11.2880 H         1 P9M         0.0465
     45 H22        21.3162    8.1679  -11.7254 H         1 P9M         0.0465
@<TRIPOS>BOND
     1    1    2 2  
     2    2    3 2  
     3    2    4 am 
     4    2   10 1  
     5    4    5 1  
     6    5    6 1  
     7    5    9 1  
     8    6    7 1  
     9    7    8 1  
    10    8    9 1  
    11   10   11 ar 
    12   10   15 ar 
    13   11   12 1  
    14   11   13 ar 
    15   13   14 ar 
    16   14   16 ar 
    17   15   16 ar 
    18   16   17 1  
    19   17   18 1  
    20   17   20 2  
    21   18   19 1  
    22   18   23 2  
    23   20   21 1  
    24   20   22 1  
    25   22   23 1  
    26    4   24 1  
    27    5   25 1  
    28    6   26 1  
    29    6   27 1  
    30    7   28 1  
    31    7   29 1  
    32    8   30 1  
    33    8   31 1  
    34    9   32 1  
    35    9   33 1  
    36   12   34 1  
    37   12   35 1  
    38   12   36 1  
    39   13   37 1  
    40   14   38 1  
    41   15   39 1  
    42   19   40 1  
    43   19   41 1  
    44   19   42 1  
    45   21   43 1  
    46   21   44 1  
    47   21   45 1  
@<TRIPOS>SUBSTRUCTURE
     1 P9M         1

