### 
### Created by X-TOOL on Mon Sep 10 21:13:09 2018
### 

@<TRIPOS>MOLECULE
4a9n_ligand
   37    39     1     0     0
SMALL
GAST_HUCK


@<TRIPOS>ATOM
      1 O3         20.7720   13.3460  -11.6160 O.2       1 A9N        -0.1514
      2 S          19.4320   13.2300  -12.1150 S.o2      1 A9N         0.0651
      3 O2         19.2070   12.9750  -13.5020 O.2       1 A9N        -0.1514
      4 N2         18.6690   14.5960  -11.7380 N.am      1 A9N        -0.2377
      5 C13        18.6580   15.1070  -10.3710 C.3       1 A9N         0.0741
      6 C15        19.7200   16.0250   -9.8860 C.2       1 A9N        -0.0609
      7 C14        18.5520   16.5590  -10.0920 C.2       1 A9N        -0.0609
      8 C11        18.7060   11.8940  -11.2040 C.ar      1 A9N         0.1028
      9 C9         17.3240   11.6620  -11.2660 C.ar      1 A9N        -0.0256
     10 C10        16.3770   12.4820  -12.0690 C.3       1 A9N        -0.0321
     11 C8         16.8380   10.5980  -10.5290 C.ar      1 A9N        -0.0652
     12 C7         17.6600    9.7950   -9.7610 C.ar      1 A9N        -0.0710
     13 C12        19.5340   11.0990  -10.4430 C.ar      1 A9N        -0.0445
     14 C6         19.0150   10.0460   -9.7160 C.ar      1 A9N        -0.0438
     15 C5         19.9240    9.2170   -8.9040 C.2       1 A9N         0.0164
     16 C2         19.8120    8.9360   -7.5260 C.2       1 A9N         0.0221
     17 C1         18.8610    9.3010   -6.6640 C.3       1 A9N        -0.0272
     18 C3         21.0740    8.6200   -9.3460 C.2       1 A9N         0.1442
     19 C4         21.7450    8.5410  -10.6500 C.3       1 A9N         0.0121
     20 O1         21.6670    7.9810   -8.3070 O.3       1 A9N        -0.1750
     21 N1         20.8700    8.1940   -7.1870 N.2       1 A9N        -0.1681
     22 H1         18.1928   15.1050  -12.4550 H         1 A9N         0.1682
     23 H2         18.1974   14.3629   -9.7046 H         1 A9N         0.0599
     24 H3         20.7551   16.1582   -9.5748 H         1 A9N         0.0591
     25 H4         17.9291   17.4521  -10.0728 H         1 A9N         0.0591
     26 H5         15.3565   12.0910  -11.9441 H         1 A9N         0.0381
     27 H6         16.6603   12.4348  -13.1308 H         1 A9N         0.0381
     28 H7         16.4140   13.5264  -11.7257 H         1 A9N         0.0381
     29 H8         15.7752   10.3862  -10.5544 H         1 A9N         0.0542
     30 H9         17.2407    8.9705   -9.1958 H         1 A9N         0.0541
     31 H10        20.5986   11.3009  -10.4146 H         1 A9N         0.0560
     32 H11        19.0978    8.9025   -5.6665 H         1 A9N         0.0378
     33 H12        17.8914    8.9026   -6.9973 H         1 A9N         0.0378
     34 H13        18.8099   10.3988   -6.6176 H         1 A9N         0.0378
     35 H14        22.6657    7.9470  -10.5532 H         1 A9N         0.0465
     36 H15        21.9973    9.5547  -10.9946 H         1 A9N         0.0465
     37 H16        21.0747    8.0621  -11.3789 H         1 A9N         0.0465
@<TRIPOS>BOND
     1    1    2 2  
     2    2    3 2  
     3    2    4 am 
     4    2    8 1  
     5    4    5 1  
     6    5    6 1  
     7    5    7 1  
     8    6    7 2  
     9    8    9 ar 
    10    8   13 ar 
    11    9   10 1  
    12    9   11 ar 
    13   11   12 ar 
    14   12   14 ar 
    15   13   14 ar 
    16   14   15 1  
    17   15   16 1  
    18   15   18 2  
    19   16   17 1  
    20   16   21 2  
    21   18   19 1  
    22   18   20 1  
    23   20   21 1  
    24    4   22 1  
    25    5   23 1  
    26    6   24 1  
    27    7   25 1  
    28   10   26 1  
    29   10   27 1  
    30   10   28 1  
    31   11   29 1  
    32   12   30 1  
    33   13   31 1  
    34   17   32 1  
    35   17   33 1  
    36   17   34 1  
    37   19   35 1  
    38   19   36 1  
    39   19   37 1  
@<TRIPOS>SUBSTRUCTURE
     1 A9N         1

