### 
### Created by X-TOOL on Mon Sep 10 21:13:09 2018
### 

@<TRIPOS>MOLECULE
4a9r_ligand
   40    43     1     0     0
SMALL
GAST_HUCK


@<TRIPOS>ATOM
      1 C1        -11.8510   46.4550    2.8050 C.2       1 RU5         0.1944
      2 N1        -10.8140   45.5480    2.3540 N.am      1 RU5        -0.3015
      3 O1         -6.4010   50.4710   12.4620 O.3       1 RU5        -0.2534
      4 C2        -11.7380   47.1090    4.1770 C.ar      1 RU5         0.0349
      5 C3        -10.5620   47.2190    4.7490 C.ar      1 RU5        -0.0411
      6 N3         -9.3400   48.1210    6.9480 N.2       1 RU5        -0.3077
      7 C4        -10.4390   47.8740    6.1220 C.ar      1 RU5         0.0364
      8 N4        -11.0710   48.9070    8.0410 N.pl3     1 RU5        -0.2487
      9 C5         -9.7970   48.7670    8.1330 C.2       1 RU5         0.1347
     10 C6        -11.5030   48.3270    6.7310 C.ar      1 RU5         0.0852
     11 C7        -12.8720   48.2000    6.0670 C.ar      1 RU5        -0.0347
     12 C8        -12.9800   47.6350    4.8850 C.ar      1 RU5        -0.0553
     13 C9         -8.9140   49.2120    9.2940 C.ar      1 RU5         0.0252
     14 CLA        -9.3920   53.9070   16.3940 Cl        1 RU5        -0.0803
     15 C10        -9.5140   49.4920   10.6690 C.ar      1 RU5        -0.0506
     16 C11        -8.7360   49.8830   11.6560 C.ar      1 RU5        -0.0217
     17 C12        -7.2400   50.0690   11.4200 C.ar      1 RU5         0.1226
     18 C13        -6.7260   49.8320   10.2350 C.ar      1 RU5        -0.0217
     19 C14        -7.6260   49.3770    9.0930 C.ar      1 RU5        -0.0506
     20 C15        -7.1000   51.2660   13.3730 C.ar      1 RU5         0.1185
     21 C16        -7.7890   50.6260   14.5740 C.ar      1 RU5        -0.0273
     22 C17        -8.4430   51.3760   15.4340 C.ar      1 RU5        -0.0555
     23 C18        -8.5080   52.8860   15.2300 C.ar      1 RU5         0.0294
     24 C19        -7.9130   53.4390   14.1960 C.ar      1 RU5        -0.0555
     25 C20        -7.1550   52.5680   13.1990 C.ar      1 RU5        -0.0273
     26 OAB       -12.7770   46.6870    2.1060 O.2       1 RU5        -0.3891
     27 H         -10.8832   45.1107    1.4351 H         1 RU5         0.1806
     28 H         -10.0152   45.3471    2.9556 H         1 RU5         0.1806
     29 H          -9.6728   46.8425    4.2433 H         1 RU5         0.0610
     30 H         -11.6797   49.3371    8.7373 H         1 RU5         0.2309
     31 H         -13.7602   48.5780    6.5733 H         1 RU5         0.0556
     32 H         -13.9576   47.5429    4.4118 H         1 RU5         0.0588
     33 H         -10.5844   49.3685   10.8333 H         1 RU5         0.0642
     34 H          -9.1603   50.0739   12.6417 H         1 RU5         0.0570
     35 H          -5.6565   49.9607   10.0686 H         1 RU5         0.0570
     36 H          -7.2007   49.1880    8.1074 H         1 RU5         0.0642
     37 H          -7.7393   49.5469   14.7195 H         1 RU5         0.0555
     38 H          -8.9377   50.9191   16.2911 H         1 RU5         0.0597
     39 H          -7.9613   54.5183   14.0514 H         1 RU5         0.0597
     40 H          -6.6591   53.0250   12.3426 H         1 RU5         0.0555
@<TRIPOS>BOND
     1    1    2 am 
     2    4    1 1  
     3    1   26 2  
     4    3   17 1  
     5   20    3 1  
     6    5    4 ar 
     7   12    4 ar 
     8    7    5 ar 
     9    6    7 1  
    10    9    6 2  
    11   10    7 ar 
    12    9    8 1  
    13    8   10 1  
    14   13    9 1  
    15   10   11 ar 
    16   11   12 ar 
    17   15   13 ar 
    18   19   13 ar 
    19   23   14 1  
    20   16   15 ar 
    21   17   16 ar 
    22   17   18 ar 
    23   18   19 ar 
    24   21   20 ar 
    25   20   25 ar 
    26   22   21 ar 
    27   22   23 ar 
    28   23   24 ar 
    29   24   25 ar 
    30    2   27 1  
    31    2   28 1  
    32    5   29 1  
    33    8   30 1  
    34   11   31 1  
    35   12   32 1  
    36   15   33 1  
    37   16   34 1  
    38   18   35 1  
    39   19   36 1  
    40   21   37 1  
    41   22   38 1  
    42   24   39 1  
    43   25   40 1  
@<TRIPOS>SUBSTRUCTURE
     1 RU5         1

