### 
### Created by X-TOOL on Mon Sep 10 21:13:10 2018
### 

@<TRIPOS>MOLECULE
4a9s_ligand
   41    44     1     0     0
SMALL
GAST_HUCK


@<TRIPOS>ATOM
      1 C1         34.2940  -33.4430   12.5970 C.2       1 RU9         0.1944
      2 N1         34.8150  -32.4800   13.5500 N.am      1 RU9        -0.3015
      3 O1         40.6020  -30.7750    2.8740 O.3       1 RU9        -0.2566
      4 C2         34.9550  -33.5930   11.2290 C.ar      1 RU9         0.0349
      5 C3         35.6430  -32.6000   10.7030 C.ar      1 RU9        -0.0411
      6 N3         37.0970  -31.9200    8.5460 N.2       1 RU9        -0.3077
      7 C4         36.3190  -32.7730    9.3420 C.ar      1 RU9         0.0364
      8 N4         36.9610  -33.7980    7.4190 N.pl3     1 RU9        -0.2487
      9 C5         37.4750  -32.6220    7.3600 C.2       1 RU9         0.1347
     10 C6         36.2080  -33.9140    8.7060 C.ar      1 RU9         0.0852
     11 C7         35.4100  -35.0650    9.3190 C.ar      1 RU9        -0.0347
     12 C8         34.8300  -34.9160   10.4870 C.ar      1 RU9        -0.0553
     13 C9         38.3140  -32.1010    6.1960 C.ar      1 RU9         0.0252
     14 C10        38.1690  -32.7810    4.8390 C.ar      1 RU9        -0.0506
     15 C11        38.8810  -32.3670    3.8170 C.ar      1 RU9        -0.0217
     16 C12        39.8600  -31.2070    3.9820 C.ar      1 RU9         0.1222
     17 C13        39.9890  -30.6190    5.1560 C.ar      1 RU9        -0.0217
     18 C14        39.1600  -31.1010    6.3480 C.ar      1 RU9        -0.0506
     19 C15        41.2190  -31.8710    2.2550 C.ar      1 RU9         0.1094
     20 C16        42.5890  -32.3500    2.7330 C.ar      1 RU9        -0.0391
     21 C17        43.1690  -33.3810    2.1560 C.ar      1 RU9        -0.0779
     22 C18        42.4710  -34.1010    1.0040 C.ar      1 RU9        -0.0436
     23 C19        41.2910  -33.6890    0.5910 C.ar      1 RU9         0.0801
     24 C20        40.6190  -32.4920    1.2600 C.ar      1 RU9        -0.0006
     25 OAB        33.4430  -34.2030   12.9250 O.2       1 RU9        -0.3891
     26 OAC        40.6500  -34.3550   -0.4590 O.3       1 RU9        -0.3357
     27 H          34.4499  -32.4560   14.5021 H         1 RU9         0.1806
     28 H          35.5462  -31.8273   13.2675 H         1 RU9         0.1806
     29 H          35.7305  -31.6545   11.2382 H         1 RU9         0.0610
     30 H          37.0509  -34.5264    6.7107 H         1 RU9         0.2309
     31 H          35.3225  -36.0112    8.7850 H         1 RU9         0.0556
     32 H          34.2610  -35.7366   10.9239 H         1 RU9         0.0588
     33 H          37.4736  -33.6115    4.7175 H         1 RU9         0.0642
     34 H          38.7730  -32.8529    2.8473 H         1 RU9         0.0570
     35 H          40.6862  -29.7899    5.2766 H         1 RU9         0.0570
     36 H          39.2683  -30.6194    7.3198 H         1 RU9         0.0642
     37 H          43.0877  -31.8360    3.5547 H         1 RU9         0.0463
     38 H          44.1461  -33.7205    2.4998 H         1 RU9         0.0564
     39 H          42.9494  -34.9550    0.5244 H         1 RU9         0.0458
     40 H          39.6430  -32.1514    0.9143 H         1 RU9         0.0474
     41 H          41.2039  -35.0775   -0.7637 H         1 RU9         0.2478
@<TRIPOS>BOND
     1    1    2 am 
     2    4    1 1  
     3    1   25 2  
     4   16    3 1  
     5    3   19 1  
     6    5    4 ar 
     7   12    4 ar 
     8    7    5 ar 
     9    6    7 1  
    10    9    6 2  
    11   10    7 ar 
    12    9    8 1  
    13    8   10 1  
    14   13    9 1  
    15   10   11 ar 
    16   11   12 ar 
    17   14   13 ar 
    18   13   18 ar 
    19   15   14 ar 
    20   15   16 ar 
    21   16   17 ar 
    22   17   18 ar 
    23   19   20 ar 
    24   19   24 ar 
    25   20   21 ar 
    26   21   22 ar 
    27   22   23 ar 
    28   23   24 ar 
    29   23   26 1  
    30    2   27 1  
    31    2   28 1  
    32    5   29 1  
    33    8   30 1  
    34   11   31 1  
    35   12   32 1  
    36   14   33 1  
    37   15   34 1  
    38   17   35 1  
    39   18   36 1  
    40   20   37 1  
    41   21   38 1  
    42   22   39 1  
    43   24   40 1  
    44   26   41 1  
@<TRIPOS>SUBSTRUCTURE
     1 RU9         1

