### 
### Created by X-TOOL on Mon Sep 10 21:13:10 2018
### 

@<TRIPOS>MOLECULE
4a9t_ligand
   49    52     1     0     0
SMALL
GAST_HUCK


@<TRIPOS>ATOM
      1 C1         11.4690  -46.5400    2.8530 C.2       1 A9T         0.1955
      2 N1         10.3200  -46.1600    2.3060 N.am      1 A9T        -0.3012
      3 O1          6.1750  -50.4400   12.2230 O.3       1 A9T        -0.3133
      4 C2         11.3450  -47.1850    4.2410 C.ar      1 A9T         0.0362
      5 C3         10.0920  -47.3170    4.8370 C.ar      1 A9T        -0.0198
      6 N3          8.9250  -48.1660    6.8740 N.pl3     1 A9T        -0.2494
      7 C4          9.9710  -47.9020    6.0950 C.ar      1 A9T         0.0865
      8 N4         10.6930  -48.8550    7.9230 N.2       1 A9T        -0.3067
      9 C5          9.3650  -48.7250    8.0050 C.2       1 A9T         0.1350
     10 C6         11.1010  -48.3510    6.7600 C.ar      1 A9T         0.0340
     11 C7         12.3560  -48.2210    6.1680 C.ar      1 A9T        -0.0572
     12 C8         12.4790  -47.6350    4.9120 C.ar      1 A9T        -0.0576
     13 C9          8.5610  -49.1470    9.0690 C.ar      1 A9T         0.0255
     14 C10         9.1350  -49.6490   10.2350 C.ar      1 A9T        -0.0510
     15 C11         8.3240  -50.0600   11.2890 C.ar      1 A9T        -0.0259
     16 C12         6.9370  -49.9870   11.1840 C.ar      1 A9T         0.0980
     17 C13         6.3620  -49.5380    9.9990 C.ar      1 A9T        -0.0259
     18 C14         7.1730  -49.1040    8.9530 C.ar      1 A9T        -0.0510
     19 C20         4.2610  -52.8700   14.8740 C.3       1 A9T        -0.0333
     20 C19         4.6650  -52.2130   13.5550 C.3       1 A9T        -0.0071
     21 C18         4.3820  -50.7270   13.5850 C.3       1 A9T        -0.0033
     22 C17         5.0060  -50.0910   14.8250 C.3       1 A9T        -0.0071
     23 C16         4.5800  -50.8440   16.0890 C.3       1 A9T        -0.0333
     24 NBG         5.0390  -52.2520   15.9760 N.4       1 A9T         0.2270
     25 CAS         4.7740  -50.0280   12.2760 C.3       1 A9T         0.0753
     26 OAB        12.5630  -46.3810    2.3140 O.2       1 A9T        -0.3880
     27 H          10.3151  -45.7098    1.3908 H         1 A9T         0.1806
     28 H           9.4424  -46.3184    2.8011 H         1 A9T         0.1806
     29 H           9.2031  -46.9609    4.3163 H         1 A9T         0.0602
     30 H           7.9497  -47.9736    6.6457 H         1 A9T         0.2301
     31 H          13.2432  -48.5792    6.6901 H         1 A9T         0.0557
     32 H          13.4622  -47.5283    4.4538 H         1 A9T         0.0567
     33 H          10.2192  -49.7199   10.3219 H         1 A9T         0.0644
     34 H           8.7778  -50.4419   12.2035 H         1 A9T         0.0561
     35 H           5.2776  -49.5259    9.8894 H         1 A9T         0.0561
     36 H           6.7184  -48.7278    8.0365 H         1 A9T         0.0644
     37 H           4.4673  -53.9395   14.8316 H         1 A9T         0.0814
     38 H           3.1950  -52.7232   15.0478 H         1 A9T         0.0814
     39 H           4.0887  -52.6639   12.7471 H         1 A9T         0.0320
     40 H           5.7334  -52.3639   13.4003 H         1 A9T         0.0320
     41 H           3.3037  -50.5874   13.6618 H         1 A9T         0.0331
     42 H           4.6691  -49.0570   14.8993 H         1 A9T         0.0320
     43 H           6.0915  -50.1351   14.7364 H         1 A9T         0.0320
     44 H           3.4954  -50.8134   16.1925 H         1 A9T         0.0814
     45 H           5.0246  -50.3771   16.9679 H         1 A9T         0.0814
     46 H           6.0393  -52.2926   15.7806 H         1 A9T         0.2013
     47 H           4.8888  -52.7536   16.8514 H         1 A9T         0.2013
     48 H           4.1762  -50.3009   11.4064 H         1 A9T         0.0620
     49 H           4.6052  -48.9513   12.2555 H         1 A9T         0.0620
@<TRIPOS>BOND
     1    1    2 am 
     2    4    1 1  
     3    1   26 2  
     4    3   16 1  
     5   25    3 1  
     6    5    4 ar 
     7   12    4 ar 
     8    7    5 ar 
     9    6    7 1  
    10    9    6 1  
    11   10    7 ar 
    12    9    8 2  
    13    8   10 1  
    14   13    9 1  
    15   10   11 ar 
    16   11   12 ar 
    17   14   13 ar 
    18   18   13 ar 
    19   15   14 ar 
    20   16   15 ar 
    21   16   17 ar 
    22   17   18 ar 
    23   20   19 1  
    24   19   24 1  
    25   21   20 1  
    26   21   22 1  
    27   21   25 1  
    28   22   23 1  
    29   23   24 1  
    30    2   27 1  
    31    2   28 1  
    32    5   29 1  
    33    6   30 1  
    34   11   31 1  
    35   12   32 1  
    36   14   33 1  
    37   15   34 1  
    38   17   35 1  
    39   18   36 1  
    40   19   37 1  
    41   19   38 1  
    42   20   39 1  
    43   20   40 1  
    44   21   41 1  
    45   22   42 1  
    46   22   43 1  
    47   23   44 1  
    48   23   45 1  
    49   24   46 1  
    50   24   47 1  
    51   25   48 1  
    52   25   49 1  
@<TRIPOS>SUBSTRUCTURE
     1 A9T         1

