### 
### Created by X-TOOL on Mon Sep 10 21:13:09 2018
### 

@<TRIPOS>MOLECULE
4a9u_ligand
   49    52     1     0     0
SMALL
GAST_HUCK


@<TRIPOS>ATOM
      1 C1         34.5160  -33.4250   12.6700 C.2       1 A9U         0.1955
      2 N1         34.9870  -32.4320   13.6130 N.am      1 A9U        -0.3012
      3 O1         40.8970  -30.5630    3.0780 O.3       1 A9U        -0.3133
      4 C2         35.2110  -33.5870   11.3200 C.ar      1 A9U         0.0362
      5 C3         35.8410  -32.5690   10.7730 C.ar      1 A9U        -0.0198
      6 N3         37.2650  -31.8550    8.6100 N.pl3     1 A9U        -0.2494
      7 C4         36.5330  -32.7380    9.4180 C.ar      1 A9U         0.0865
      8 N4         37.2390  -33.7650    7.5240 N.2       1 A9U        -0.3067
      9 C5         37.6640  -32.5580    7.4260 C.2       1 A9U         0.1350
     10 C6         36.4910  -33.8960    8.8070 C.ar      1 A9U         0.0340
     11 C7         35.7600  -35.0770    9.4440 C.ar      1 A9U        -0.0572
     12 C8         35.1660  -34.9330   10.6100 C.ar      1 A9U        -0.0576
     13 C9         38.5030  -32.0110    6.2730 C.ar      1 A9U         0.0255
     14 C10        38.5970  -32.7990    4.9670 C.ar      1 A9U        -0.0510
     15 C11        39.3320  -32.3440    3.9720 C.ar      1 A9U        -0.0259
     16 C12        40.0940  -31.0290    4.1250 C.ar      1 A9U         0.0980
     17 C13        40.0180  -30.3530    5.2540 C.ar      1 A9U        -0.0259
     18 C14        39.1660  -30.8800    6.4090 C.ar      1 A9U        -0.0510
     19 C20        43.8310  -29.7100    0.6420 C.3       1 A9U        -0.0333
     20 C19        42.7390  -29.9040    1.6970 C.3       1 A9U        -0.0071
     21 C18        41.6020  -29.0800    1.4560 C.3       1 A9U        -0.0033
     22 C17        41.1530  -29.2070    0.1140 C.3       1 A9U        -0.0071
     23 C16        42.2900  -29.0090   -0.8850 C.3       1 A9U        -0.0333
     24 NBH        43.3020  -29.9110   -0.6210 N.4       1 A9U         0.2270
     25 CAS        40.5480  -29.4090    2.3680 C.3       1 A9U         0.0753
     26 OAB        33.5880  -34.1090   12.9460 O.2       1 A9U        -0.3880
     27 H          34.5204  -32.3219   14.5133 H         1 A9U         0.1806
     28 H          35.7854  -31.8427   13.3769 H         1 A9U         0.1806
     29 H          35.8700  -31.6068   11.2842 H         1 A9U         0.0602
     30 H          37.4767  -30.8812    8.8274 H         1 A9U         0.2301
     31 H          35.7303  -36.0392    8.9327 H         1 A9U         0.0557
     32 H          34.6438  -35.7744   11.0654 H         1 A9U         0.0567
     33 H          38.0554  -33.7387    4.8582 H         1 A9U         0.0644
     34 H          39.3961  -32.9059    3.0402 H         1 A9U         0.0561
     35 H          40.5639  -29.4160    5.3645 H         1 A9U         0.0561
     36 H          39.1070  -30.3214    7.3431 H         1 A9U         0.0644
     37 H          44.6325  -30.4280    0.8160 H         1 A9U         0.0814
     38 H          44.2237  -28.6956    0.7115 H         1 A9U         0.0814
     39 H          43.1542  -29.6321    2.6675 H         1 A9U         0.0320
     40 H          42.4161  -30.9445    1.6622 H         1 A9U         0.0320
     41 H          41.8956  -28.0426    1.6162 H         1 A9U         0.0331
     42 H          40.3989  -28.4416   -0.0690 H         1 A9U         0.0320
     43 H          40.7508  -30.2113   -0.0192 H         1 A9U         0.0320
     44 H          42.6774  -27.9941   -0.7958 H         1 A9U         0.0814
     45 H          41.9158  -29.1706   -1.8959 H         1 A9U         0.0814
     46 H          42.9185  -30.8550   -0.6680 H         1 A9U         0.2013
     47 H          44.0430  -29.7813   -1.3099 H         1 A9U         0.2013
     48 H          40.3955  -28.5838    3.0636 H         1 A9U         0.0620
     49 H          39.6264  -29.5856    1.8134 H         1 A9U         0.0620
@<TRIPOS>BOND
     1    1    2 am 
     2    4    1 1  
     3    1   26 2  
     4    3   16 1  
     5   25    3 1  
     6    5    4 ar 
     7   12    4 ar 
     8    7    5 ar 
     9    6    7 1  
    10    9    6 1  
    11   10    7 ar 
    12    9    8 2  
    13    8   10 1  
    14   13    9 1  
    15   10   11 ar 
    16   11   12 ar 
    17   14   13 ar 
    18   18   13 ar 
    19   15   14 ar 
    20   16   15 ar 
    21   16   17 ar 
    22   17   18 ar 
    23   20   19 1  
    24   19   24 1  
    25   21   20 1  
    26   21   22 1  
    27   21   25 1  
    28   22   23 1  
    29   23   24 1  
    30    2   27 1  
    31    2   28 1  
    32    5   29 1  
    33    6   30 1  
    34   11   31 1  
    35   12   32 1  
    36   14   33 1  
    37   15   34 1  
    38   17   35 1  
    39   18   36 1  
    40   19   37 1  
    41   19   38 1  
    42   20   39 1  
    43   20   40 1  
    44   21   41 1  
    45   22   42 1  
    46   22   43 1  
    47   23   44 1  
    48   23   45 1  
    49   24   46 1  
    50   24   47 1  
    51   25   48 1  
    52   25   49 1  
@<TRIPOS>SUBSTRUCTURE
     1 A9U         1

