### 
### Created by X-TOOL on Mon Sep 10 21:13:11 2018
### 

@<TRIPOS>MOLECULE
4aa0_ligand
   74    79     1     0     0
SMALL
GAST_HUCK


@<TRIPOS>ATOM
      1 C3         -4.0470    0.0810   24.7150 C.ar      1 AA0        -0.0440
      2 C4         -4.0520   -0.7470   23.6010 C.ar      1 AA0        -0.0584
      3 C5         -4.0860   -0.1840   22.3320 C.ar      1 AA0         0.0151
      4 N6         -4.0880   -1.0350   21.1970 N.2       1 AA0        -0.2998
      5 C9         -4.1350    1.7980   20.8860 C.2       1 AA0         0.2569
      6 N10        -4.1360    0.9010   19.8270 N.am      1 AA0        -0.1465
      7 C11        -4.3230    1.4180   18.5090 C.ar      1 AA0         0.0995
      8 C12        -3.2660    2.0260   17.8420 C.ar      1 AA0        -0.0155
      9 C13        -3.4990    2.5460   16.5630 C.ar      1 AA0         0.0510
     10 N14        -2.5080    3.2070   15.7910 N.am      1 AA0        -0.2377
     11 C15        -1.1510    2.9030   15.8110 C.2       1 AA0         0.2371
     12 O16        -0.6360    2.0640   16.5550 O.2       1 AA0        -0.3688
     13 C17        -0.2900    3.6170   14.8150 C.ar      1 AA0         0.0633
     14 C18        -0.6110    4.8860   14.3690 C.ar      1 AA0        -0.0284
     15 C19         0.2550    5.4680   13.4620 C.ar      1 AA0         0.0010
     16 N20         1.3800    4.8820   13.0000 N.ar      1 AA0        -0.2809
     17 C21         1.6940    3.6320   13.4140 C.ar      1 AA0         0.1191
     18 C22         0.8610    2.9950   14.3380 C.ar      1 AA0         0.0038
     19 N23         2.8650    2.9920   12.8790 N.pl3     1 AA0        -0.2890
     20 C28         3.3520    1.7780   13.5340 C.3       1 AA0         0.0532
     21 C27         4.4100    1.0460   12.7050 C.3       1 AA0         0.0678
     22 O26         5.5030    1.9080   12.3560 O.3       1 AA0        -0.3758
     23 C25         4.9830    3.0510   11.6340 C.3       1 AA0         0.0678
     24 C24         3.9560    3.8630   12.4350 C.3       1 AA0         0.0532
     25 C29        -4.7610    2.4720   16.0070 C.ar      1 AA0        -0.0581
     26 C30        -5.8220    1.8800   16.6590 C.ar      1 AA0        -0.0807
     27 C31        -5.5880    1.3500   17.9240 C.ar      1 AA0        -0.0267
     28 C20        -4.1140   -0.4600   20.0290 C.2       1 AA0         0.1421
     29 C32        -6.7400    0.7070   18.6280 C.3       1 AA0        -0.0390
     30 C33        -4.1080    1.1950   22.2360 C.ar      1 AA0         0.0588
     31 C34        -4.1000    2.0200   23.3500 C.ar      1 AA0        -0.0292
     32 C35        -4.0690    1.4570   24.6210 C.ar      1 AA0         0.0407
     33 C41        -3.4460    1.6010   26.9710 C.3       1 AA0         0.0661
     34 C40        -2.0690    2.1540   27.2670 C.3       1 AA0        -0.0121
     35 N31        -4.0760    2.2300   25.8030 N.pl3     1 AA0        -0.3007
     36 N39        -2.0730    3.6410   27.1310 N.4       1 AA0         0.2358
     37 C38        -2.5430    4.1080   25.7970 C.3       1 AA0        -0.0121
     38 O39        -4.1440    3.0160   20.7820 O.2       1 AA0        -0.3764
     39 C37        -3.9830    3.6670   25.6130 C.3       1 AA0         0.0661
     40 C43        -0.7200    4.1760   27.3700 C.3       1 AA0        -0.0430
     41 H1         -4.0249   -0.3724   25.6994 H         1 AA0         0.0546
     42 H2         -4.0296   -1.8242   23.7206 H         1 AA0         0.0553
     43 H3         -2.2861    2.0958   18.3003 H         1 AA0         0.0411
     44 H4         -2.8079    3.9462   15.1879 H         1 AA0         0.2232
     45 H5         -1.5004    5.4005   14.7145 H         1 AA0         0.0644
     46 H6          0.0148    6.4603   13.0978 H         1 AA0         0.0791
     47 H7          1.1149    2.0012   14.6888 H         1 AA0         0.0660
     48 H8          2.5012    1.1001   13.6971 H         1 AA0         0.0542
     49 H9          3.7926    2.0533   14.5036 H         1 AA0         0.0542
     50 H10         3.9431    0.6715   11.7821 H         1 AA0         0.0580
     51 H11         4.7974    0.1987   13.2899 H         1 AA0         0.0580
     52 H12         4.5012    2.6916   10.7128 H         1 AA0         0.0580
     53 H13         5.8236    3.7113   11.3746 H         1 AA0         0.0580
     54 H14         4.4477    4.3074   13.3129 H         1 AA0         0.0542
     55 H15         3.5481    4.6626   11.7993 H         1 AA0         0.0542
     56 H16        -4.9234    2.8947   15.0221 H         1 AA0         0.0400
     57 H17        -6.8037    1.8293   16.2022 H         1 AA0         0.0492
     58 H18        -4.1187   -1.1019   19.1493 H         1 AA0         0.1495
     59 H19        -6.4093    0.3363   19.6094 H         1 AA0         0.0345
     60 H20        -7.1147   -0.1338   18.0258 H         1 AA0         0.0345
     61 H21        -7.5434    1.4454   18.7667 H         1 AA0         0.0345
     62 H22        -4.1178    3.0973   23.2310 H         1 AA0         0.0542
     63 H23        -4.0876    1.7688   27.8486 H         1 AA0         0.0565
     64 H24        -3.3574    0.5209   26.7827 H         1 AA0         0.0565
     65 H25        -1.3449    1.7258   26.5582 H         1 AA0         0.0834
     66 H26        -1.7812    1.8834   28.2936 H         1 AA0         0.0834
     67 H27        -2.6962    4.0131   27.8304 H         1 AA0         0.2032
     68 H28        -1.9163    3.6676   25.0076 H         1 AA0         0.0834
     69 H29        -2.4813    5.2050   25.7449 H         1 AA0         0.0834
     70 H30        -4.6199    4.1767   26.3509 H         1 AA0         0.0565
     71 H31        -4.3190    3.9254   24.5979 H         1 AA0         0.0565
     72 H32        -0.3606    3.8382   28.3532 H         1 AA0         0.0778
     73 H33        -0.7514    5.2753   27.3490 H         1 AA0         0.0778
     74 H34        -0.0386    3.8136   26.5862 H         1 AA0         0.0778
@<TRIPOS>BOND
     1    1    2 ar 
     2   32    1 ar 
     3    2    3 ar 
     4    3    4 1  
     5   30    3 ar 
     6    4   28 2  
     7    5    6 am 
     8   30    5 1  
     9    5   38 2  
    10    6    7 1  
    11    6   28 1  
    12    7    8 ar 
    13    7   27 ar 
    14    8    9 ar 
    15    9   10 1  
    16    9   25 ar 
    17   10   11 am 
    18   11   12 2  
    19   11   13 1  
    20   13   14 ar 
    21   13   18 ar 
    22   14   15 ar 
    23   15   16 ar 
    24   17   16 ar 
    25   18   17 ar 
    26   17   19 1  
    27   19   20 1  
    28   19   24 1  
    29   20   21 1  
    30   21   22 1  
    31   23   22 1  
    32   24   23 1  
    33   26   25 ar 
    34   27   26 ar 
    35   27   29 1  
    36   31   30 ar 
    37   32   31 ar 
    38   35   32 1  
    39   33   34 1  
    40   33   35 1  
    41   34   36 1  
    42   35   39 1  
    43   36   37 1  
    44   36   40 1  
    45   37   39 1  
    46    1   41 1  
    47    2   42 1  
    48    8   43 1  
    49   10   44 1  
    50   14   45 1  
    51   15   46 1  
    52   18   47 1  
    53   20   48 1  
    54   20   49 1  
    55   21   50 1  
    56   21   51 1  
    57   23   52 1  
    58   23   53 1  
    59   24   54 1  
    60   24   55 1  
    61   25   56 1  
    62   26   57 1  
    63   28   58 1  
    64   29   59 1  
    65   29   60 1  
    66   29   61 1  
    67   31   62 1  
    68   33   63 1  
    69   33   64 1  
    70   34   65 1  
    71   34   66 1  
    72   36   67 1  
    73   37   68 1  
    74   37   69 1  
    75   39   70 1  
    76   39   71 1  
    77   40   72 1  
    78   40   73 1  
    79   40   74 1  
@<TRIPOS>SUBSTRUCTURE
     1 AA0         1

