### 
### Created by X-TOOL on Mon Sep 10 21:13:10 2018
### 

@<TRIPOS>MOLECULE
4aa1_ligand
   76    78     1     0     0
SMALL
GAST_HUCK


@<TRIPOS>ATOM
      1 N          -9.0950   23.2670   21.3540 N.4       1 TYR         0.2392
      2 CA        -10.4390   23.1330   20.7090 C.3       1 TYR         0.0730
      3 C         -11.5130   22.6190   21.6800 C.2       1 TYR         0.2286
      4 O         -11.5660   21.4330   22.0120 O.2       1 TYR        -0.3905
      5 CB        -10.3450   22.2750   19.4430 C.3       1 TYR         0.0365
      6 CG         -9.7940   23.0400   18.2590 C.ar      1 TYR        -0.0460
      7 CD1        -8.4220   23.1050   18.0200 C.ar      1 TYR        -0.0684
      8 CD2       -10.6450   23.7190   17.3880 C.ar      1 TYR        -0.0684
      9 CE1        -7.9150   23.8190   16.9310 C.ar      1 TYR        -0.0398
     10 CE2       -10.1460   24.4360   16.3010 C.ar      1 TYR        -0.0398
     11 CZ         -8.7820   24.4790   16.0750 C.ar      1 TYR         0.0805
     12 OH         -8.2910   25.1830   14.9950 O.3       1 TYR        -0.3376
     13 N         -12.3830   23.5340   22.1010 N.am      1 ILE        -0.2606
     14 CA        -13.2750   23.3190   23.2460 C.3       1 ILE         0.1336
     15 C         -14.7490   23.0380   22.8980 C.2       1 ILE         0.2043
     16 O         -15.2170   23.3500   21.7970 O.2       1 ILE        -0.3944
     17 CB        -13.1790   24.5010   24.2680 C.3       1 ILE        -0.0037
     18 CG1       -12.8550   25.8360   23.5710 C.3       1 ILE        -0.0491
     19 CG2       -12.1450   24.2050   25.3390 C.3       1 ILE        -0.0582
     20 CD1       -11.3490   26.0990   23.2810 C.3       1 ILE        -0.0648
     21 N         -15.4520   22.4220   23.8540 N.am      1 HIS        -0.2625
     22 CA        -16.8950   22.1630   23.7960 C.3       1 HIS         0.1371
     23 C         -17.6620   23.4880   23.9480 C.2       1 HIS         0.2079
     24 O         -17.1560   24.4040   24.5910 O.2       1 HIS        -0.3940
     25 CB        -17.2560   21.1920   24.9300 C.3       1 HIS         0.0145
     26 CG        -18.6980   20.7940   24.9690 C.2       1 HIS        -0.0027
     27 ND1       -19.2320   19.8390   24.1290 N.2       1 HIS        -0.3252
     28 CD2       -19.7160   21.2090   25.7610 C.2       1 HIS         0.0291
     29 CE1       -20.5180   19.6930   24.3930 C.2       1 HIS         0.0907
     30 NE2       -20.8380   20.5140   25.3780 N.pl3     1 HIS        -0.2752
     31 N         -18.8690   23.6080   23.3430 N.am      1 PRO        -0.2497
     32 CA        -19.6740   24.8300   23.5320 C.3       1 PRO         0.1334
     33 C         -20.0240   25.1220   24.9940 C.2       1 PRO         0.1994
     34 O         -20.3300   26.2540   25.3600 O.2       1 PRO        -0.3947
     35 CB        -20.9580   24.5530   22.7310 C.3       1 PRO        -0.0104
     36 CG        -20.9000   23.1180   22.3320 C.3       1 PRO        -0.0281
     37 CD        -19.4540   22.7360   22.3100 C.3       1 PRO         0.0369
     38 N         -20.0100   24.2380   25.8450 N.am      1 PHE        -0.2990
     39 H1         -8.4297   23.6061   20.6769 H         1 TYR         0.2017
     40 H2         -8.7960   22.3678   21.6976 H         1 TYR         0.2017
     41 H3         -9.1541   23.9174   22.1218 H         1 TYR         0.2017
     42 H4        -10.7497   24.1408   20.3964 H         1 TYR         0.1120
     43 H5        -11.3514   21.9107   19.1891 H         1 TYR         0.0486
     44 H6         -9.6854   21.4185   19.6464 H         1 TYR         0.0486
     45 H7         -7.7386   22.5942   18.6887 H         1 TYR         0.0530
     46 H8        -11.7150   23.6890   17.5590 H         1 TYR         0.0530
     47 H9         -6.8458   23.8565   16.7563 H         1 TYR         0.0525
     48 H10       -10.8244   24.9577   15.6357 H         1 TYR         0.0525
     49 H11        -8.6490   24.8208   14.1930 H         1 TYR         0.2458
     50 H12       -12.4309   24.4069   21.6154 H         1 ILE         0.1885
     51 H13       -12.9024   22.4187   23.7565 H         1 ILE         0.0803
     52 H14       -14.1589   24.6033   24.7571 H         1 ILE         0.0345
     53 H15       -13.2225   26.6501   24.2130 H         1 ILE         0.0267
     54 H16       -13.3921   25.8550   22.6112 H         1 ILE         0.0267
     55 H17       -12.3873   23.2503   25.8287 H         1 ILE         0.0235
     56 H18       -12.1499   25.0120   26.0864 H         1 ILE         0.0235
     57 H19       -11.1485   24.1381   24.8781 H         1 ILE         0.0235
     58 H20       -11.2360   27.0743   22.7849 H         1 ILE         0.0230
     59 H21       -10.9580   25.3068   22.6256 H         1 ILE         0.0230
     60 H22       -10.7884   26.1019   24.2274 H         1 ILE         0.0230
     61 H23       -14.9583   22.1155   24.6678 H         1 HIS         0.1885
     62 H24       -17.1506   21.7065   22.8284 H         1 HIS         0.0817
     63 H25       -17.0062   21.6731   25.8871 H         1 HIS         0.0420
     64 H26       -16.6512   20.2813   24.8084 H         1 HIS         0.0420
     65 H27       -19.6563   21.9540   26.5530 H         1 HIS         0.0729
     66 H28       -21.1990   19.0117   23.8851 H         1 HIS         0.1199
     67 H29       -21.7758   20.6163   25.7914 H         1 HIS         0.2361
     68 H30       -19.1384   25.6972   23.1185 H         1 PRO         0.0802
     69 H31       -20.9965   25.1952   21.8388 H         1 PRO         0.0313
     70 H32       -21.8442   24.7393   23.3554 H         1 PRO         0.0313
     71 H33       -21.3427   22.9838   21.3340 H         1 PRO         0.0287
     72 H34       -21.4444   22.4996   23.0608 H         1 PRO         0.0287
     73 H35       -19.3210   21.6745   22.5660 H         1 PRO         0.0524
     74 H36       -19.0070   22.9344   21.3247 H         1 PRO         0.0524
     75 H37       -20.2424   24.4533   26.7935 H         1 PHE         0.1815
     76 H38       -19.7662   23.3023   25.5900 H         1 PHE         0.1815
@<TRIPOS>BOND
     1    1    2 1  
     2    2    3 1  
     3    2    5 1  
     4    3    4 2  
     5    3   13 am 
     6    5    6 1  
     7    6    7 ar 
     8    6    8 ar 
     9    7    9 ar 
    10    8   10 ar 
    11    9   11 ar 
    12   10   11 ar 
    13   11   12 1  
    14   13   14 1  
    15   14   15 1  
    16   14   17 1  
    17   15   16 2  
    18   15   21 am 
    19   17   18 1  
    20   17   19 1  
    21   18   20 1  
    22   21   22 1  
    23   22   23 1  
    24   22   25 1  
    25   23   24 2  
    26   23   31 am 
    27   25   26 1  
    28   26   27 1  
    29   26   28 2  
    30   27   29 2  
    31   28   30 1  
    32   29   30 1  
    33   31   32 1  
    34   31   37 1  
    35   32   33 1  
    36   32   35 1  
    37   33   34 2  
    38   33   38 am 
    39   35   36 1  
    40   36   37 1  
    41    1   39 1  
    42    1   40 1  
    43    1   41 1  
    44    2   42 1  
    45    5   43 1  
    46    5   44 1  
    47    7   45 1  
    48    8   46 1  
    49    9   47 1  
    50   10   48 1  
    51   12   49 1  
    52   13   50 1  
    53   14   51 1  
    54   17   52 1  
    55   18   53 1  
    56   18   54 1  
    57   19   55 1  
    58   19   56 1  
    59   19   57 1  
    60   20   58 1  
    61   20   59 1  
    62   20   60 1  
    63   21   61 1  
    64   22   62 1  
    65   25   63 1  
    66   25   64 1  
    67   28   65 1  
    68   29   66 1  
    69   30   67 1  
    70   32   68 1  
    71   35   69 1  
    72   35   70 1  
    73   36   71 1  
    74   36   72 1  
    75   37   73 1  
    76   37   74 1  
    77   38   75 1  
    78   38   76 1  
@<TRIPOS>SUBSTRUCTURE
     1 TYR         1

