### 
### Created by X-TOOL on Mon Sep 10 21:13:10 2018
### 

@<TRIPOS>MOLECULE
4aa2_ligand
  110   112     1     0     0
SMALL
GAST_HUCK


@<TRIPOS>ATOM
      1 N          25.5220    9.3440   14.3110 N.4       1 ARG         0.2379
      2 CA         25.5600    8.7300   12.9450 C.3       1 ARG         0.0653
      3 C          24.9820    7.3020   12.9490 C.2       1 ARG         0.2292
      4 O          24.9070    6.6750   14.0160 O.2       1 ARG        -0.3905
      5 CB         26.9970    8.7220   12.4140 C.3       1 ARG         0.0110
      6 CG         27.1070    9.0270   10.9190 C.3       1 ARG        -0.0125
      7 CD         28.1380    8.1350   10.2310 C.3       1 ARG         0.0629
      8 NE         29.4500    8.2470   10.8640 N.pl3     1 ARG        -0.2723
      9 CZ         30.3670    9.1580   10.5470 C.cat     1 ARG         0.2882
     10 NH1        30.1300   10.0490    9.5880 N.pl3     1 ARG        -0.2849
     11 NH2        31.5250    9.1790   11.1940 N.pl3     1 ARG        -0.2849
     12 N          24.5620    6.7850   11.7650 N.am      1 PRO        -0.2471
     13 CA         24.0340    5.4210   11.6680 C.3       1 PRO         0.1339
     14 C          25.0070    4.3470   12.1460 C.2       1 PRO         0.2041
     15 O          26.2310    4.5170   12.0580 O.2       1 PRO        -0.3944
     16 CB         23.7700    5.2440   10.1600 C.3       1 PRO        -0.0104
     17 CG         24.5390    6.3380    9.4930 C.3       1 PRO        -0.0281
     18 CD         24.4410    7.4720   10.4680 C.3       1 PRO         0.0371
     19 N          24.4430    3.2490   12.6430 N.am      1 LYS        -0.2637
     20 CA         25.2120    2.1170   13.1330 C.3       1 LYS         0.1310
     21 C          25.2470    1.0480   12.0490 C.2       1 LYS         0.2039
     22 O          24.1980    0.6370   11.5520 O.2       1 LYS        -0.3944
     23 CB         24.5620    1.5540   14.3920 C.3       1 LYS        -0.0122
     24 CG         24.2060    2.5750   15.4670 C.3       1 LYS        -0.0440
     25 CD         25.2700    2.6340   16.5480 C.3       1 LYS        -0.0124
     26 CE         26.2060    3.7960   16.3580 C.3       1 LYS        -0.0354
     27 NZ         25.6340    5.0430   16.9210 N.4       1 LYS         0.2185
     28 N          26.4470    0.5920   11.7000 N.am      1 ILE        -0.2635
     29 CA         26.6460   -0.2640   10.5250 C.3       1 ILE         0.1337
     30 C          27.3650   -1.5950   10.8480 C.2       1 ILE         0.2067
     31 O          28.0680   -1.6860   11.8580 O.2       1 ILE        -0.3942
     32 CB         27.3870    0.5170    9.3990 C.3       1 ILE        -0.0037
     33 CG1        28.8170    0.8710    9.8180 C.3       1 ILE        -0.0491
     34 CG2        26.6170    1.7880    9.0240 C.3       1 ILE        -0.0582
     35 CD1        29.6410    1.4980    8.7160 C.3       1 ILE        -0.0648
     36 N          27.1940   -2.6320    9.9970 N.am      1 PRO        -0.2498
     37 CA         27.8960   -3.8910   10.2480 C.3       1 PRO         0.1339
     38 C          29.3980   -3.7390   10.0110 C.2       1 PRO         0.2060
     39 O          29.8140   -2.7780    9.3500 O.2       1 PRO        -0.3942
     40 CB         27.3100   -4.8520    9.1940 C.3       1 PRO        -0.0104
     41 CG         26.1910   -4.1320    8.5490 C.3       1 PRO        -0.0281
     42 CD         26.4520   -2.6810    8.7270 C.3       1 PRO         0.0369
     43 N          30.2110   -4.6700   10.5510 N.am      1 PRO        -0.2556
     44 CA         31.6500   -4.6520   10.3020 C.3       1 PRO         0.0972
     45 C          31.9760   -4.8190    8.8200 C.2       1 PRO         0.0603
     46 O          33.0810   -4.5050    8.3970 O.co2     1 PRO        -0.5666
     47 CB         32.1640   -5.8630   11.0870 C.3       1 PRO        -0.0159
     48 CG         30.9730   -6.6830   11.3910 C.3       1 PRO        -0.0288
     49 CD         29.8440   -5.7270   11.5090 C.3       1 PRO         0.0362
     50 OXT        31.1490   -5.2650    8.0230 O.co2     1 PRO        -0.5666
     51 H1         25.9065   10.2750   14.2717 H         1 ARG         0.2015
     52 H2         26.0661    8.7824   14.9471 H         1 ARG         0.2015
     53 H3         24.5679    9.3879   14.6333 H         1 ARG         0.2015
     54 H4         24.9443    9.3467   12.2737 H         1 ARG         0.1098
     55 H5         27.4284    7.7268   12.5971 H         1 ARG         0.0347
     56 H6         27.5742    9.4789   12.9653 H         1 ARG         0.0347
     57 H7         27.4045   10.0783   10.7913 H         1 ARG         0.0302
     58 H8         26.1257    8.8639   10.4495 H         1 ARG         0.0302
     59 H9         28.2233    8.4351    9.1762 H         1 ARG         0.0689
     60 H10        27.8014    7.0894   10.2887 H         1 ARG         0.0689
     61 H11        29.6816    7.5734   11.6080 H         1 ARG         0.2642
     62 H12        30.8451   10.7507    9.3488 H         1 ARG         0.2615
     63 H13        29.2314   10.0372    9.0847 H         1 ARG         0.2615
     64 H14        31.7123    8.4908   11.9371 H         1 ARG         0.2615
     65 H15        32.2368    9.8835   10.9532 H         1 ARG         0.2615
     66 H16        23.1002    5.3364   12.2431 H         1 PRO         0.0802
     67 H17        22.6960    5.3407    9.9431 H         1 PRO         0.0313
     68 H18        24.1258    4.2604    9.8196 H         1 PRO         0.0313
     69 H19        24.0846    6.6075    8.5282 H         1 PRO         0.0287
     70 H20        25.5870    6.0435    9.3352 H         1 PRO         0.0287
     71 H21        25.2581    8.1939   10.3222 H         1 PRO         0.0524
     72 H22        23.4744    7.9897   10.3805 H         1 PRO         0.0524
     73 H23        23.4449    3.2004   12.6811 H         1 LYS         0.1883
     74 H24        26.2372    2.4406   13.3657 H         1 LYS         0.0800
     75 H25        25.2578    0.8262   14.8348 H         1 LYS         0.0312
     76 H26        23.6358    1.0411   14.0935 H         1 LYS         0.0312
     77 H27        23.2461    2.2933   15.9245 H         1 LYS         0.0269
     78 H28        24.1132    3.5673   15.0016 H         1 LYS         0.0269
     79 H29        25.8528    1.7014   16.5233 H         1 LYS         0.0317
     80 H30        24.7767    2.7323   17.5262 H         1 LYS         0.0317
     81 H31        26.3877    3.9383   15.2825 H         1 LYS         0.0813
     82 H32        27.1574    3.5770   16.8648 H         1 LYS         0.0813
     83 H33        26.2809    5.8030   16.7798 H         1 LYS         0.1994
     84 H34        25.4689    4.9213   17.9079 H         1 LYS         0.1994
     85 H35        24.7635    5.2524   16.4579 H         1 LYS         0.1994
     86 H36        27.2395    0.8408   12.2568 H         1 ILE         0.1883
     87 H37        25.6476   -0.5245   10.1438 H         1 ILE         0.0803
     88 H38        27.4390   -0.1304    8.5112 H         1 ILE         0.0345
     89 H39        29.3203   -0.0508   10.1450 H         1 ILE         0.0267
     90 H40        28.7665    1.5791   10.6582 H         1 ILE         0.0267
     91 H41        25.5925    1.5213    8.7252 H         1 ILE         0.0235
     92 H42        27.1240    2.2904    8.1870 H         1 ILE         0.0235
     93 H43        26.5817    2.4645    9.8906 H         1 ILE         0.0235
     94 H44        30.6495    1.7216    9.0942 H         1 ILE         0.0230
     95 H45        29.1596    2.4292    8.3827 H         1 ILE         0.0230
     96 H46        29.7135    0.7993    7.8695 H         1 ILE         0.0230
     97 H47        27.7103   -4.2518   11.2704 H         1 PRO         0.0802
     98 H48        26.9436   -5.7695    9.6776 H         1 PRO         0.0313
     99 H49        28.0757   -5.1114    8.4481 H         1 PRO         0.0313
    100 H50        25.2390   -4.4065    9.0269 H         1 PRO         0.0287
    101 H51        26.1487   -4.3801    7.4782 H         1 PRO         0.0287
    102 H52        27.0580   -2.2838    7.8994 H         1 PRO         0.0524
    103 H53        25.5110   -2.1156    8.7967 H         1 PRO         0.0524
    104 H54        32.0978   -3.7184   10.6734 H         1 PRO         0.0728
    105 H55        32.6518   -5.5370   12.0175 H         1 PRO         0.0306
    106 H56        32.8791   -6.4373   10.4798 H         1 PRO         0.0306
    107 H57        31.1140   -7.2279   12.3361 H         1 PRO         0.0286
    108 H58        30.7842   -7.4004   10.5788 H         1 PRO         0.0286
    109 H59        28.8918   -6.2018   11.2298 H         1 PRO         0.0524
    110 H60        29.7686   -5.3270   12.5309 H         1 PRO         0.0524
@<TRIPOS>BOND
     1    1    2 1  
     2    2    3 1  
     3    2    5 1  
     4    3    4 2  
     5    3   12 am 
     6    5    6 1  
     7    6    7 1  
     8    7    8 1  
     9    8    9 ar 
    10    9   10 ar 
    11    9   11 ar 
    12   12   13 1  
    13   12   18 1  
    14   13   14 1  
    15   13   16 1  
    16   14   15 2  
    17   14   19 am 
    18   16   17 1  
    19   17   18 1  
    20   19   20 1  
    21   20   21 1  
    22   20   23 1  
    23   21   22 2  
    24   21   28 am 
    25   23   24 1  
    26   24   25 1  
    27   25   26 1  
    28   26   27 1  
    29   28   29 1  
    30   29   30 1  
    31   29   32 1  
    32   30   31 2  
    33   30   36 am 
    34   32   33 1  
    35   32   34 1  
    36   33   35 1  
    37   36   37 1  
    38   36   42 1  
    39   37   38 1  
    40   37   40 1  
    41   38   39 2  
    42   38   43 am 
    43   40   41 1  
    44   41   42 1  
    45   43   44 1  
    46   43   49 1  
    47   44   45 1  
    48   44   47 1  
    49   45   46 ar 
    50   45   50 ar 
    51   47   48 1  
    52   48   49 1  
    53    1   51 1  
    54    1   52 1  
    55    1   53 1  
    56    2   54 1  
    57    5   55 1  
    58    5   56 1  
    59    6   57 1  
    60    6   58 1  
    61    7   59 1  
    62    7   60 1  
    63    8   61 1  
    64   10   62 1  
    65   10   63 1  
    66   11   64 1  
    67   11   65 1  
    68   13   66 1  
    69   16   67 1  
    70   16   68 1  
    71   17   69 1  
    72   17   70 1  
    73   18   71 1  
    74   18   72 1  
    75   19   73 1  
    76   20   74 1  
    77   23   75 1  
    78   23   76 1  
    79   24   77 1  
    80   24   78 1  
    81   25   79 1  
    82   25   80 1  
    83   26   81 1  
    84   26   82 1  
    85   27   83 1  
    86   27   84 1  
    87   27   85 1  
    88   28   86 1  
    89   29   87 1  
    90   32   88 1  
    91   33   89 1  
    92   33   90 1  
    93   34   91 1  
    94   34   92 1  
    95   34   93 1  
    96   35   94 1  
    97   35   95 1  
    98   35   96 1  
    99   37   97 1  
   100   40   98 1  
   101   40   99 1  
   102   41  100 1  
   103   41  101 1  
   104   42  102 1  
   105   42  103 1  
   106   44  104 1  
   107   47  105 1  
   108   47  106 1  
   109   48  107 1  
   110   48  108 1  
   111   49  109 1  
   112   49  110 1  
@<TRIPOS>SUBSTRUCTURE
     1 ARG         1

