### 
### Created by X-TOOL on Mon Sep 10 21:13:11 2018
### 

@<TRIPOS>MOLECULE
4aa4_ligand
   59    63     1     0     0
SMALL
GAST_HUCK


@<TRIPOS>ATOM
      1 C1         -1.6050    4.7270   28.7740 C.3       1 QC0        -0.0430
      2 N2         -1.5040    3.9930   27.4690 N.4       1 QC0         0.2358
      3 C3         -1.8150    2.5480   27.6680 C.3       1 QC0        -0.0121
      4 C4         -1.7780    1.7820   26.3350 C.3       1 QC0         0.0661
      5 N5         -2.6960    2.4250   25.3660 N.pl3     1 QC0        -0.3007
      6 C6         -2.3770    3.8580   25.1680 C.3       1 QC0         0.0661
      7 C7         -2.4840    4.5830   26.5210 C.3       1 QC0        -0.0121
      8 C8         -2.8100    1.6540   24.1920 C.ar      1 QC0         0.0407
      9 C9         -2.7520    0.2420   24.3080 C.ar      1 QC0        -0.0440
     10 C10        -2.8940   -0.5770   23.2110 C.ar      1 QC0        -0.0584
     11 C11        -3.0980    0.0220   21.9450 C.ar      1 QC0         0.0151
     12 N12        -3.2000   -0.7290   20.8050 N.2       1 QC0        -0.2998
     13 C13        -3.4150   -0.2360   19.6040 C.2       1 QC0         0.1421
     14 N14        -3.5370    1.1240   19.4100 N.am      1 QC0        -0.1465
     15 C15        -3.8550    1.6790   18.1540 C.ar      1 QC0         0.0994
     16 C16        -2.9580    2.2330   17.2470 C.ar      1 QC0        -0.0157
     17 C17        -3.4820    2.7730   16.0520 C.ar      1 QC0         0.0501
     18 N18        -2.6520    3.3420   15.0770 N.am      1 QC0        -0.2435
     19 C19        -1.3630    2.9840   14.9120 C.2       1 QC0         0.2085
     20 O20        -0.7530    2.1590   15.5780 O.2       1 QC0        -0.3868
     21 C21        -0.7200    3.6590   13.7990 C.2       1 QC0         0.0520
     22 C22         0.3680    3.1150   12.9600 C.2       1 QC0        -0.0484
     23 C23         0.5310    4.1100   12.0580 C.2       1 QC0         0.0824
     24 O24        -0.3270    5.1510   12.3070 O.3       1 QC0        -0.2608
     25 C25        -1.0880    4.8940   13.3380 C.2       1 QC0         0.1043
     26 C26        -4.8520    2.7340   15.7450 C.ar      1 QC0        -0.0583
     27 C27        -5.7200    2.1350   16.6440 C.ar      1 QC0        -0.0808
     28 C28        -5.2220    1.6300   17.8510 C.ar      1 QC0        -0.0268
     29 C29        -6.2750    1.0140   18.7780 C.3       1 QC0        -0.0391
     30 C30        -3.4080    2.0020   20.4630 C.2       1 QC0         0.2569
     31 C32        -3.1820    1.4450   21.8280 C.ar      1 QC0         0.0588
     32 C31        -3.0370    2.2510   22.9430 C.ar      1 QC0        -0.0292
     33 O31        -3.4780    3.2070   20.2630 O.2       1 QC0        -0.3764
     34 H1         -0.8853    4.3031   29.4897 H         1 QC0         0.0778
     35 H2         -2.6243    4.6242   29.1746 H         1 QC0         0.0778
     36 H3         -1.3794    5.7917   28.6143 H         1 QC0         0.0778
     37 H4         -0.5714    4.0876   27.0983 H         1 QC0         0.2032
     38 H5         -2.8189    2.4544   28.1077 H         1 QC0         0.0834
     39 H6         -1.0726    2.1123   28.3528 H         1 QC0         0.0834
     40 H7         -2.0927    0.7413   26.5020 H         1 QC0         0.0565
     41 H8         -0.7540    1.7955   25.9334 H         1 QC0         0.0565
     42 H9         -3.0886    4.2998   24.4549 H         1 QC0         0.0565
     43 H10        -1.3544    3.9580   24.7752 H         1 QC0         0.0565
     44 H11        -2.2656    5.6523   26.3838 H         1 QC0         0.0834
     45 H12        -3.5013    4.4650   26.9223 H         1 QC0         0.0834
     46 H13        -2.5921   -0.2028   25.2835 H         1 QC0         0.0546
     47 H14        -2.8506   -1.6552   23.3142 H         1 QC0         0.0553
     48 H15        -3.4976   -0.9102   18.7528 H         1 QC0         0.1495
     49 H16        -1.8934    2.2497   17.4503 H         1 QC0         0.0410
     50 H17        -3.0330    4.0452   14.4767 H         1 QC0         0.2221
     51 H18         0.8970    2.1669   13.0450 H         1 QC0         0.0354
     52 H19         1.2500    4.0875   11.2404 H         1 QC0         0.0965
     53 H20        -1.8640    5.5374   13.7501 H         1 QC0         0.1072
     54 H21        -5.2235    3.1644   14.8221 H         1 QC0         0.0399
     55 H22        -6.7766    2.0581   16.4144 H         1 QC0         0.0491
     56 H23        -5.7881    0.6481   19.6940 H         1 QC0         0.0345
     57 H24        -6.7692    0.1755   18.2655 H         1 QC0         0.0345
     58 H25        -7.0236    1.7761   19.0401 H         1 QC0         0.0345
     59 H26        -3.0980    3.3295   22.8527 H         1 QC0         0.0542
@<TRIPOS>BOND
     1    1    2 1  
     2    2    3 1  
     3    2    7 1  
     4    3    4 1  
     5    4    5 1  
     6    5    6 1  
     7    5    8 1  
     8    6    7 1  
     9    8    9 ar 
    10    8   32 ar 
    11    9   10 ar 
    12   10   11 ar 
    13   11   12 1  
    14   11   31 ar 
    15   12   13 2  
    16   13   14 1  
    17   14   15 1  
    18   14   30 am 
    19   15   16 ar 
    20   15   28 ar 
    21   16   17 ar 
    22   17   18 1  
    23   17   26 ar 
    24   18   19 am 
    25   19   20 2  
    26   19   21 1  
    27   21   22 1  
    28   21   25 2  
    29   22   23 2  
    30   23   24 1  
    31   24   25 1  
    32   26   27 ar 
    33   27   28 ar 
    34   28   29 1  
    35   30   31 1  
    36   30   33 2  
    37   31   32 ar 
    38    1   34 1  
    39    1   35 1  
    40    1   36 1  
    41    2   37 1  
    42    3   38 1  
    43    3   39 1  
    44    4   40 1  
    45    4   41 1  
    46    6   42 1  
    47    6   43 1  
    48    7   44 1  
    49    7   45 1  
    50    9   46 1  
    51   10   47 1  
    52   13   48 1  
    53   16   49 1  
    54   18   50 1  
    55   22   51 1  
    56   23   52 1  
    57   25   53 1  
    58   26   54 1  
    59   27   55 1  
    60   29   56 1  
    61   29   57 1  
    62   29   58 1  
    63   32   59 1  
@<TRIPOS>SUBSTRUCTURE
     1 QC0         1

