### 
### Created by X-TOOL on Mon Sep 10 21:13:11 2018
### 

@<TRIPOS>MOLECULE
4aa5_ligand
   59    63     1     0     0
SMALL
GAST_HUCK


@<TRIPOS>ATOM
      1 C1         -1.8880    0.9780   26.3390 C.3       1 NQB         0.0661
      2 C2         -1.0510    1.8380   27.3070 C.3       1 NQB        -0.0121
      3 C8         -1.0950    3.8890   28.7120 C.3       1 NQB        -0.0430
      4 C9         -2.9130    1.5970   22.7000 C.ar      1 NQB        -0.0292
      5 C10        -2.7100    0.9730   23.9540 C.ar      1 NQB         0.0407
      6 C11        -2.7410   -0.4370   23.9670 C.ar      1 NQB        -0.0440
      7 C12        -2.9340   -1.2150   22.8170 C.ar      1 NQB        -0.0584
      8 C14        -2.4940    1.3950   17.0060 C.ar      1 NQB        -0.0157
      9 C15        -2.7190    1.9480   15.7260 C.ar      1 NQB         0.0345
     10 C16        -4.0530    2.0670   15.2410 C.ar      1 NQB        -0.0594
     11 C19        -1.4930    2.2910   14.9380 C.2       1 NQB         0.1977
     12 C20        -0.4810    3.5000   12.9720 C.3       1 NQB         0.0416
     13 C21        -0.6000    3.2540   11.4870 C.3       1 NQB        -0.0279
     14 C22         0.3790    2.4760   12.3290 C.3       1 NQB        -0.0279
     15 N29        -3.3920    0.5290   19.1270 N.am      1 NQB        -0.1421
     16 C30        -3.2740    1.4280   20.1820 C.2       1 NQB         0.2572
     17 N3         -1.7190    3.1280   27.6270 N.4       1 NQB         0.2358
     18 C4         -1.8140    3.9390   26.4010 C.3       1 NQB        -0.0121
     19 C5         -2.4380    3.2220   25.1550 C.3       1 NQB         0.0661
     20 C17        -5.1120    1.6920   16.0560 C.ar      1 NQB        -0.0624
     21 C18        -4.9010    1.1660   17.3500 C.ar      1 NQB        -0.0075
     22 C23        -6.0520    0.7470   18.2100 C.3       1 NQB        -0.0300
     23 O24        -0.4790    1.7730   15.3020 O.2       1 NQB        -0.3878
     24 C13        -3.5770    1.0110   17.8070 C.ar      1 NQB         0.1176
     25 C25        -3.0980    0.8210   21.5290 C.ar      1 NQB         0.0588
     26 C26        -3.1110   -0.5930   21.5900 C.ar      1 NQB         0.0150
     27 N27        -3.2850   -1.4150   20.4920 N.2       1 NQB        -0.2999
     28 C28        -3.4000   -0.8370   19.3480 C.2       1 NQB         0.1424
     29 N5         -2.4970    1.7220   25.1670 N.pl3     1 NQB        -0.3007
     30 O29        -3.2420    2.6220   20.0660 O.2       1 NQB        -0.3764
     31 N32        -1.5610    3.1110   13.8350 N.am      1 NQB        -0.2842
     32 H1         -2.7074    0.5211   26.9133 H         1 NQB         0.0565
     33 H2         -1.2365    0.1879   25.9375 H         1 NQB         0.0565
     34 H3         -0.0763    2.0486   26.8426 H         1 NQB         0.0834
     35 H4         -0.8988    1.2760   28.2402 H         1 NQB         0.0834
     36 H5         -1.6553    4.8215   28.8752 H         1 NQB         0.0778
     37 H6         -0.0559    4.1281   28.4417 H         1 NQB         0.0778
     38 H7         -1.1053    3.2890   29.6339 H         1 NQB         0.0778
     39 H8         -2.9271    2.6789   22.6348 H         1 NQB         0.0542
     40 H9         -2.6087   -0.9453   24.9153 H         1 NQB         0.0546
     41 H10        -2.9449   -2.2967   22.8863 H         1 NQB         0.0553
     42 H11        -1.4807    1.2674   17.3694 H         1 NQB         0.0579
     43 H12        -4.2396    2.4474   14.2433 H         1 NQB         0.0560
     44 H13        -0.0326    4.4333   13.3434 H         1 NQB         0.0555
     45 H14        -0.2378    4.0064   10.7710 H         1 NQB         0.0288
     46 H15        -1.4933    2.7591   11.0783 H         1 NQB         0.0288
     47 H16         0.2033    1.4086   12.5286 H         1 NQB         0.0288
     48 H17         1.4588    2.6560   12.2214 H         1 NQB         0.0288
     49 H18        -2.6564    2.9101   27.9268 H         1 NQB         0.2032
     50 H19        -0.7979    4.2620   26.1305 H         1 NQB         0.0834
     51 H20        -2.4313    4.8210   26.6269 H         1 NQB         0.0834
     52 H21        -1.8483    3.5200   24.2756 H         1 NQB         0.0565
     53 H22        -3.4690    3.5899   25.0470 H         1 NQB         0.0565
     54 H23        -6.1262    1.8056   15.6905 H         1 NQB         0.0539
     55 H24        -6.9960    0.9466   17.6818 H         1 NQB         0.0382
     56 H25        -6.0317    1.3148   19.1519 H         1 NQB         0.0382
     57 H26        -5.9743   -0.3283   18.4283 H         1 NQB         0.0382
     58 H27        -3.5137   -1.4800   18.4764 H         1 NQB         0.1495
     59 H28        -2.4637    3.4771   13.6090 H         1 NQB         0.1846
@<TRIPOS>BOND
     1    1    2 1  
     2   29    1 1  
     3    2   17 1  
     4   17    3 1  
     5    4    5 ar 
     6   25    4 ar 
     7    5    6 ar 
     8    5   29 1  
     9    6    7 ar 
    10    7   26 ar 
    11    8    9 ar 
    12   24    8 ar 
    13    9   10 ar 
    14    9   11 1  
    15   10   20 ar 
    16   11   23 2  
    17   11   31 am 
    18   12   13 1  
    19   12   14 1  
    20   31   12 1  
    21   14   13 1  
    22   16   15 am 
    23   15   24 1  
    24   15   28 1  
    25   16   25 1  
    26   16   30 2  
    27   17   18 1  
    28   18   19 1  
    29   19   29 1  
    30   20   21 ar 
    31   21   22 1  
    32   21   24 ar 
    33   25   26 ar 
    34   26   27 1  
    35   27   28 2  
    36    1   32 1  
    37    1   33 1  
    38    2   34 1  
    39    2   35 1  
    40    3   36 1  
    41    3   37 1  
    42    3   38 1  
    43    4   39 1  
    44    6   40 1  
    45    7   41 1  
    46    8   42 1  
    47   10   43 1  
    48   12   44 1  
    49   13   45 1  
    50   13   46 1  
    51   14   47 1  
    52   14   48 1  
    53   17   49 1  
    54   18   50 1  
    55   18   51 1  
    56   19   52 1  
    57   19   53 1  
    58   20   54 1  
    59   22   55 1  
    60   22   56 1  
    61   22   57 1  
    62   28   58 1  
    63   31   59 1  
@<TRIPOS>SUBSTRUCTURE
     1 NQB         1

