### 
### Created by X-TOOL on Mon Sep 10 21:13:09 2018
### 

@<TRIPOS>MOLECULE
4aa7_ligand
   49    51     1     0     0
SMALL
GAST_HUCK


@<TRIPOS>ATOM
      1 C1         45.1510    7.4410   15.7540 C.3       1 R82         0.0561
      2 O2         45.9100    8.6050   15.3170 O.3       1 R82        -0.3297
      3 C3         46.2320    9.4270   16.3590 C.ar      1 R82         0.1049
      4 C4         46.1030    8.9770   17.6800 C.ar      1 R82        -0.0149
      5 C5         46.4520    9.8220   18.7770 C.ar      1 R82         0.0937
      6 O6         46.3360    9.3870   20.1220 O.3       1 R82        -0.3315
      7 C7         45.8610    8.0690   20.4100 C.3       1 R82         0.0561
      8 C8         46.9010   11.1510   18.5230 C.ar      1 R82         0.1180
      9 C9         47.0230   11.5750   17.1690 C.ar      1 R82        -0.0301
     10 C10        46.6480   10.7440   16.0850 C.ar      1 R82         0.0874
     11 N11        46.7730   11.1960   14.7050 N.am      1 R82        -0.2430
     12 C12        46.7670   12.4960   14.2750 C.2       1 R82         0.1949
     13 O13        46.5770   13.5000   14.9860 O.2       1 R82        -0.3880
     14 C14        47.0020   12.7060   12.8030 C.3       1 R82         0.0305
     15 S15        47.4190   12.2620   19.8660 S.o2      1 R82         0.0809
     16 O16        46.3790   12.4180   20.8600 O.2       1 R82        -0.1480
     17 O17        48.0180   13.3480   19.1800 O.2       1 R82        -0.1480
     18 N18        48.6620   11.3850   20.5190 N.am      1 R82        -0.1750
     19 C19        48.6600   10.8020   21.8950 C.3       1 R82         0.0696
     20 C20        49.3000   11.6310   23.0080 C.3       1 R82        -0.0378
     21 C21        49.2850    9.3960   21.6870 C.3       1 R82         0.0013
     22 C22        49.9910    9.4990   20.3560 C.ar      1 R82        -0.0227
     23 C23        50.8690    8.6010   19.7530 C.ar      1 R82        -0.0757
     24 C24        51.3950    8.9680   18.5310 C.ar      1 R82        -0.0860
     25 C25        51.0730   10.1750   17.9130 C.ar      1 R82        -0.0849
     26 C26        50.1860   11.0740   18.4910 C.ar      1 R82        -0.0516
     27 C27        49.6450   10.7500   19.7540 C.ar      1 R82         0.0682
     28 H1         44.9147    6.8098   14.8846 H         1 R82         0.0572
     29 H2         44.2170    7.7707   16.2323 H         1 R82         0.0572
     30 H3         45.7481    6.8634   16.4749 H         1 R82         0.0572
     31 H4         45.7340    7.9758   17.8712 H         1 R82         0.0427
     32 H5         45.8405    7.9165   21.4992 H         1 R82         0.0572
     33 H6         46.5312    7.3287   19.9487 H         1 R82         0.0572
     34 H7         44.8460    7.9481   20.0037 H         1 R82         0.0572
     35 H8         47.4149   12.5642   16.9616 H         1 R82         0.0462
     36 H9         46.8727   10.4888   14.0050 H         1 R82         0.2186
     37 H10        46.9751   13.7823   12.5773 H         1 R82         0.0470
     38 H11        46.2172   12.1914   12.2293 H         1 R82         0.0470
     39 H12        47.9854   12.2979   12.5268 H         1 R82         0.0470
     40 H13        47.6109   10.6679   22.1975 H         1 R82         0.0603
     41 H14        49.2280   11.0845   23.9599 H         1 R82         0.0255
     42 H15        48.7745   12.5932   23.0970 H         1 R82         0.0255
     43 H16        50.3582   11.8119   22.7683 H         1 R82         0.0255
     44 H17        48.5037    8.6223   21.6555 H         1 R82         0.0417
     45 H18        49.9992    9.1635   22.4907 H         1 R82         0.0417
     46 H19        51.1269    7.6582   20.2217 H         1 R82         0.0507
     47 H20        52.0830    8.2935   18.0342 H         1 R82         0.0453
     48 H21        51.5256   10.4179   16.9584 H         1 R82         0.0515
     49 H22        49.9175   11.9959   17.9879 H         1 R82         0.0458
@<TRIPOS>BOND
     1    1    2 1  
     2    2    3 1  
     3    3    4 ar 
     4    3   10 ar 
     5    4    5 ar 
     6    5    6 1  
     7    5    8 ar 
     8    6    7 1  
     9    8    9 ar 
    10    8   15 1  
    11    9   10 ar 
    12   10   11 1  
    13   11   12 am 
    14   12   13 2  
    15   12   14 1  
    16   15   16 2  
    17   15   17 2  
    18   15   18 am 
    19   18   19 1  
    20   18   27 1  
    21   19   20 1  
    22   19   21 1  
    23   21   22 1  
    24   22   23 ar 
    25   22   27 ar 
    26   23   24 ar 
    27   24   25 ar 
    28   25   26 ar 
    29   26   27 ar 
    30    1   28 1  
    31    1   29 1  
    32    1   30 1  
    33    4   31 1  
    34    7   32 1  
    35    7   33 1  
    36    7   34 1  
    37    9   35 1  
    38   11   36 1  
    39   14   37 1  
    40   14   38 1  
    41   14   39 1  
    42   19   40 1  
    43   20   41 1  
    44   20   42 1  
    45   20   43 1  
    46   21   44 1  
    47   21   45 1  
    48   23   46 1  
    49   24   47 1  
    50   25   48 1  
    51   26   49 1  
@<TRIPOS>SUBSTRUCTURE
     1 R82         1

