### 
### Created by X-TOOL on Mon Sep 10 21:13:11 2018
### 

@<TRIPOS>MOLECULE
4aac_ligand
   58    62     1     0     0
SMALL
GAST_HUCK


@<TRIPOS>ATOM
      1 C1         -1.3550    4.3410   28.7110 C.3       1 AAV        -0.0430
      2 N2         -1.3390    3.6250   27.4340 N.4       1 AAV         0.2358
      3 C3         -1.5470    2.1630   27.7190 C.3       1 AAV        -0.0121
      4 C4         -1.6820    1.3900   26.3920 C.3       1 AAV         0.0661
      5 N5         -2.6900    2.0010   25.4850 N.pl3     1 AAV        -0.3007
      6 C6         -2.3690    3.4190   25.1930 C.3       1 AAV         0.0661
      7 C7         -2.3940    4.1700   26.5420 C.3       1 AAV        -0.0121
      8 C8         -2.8050    1.2250   24.3120 C.ar      1 AAV         0.0407
      9 C9         -2.8240   -0.1850   24.4250 C.ar      1 AAV        -0.0440
     10 C10        -2.9610   -1.0100   23.3360 C.ar      1 AAV        -0.0584
     11 C11        -3.0640   -0.4160   22.0710 C.ar      1 AAV         0.0150
     12 N12        -3.2070   -1.1900   20.9550 N.2       1 AAV        -0.2999
     13 C13        -3.3930   -0.6730   19.7690 C.2       1 AAV         0.1424
     14 N14        -3.3990    0.6830   19.5600 N.am      1 AAV        -0.1421
     15 C15        -3.6030    1.1900   18.2760 C.ar      1 AAV         0.1176
     16 C16        -2.5290    1.5860   17.4710 C.ar      1 AAV        -0.0154
     17 C17        -2.7860    2.1000   16.1950 C.ar      1 AAV         0.0397
     18 N18        -2.1810    3.2720   14.1690 N.am      1 AAV        -0.2334
     19 C19        -1.7600    2.5280   15.1910 C.2       1 AAV         0.2212
     20 O20        -0.5740    2.2130   15.1870 O.2       1 AAV        -0.3783
     21 C22        -1.3220    4.8510   12.3900 C.2       1 AAV        -0.0076
     22 C23        -0.2530    4.7390   11.5590 C.2       1 AAV         0.1105
     23 O24         0.3530    3.5680   11.8350 O.3       1 AAV        -0.1930
     24 C25        -1.2710    3.6680   13.1700 C.2       1 AAV         0.1274
     25 C26        -4.1280    2.2000   15.8030 C.ar      1 AAV        -0.0590
     26 C27        -5.1860    1.8530   16.6170 C.ar      1 AAV        -0.0624
     27 C28        -4.9340    1.3230   17.8570 C.ar      1 AAV        -0.0075
     28 C29        -6.1270    0.9280   18.7100 C.3       1 AAV        -0.0300
     29 N29        -0.2220    2.9800   12.7370 N.2       1 AAV        -0.1522
     30 C30        -3.2030    1.5650   20.5840 C.2       1 AAV         0.2572
     31 C31        -2.9280    1.8280   23.0550 C.ar      1 AAV        -0.0292
     32 O31        -3.2060    2.7730   20.3910 O.2       1 AAV        -0.3764
     33 C32        -3.0430    1.0060   21.9400 C.ar      1 AAV         0.0588
     34 H1         -0.5726    3.9348   29.3689 H         1 AAV         0.0778
     35 H2         -2.3376    4.2158   29.1893 H         1 AAV         0.0778
     36 H3         -1.1667    5.4103   28.5343 H         1 AAV         0.0778
     37 H4         -0.4430    3.7496   26.9894 H         1 AAV         0.2032
     38 H5         -2.4636    2.0329   28.3130 H         1 AAV         0.0834
     39 H6         -0.6863    1.7741   28.2829 H         1 AAV         0.0834
     40 H7         -1.9857    0.3563   26.6137 H         1 AAV         0.0565
     41 H8         -0.7061    1.3847   25.8844 H         1 AAV         0.0565
     42 H9         -3.1188    3.8438   24.5094 H         1 AAV         0.0565
     43 H10        -1.3713    3.4949   24.7360 H         1 AAV         0.0565
     44 H11        -2.2101    5.2406   26.3686 H         1 AAV         0.0834
     45 H12        -3.3780    4.0390   27.0159 H         1 AAV         0.0834
     46 H13        -2.7267   -0.6309   25.4083 H         1 AAV         0.0546
     47 H14        -2.9886   -2.0875   23.4513 H         1 AAV         0.0553
     48 H15        -3.5479   -1.3387   18.9212 H         1 AAV         0.1495
     49 H16        -1.5106    1.4957   17.8313 H         1 AAV         0.0579
     50 H17        -3.1403    3.5484   14.1116 H         1 AAV         0.2200
     51 H18        -2.0485    5.6604   12.4443 H         1 AAV         0.0359
     52 H19         0.0572    5.4633   10.8073 H         1 AAV         0.1106
     53 H20        -4.3459    2.5696   14.8075 H         1 AAV         0.0560
     54 H21        -6.2062    1.9976   16.2804 H         1 AAV         0.0539
     55 H22        -5.7735    0.5216   19.6691 H         1 AAV         0.0382
     56 H23        -6.7174    0.1638   18.1833 H         1 AAV         0.0382
     57 H24        -6.7541    1.8125   18.8955 H         1 AAV         0.0382
     58 H25        -2.9334    2.9072   22.9537 H         1 AAV         0.0542
@<TRIPOS>BOND
     1    2    1 1  
     2    3    2 1  
     3    7    2 1  
     4    4    3 1  
     5    5    4 1  
     6    5    6 1  
     7    8    5 1  
     8    6    7 1  
     9    9    8 ar 
    10    8   31 ar 
    11   10    9 ar 
    12   11   10 ar 
    13   12   11 1  
    14   11   33 ar 
    15   13   12 2  
    16   14   13 1  
    17   15   14 1  
    18   14   30 am 
    19   16   15 ar 
    20   15   27 ar 
    21   17   16 ar 
    22   19   17 1  
    23   17   25 ar 
    24   18   19 am 
    25   24   18 1  
    26   19   20 2  
    27   21   22 2  
    28   21   24 1  
    29   22   23 1  
    30   23   29 1  
    31   24   29 2  
    32   25   26 ar 
    33   26   27 ar 
    34   27   28 1  
    35   30   32 2  
    36   30   33 1  
    37   31   33 ar 
    38    1   34 1  
    39    1   35 1  
    40    1   36 1  
    41    2   37 1  
    42    3   38 1  
    43    3   39 1  
    44    4   40 1  
    45    4   41 1  
    46    6   42 1  
    47    6   43 1  
    48    7   44 1  
    49    7   45 1  
    50    9   46 1  
    51   10   47 1  
    52   13   48 1  
    53   16   49 1  
    54   18   50 1  
    55   21   51 1  
    56   22   52 1  
    57   25   53 1  
    58   26   54 1  
    59   28   55 1  
    60   28   56 1  
    61   28   57 1  
    62   31   58 1  
@<TRIPOS>SUBSTRUCTURE
     1 AAV         1

