### 
### Created by X-TOOL on Mon Sep 10 21:13:10 2018
### 

@<TRIPOS>MOLECULE
4aaw_ligand
   79    81     1     0     0
SMALL
GAST_HUCK


@<TRIPOS>ATOM
      1 C1         57.1290   17.3790  -22.2320 C.3       1 R84         0.0561
      2 O2         56.0480   18.1420  -21.7730 O.3       1 R84        -0.3297
      3 C3         55.5530   18.9290  -22.8040 C.ar      1 R84         0.1049
      4 C4         55.9300   18.6970  -24.1350 C.ar      1 R84        -0.0149
      5 C5         55.4010   19.5410  -25.1180 C.ar      1 R84         0.0932
      6 O6         55.7120   19.3700  -26.4520 O.3       1 R84        -0.3315
      7 C7         56.3610   18.0590  -26.6780 C.3       1 R84         0.0561
      8 C8         54.5360   20.6000  -24.7940 C.ar      1 R84         0.1123
      9 C9         54.1550   20.7830  -23.4740 C.ar      1 R84        -0.0307
     10 C10        54.6850   19.9870  -22.4780 C.ar      1 R84         0.0874
     11 N11        54.2960   20.1990  -21.1410 N.am      1 R84        -0.2427
     12 C12        53.8940   21.4100  -20.5220 C.2       1 R84         0.1997
     13 O13        53.8920   22.4660  -21.1020 O.2       1 R84        -0.3876
     14 C14        53.4050   21.4540  -19.1170 C.3       1 R84         0.0535
     15 C15        54.5910   21.2760  -18.1570 C.3       1 R84         0.0174
     16 C16        54.0480   21.3560  -16.7420 C.2       1 R84         0.0370
     17 O17        54.8250   21.7930  -15.8630 O.co2     1 R84        -0.5689
     18 O18        52.7270   21.0000  -16.5270 O.co2     1 R84        -0.5689
     19 S19        53.8680   21.6210  -26.0930 S.o2      1 R84         0.0597
     20 O20        52.9840   22.3650  -25.2530 O.2       1 R84        -0.1534
     21 O21        54.9720   22.0780  -26.8870 O.2       1 R84        -0.1534
     22 N22        52.9680   20.5530  -27.1010 N.am      1 R84        -0.2409
     23 C23        51.8650   19.5500  -26.7360 C.3       1 R84         0.0566
     24 C24        52.2760   18.0640  -26.8680 C.ar      1 R84        -0.0062
     25 C25        52.0850   17.1330  -25.8370 C.ar      1 R84        -0.0702
     26 C26        52.4810   15.7960  -25.9550 C.ar      1 R84        -0.0819
     27 C27        53.1010   15.2860  -27.1060 C.ar      1 R84        -0.0807
     28 C28        53.2490   16.2010  -28.1420 C.ar      1 R84        -0.0507
     29 C29        52.8580   17.5650  -28.0080 C.ar      1 R84         0.0442
     30 N30        53.0380   18.4500  -29.0340 N.pl3     1 R84        -0.3119
     31 C31        53.7960   17.8090  -30.0870 C.3       1 R84         0.0257
     32 C32        54.3390   18.9820  -30.9110 C.3       1 R84        -0.0282
     33 C33        53.2240   19.9200  -31.3880 C.3       1 R84        -0.0096
     34 C34        53.0160   19.7640  -32.8820 C.3       1 R84         0.0797
     35 O35        52.6010   21.0650  -33.4090 O.3       1 R84        -0.2765
     36 C36        51.6900   21.1790  -34.4100 C.2       1 R84         0.2354
     37 O37        50.7210   20.4240  -34.4780 O.2       1 R84        -0.3703
     38 C38        51.9060   22.2590  -35.4540 C.3       1 R84         0.0602
     39 C39        50.8190   22.1850  -36.5450 C.3       1 R84         0.0184
     40 C40        50.9890   21.0810  -37.5880 C.2       1 R84         0.0371
     41 O41        50.0710   20.8070  -38.3390 O.co2     1 R84        -0.5688
     42 O42        52.1360   20.3850  -37.7150 O.co2     1 R84        -0.5688
     43 C43        51.9180   19.9140  -30.5910 C.3       1 R84        -0.0282
     44 C44        51.7240   18.7630  -29.6250 C.3       1 R84         0.0257
     45 H1         57.5153   16.7587  -21.4098 H         1 R84         0.0572
     46 H2         57.9244   18.0487  -22.5909 H         1 R84         0.0572
     47 H3         56.7964   16.7303  -23.0557 H         1 R84         0.0572
     48 H4         56.6079   17.8915  -24.3933 H         1 R84         0.0427
     49 H5         56.5985   17.9468  -27.7462 H         1 R84         0.0572
     50 H6         55.6789   17.2538  -26.3675 H         1 R84         0.0572
     51 H7         57.2879   18.0022  -26.0884 H         1 R84         0.0572
     52 H8         53.4371   21.5552  -23.2222 H         1 R84         0.0462
     53 H9         54.3044   19.3910  -20.5519 H         1 R84         0.2186
     54 H10        52.6781   20.6442  -18.9560 H         1 R84         0.0524
     55 H11        52.9217   22.4237  -18.9270 H         1 R84         0.0524
     56 H12        55.3303   22.0738  -18.3213 H         1 R84         0.0455
     57 H13        55.0648   20.2972  -18.3227 H         1 R84         0.0455
     58 H14        53.1996   20.5925  -28.0730 H         1 R84         0.1693
     59 H15        51.0058   19.7285  -27.3992 H         1 R84         0.0611
     60 H16        51.5671   19.7322  -25.6929 H         1 R84         0.0611
     61 H17        51.6144   17.4602  -24.9169 H         1 R84         0.0520
     62 H18        52.3012   15.1259  -25.1221 H         1 R84         0.0487
     63 H19        53.4382   14.2586  -27.1814 H         1 R84         0.0525
     64 H20        53.6751   15.8667  -29.0810 H         1 R84         0.0493
     65 H21        53.1482   17.1656  -30.7005 H         1 R84         0.0511
     66 H22        54.6182   17.2096  -29.6691 H         1 R84         0.0511
     67 H23        54.8666   18.5832  -31.7900 H         1 R84         0.0288
     68 H24        55.0427   19.5555  -30.2899 H         1 R84         0.0288
     69 H25        53.6255   20.9343  -31.2466 H         1 R84         0.0328
     70 H26        52.2347   19.0143  -33.0757 H         1 R84         0.0616
     71 H27        53.9546   19.4476  -33.3604 H         1 R84         0.0616
     72 H28        52.8937   22.1208  -35.9180 H         1 R84         0.0536
     73 H29        51.8638   23.2450  -34.9681 H         1 R84         0.0536
     74 H30        50.8078   23.1491  -37.0746 H         1 R84         0.0456
     75 H31        49.8513   22.0297  -36.0456 H         1 R84         0.0456
     76 H32        51.0866   19.8905  -31.3109 H         1 R84         0.0288
     77 H33        51.8751   20.8480  -30.0116 H         1 R84         0.0288
     78 H34        51.0164   19.0525  -28.8341 H         1 R84         0.0511
     79 H35        51.3353   17.8848  -30.1614 H         1 R84         0.0511
@<TRIPOS>BOND
     1    1    2 1  
     2    2    3 1  
     3    3    4 ar 
     4    3   10 ar 
     5    4    5 ar 
     6    5    6 1  
     7    5    8 ar 
     8    6    7 1  
     9    8    9 ar 
    10    8   19 1  
    11    9   10 ar 
    12   10   11 1  
    13   11   12 am 
    14   12   13 2  
    15   12   14 1  
    16   14   15 1  
    17   15   16 1  
    18   16   17 ar 
    19   16   18 ar 
    20   19   20 2  
    21   19   21 2  
    22   19   22 am 
    23   22   23 1  
    24   23   24 1  
    25   24   25 ar 
    26   24   29 ar 
    27   25   26 ar 
    28   26   27 ar 
    29   27   28 ar 
    30   28   29 ar 
    31   29   30 1  
    32   30   31 1  
    33   30   44 1  
    34   31   32 1  
    35   32   33 1  
    36   33   34 1  
    37   33   43 1  
    38   34   35 1  
    39   35   36 1  
    40   36   37 2  
    41   36   38 1  
    42   38   39 1  
    43   39   40 1  
    44   40   41 ar 
    45   40   42 ar 
    46   43   44 1  
    47    1   45 1  
    48    1   46 1  
    49    1   47 1  
    50    4   48 1  
    51    7   49 1  
    52    7   50 1  
    53    7   51 1  
    54    9   52 1  
    55   11   53 1  
    56   14   54 1  
    57   14   55 1  
    58   15   56 1  
    59   15   57 1  
    60   22   58 1  
    61   23   59 1  
    62   23   60 1  
    63   25   61 1  
    64   26   62 1  
    65   27   63 1  
    66   28   64 1  
    67   31   65 1  
    68   31   66 1  
    69   32   67 1  
    70   32   68 1  
    71   33   69 1  
    72   34   70 1  
    73   34   71 1  
    74   38   72 1  
    75   38   73 1  
    76   39   74 1  
    77   39   75 1  
    78   43   76 1  
    79   43   77 1  
    80   44   78 1  
    81   44   79 1  
@<TRIPOS>SUBSTRUCTURE
     1 R84         1

