### 
### Created by X-TOOL on Mon Sep 10 21:13:09 2018
### 

@<TRIPOS>MOLECULE
4ab8_ligand
   27    28     1     0     0
SMALL
GAST_HUCK


@<TRIPOS>ATOM
      1 C2        -21.6540    1.8780   14.0220 C.ar      1 VXU        -0.0879
      2 C3        -20.9480    1.4880   15.1370 C.ar      1 VXU        -0.0747
      3 C1        -22.5570    2.8990   14.1430 C.ar      1 VXU        -0.0482
      4 C4        -21.1600    2.1080   16.3400 C.ar      1 VXU         0.0220
      5 C11       -22.7530    3.5430   15.3460 C.ar      1 VXU         0.1134
      6 C5        -22.0560    3.1340   16.4580 C.ar      1 VXU         0.1256
      7 C8        -23.3750    5.6390   17.4910 C.3       1 VXU         0.0018
      8 C9        -22.9970    5.6560   16.0290 C.3       1 VXU         0.0700
      9 C7        -23.4710    4.1890   17.9130 C.3       1 VXU         0.0685
     10 C12       -20.4300    1.7050   17.5590 C.3       1 VXU        -0.0059
     11 N13       -19.1290    1.1590   17.2010 N.4       1 VXU         0.2290
     12 O10       -23.6730    4.5690   15.3870 O.3       1 VXU        -0.3237
     13 O6        -22.1690    3.6650   17.7410 O.3       1 VXU        -0.3258
     14 H1        -21.4981    1.3869   13.0683 H         1 VXU         0.0479
     15 H2        -20.2213    0.6871   15.0631 H         1 VXU         0.0439
     16 H3        -23.1295    3.2075   13.2758 H         1 VXU         0.0456
     17 H4        -24.3446    6.1381   17.6352 H         1 VXU         0.0316
     18 H5        -22.6056    6.1539   18.0850 H         1 VXU         0.0316
     19 H6        -21.9089    5.5344   15.9228 H         1 VXU         0.0610
     20 H7        -23.3056    6.6088   15.5742 H         1 VXU         0.0610
     21 H8        -24.1904    3.6498   17.2793 H         1 VXU         0.0607
     22 H9        -23.7810    4.1135   18.9657 H         1 VXU         0.0607
     23 H10       -21.0109    0.9406   18.0958 H         1 VXU         0.0951
     24 H11       -20.2910    2.5825   18.2076 H         1 VXU         0.0951
     25 H12       -18.6372    0.8865   18.0376 H         1 VXU         0.2006
     26 H13       -18.5946    1.8585   16.7100 H         1 VXU         0.2006
     27 H14       -19.2542    0.3539   16.6076 H         1 VXU         0.2006
@<TRIPOS>BOND
     1    1    2 ar 
     2    3    1 ar 
     3    4    2 ar 
     4    5    3 ar 
     5    6    4 ar 
     6    4   10 1  
     7    5    6 ar 
     8   12    5 1  
     9    6   13 1  
    10    8    7 1  
    11    7    9 1  
    12    8   12 1  
    13    9   13 1  
    14   10   11 1  
    15    1   14 1  
    16    2   15 1  
    17    3   16 1  
    18    7   17 1  
    19    7   18 1  
    20    8   19 1  
    21    8   20 1  
    22    9   21 1  
    23    9   22 1  
    24   10   23 1  
    25   10   24 1  
    26   11   25 1  
    27   11   26 1  
    28   11   27 1  
@<TRIPOS>SUBSTRUCTURE
     1 VXU         1

