### 
### Created by X-TOOL on Mon Sep 10 21:13:08 2018
### 

@<TRIPOS>MOLECULE
4ab9_ligand
   21    22     1     0     0
SMALL
GAST_HUCK


@<TRIPOS>ATOM
      1 N           3.0210  -15.5680   19.0340 N.4       1 VXQ         0.2295
      2 C5          0.6420  -14.3630   13.6210 C.2       1 VXQ        -0.0492
      3 CB          1.7020  -15.8220   18.3710 C.3       1 VXQ        -0.0070
      4 OE          1.8140  -12.1730   14.1640 O.3       1 VXQ        -0.2606
      5 CG          1.6410  -14.8380   17.2540 C.ar      1 VXQ        -0.0138
      6 CM          0.8170  -12.8230   13.3500 C.2       1 VXQ         0.0828
      7 CZ          1.7720  -13.0400   15.2490 C.ar      1 VXQ         0.1183
      8 CD1         1.1960  -15.1660   16.0180 C.ar      1 VXQ        -0.0662
      9 CD2         2.2100  -13.6180   17.4810 C.ar      1 VXQ        -0.0656
     10 CE1         1.2070  -14.2430   14.9990 C.ar      1 VXQ        -0.0185
     11 CE2         2.2950  -12.6940   16.4760 C.ar      1 VXQ        -0.0357
     12 H1          3.1356  -16.2030   19.8084 H         1 VXQ         0.2006
     13 H2          3.0504  -14.6185   19.3709 H         1 VXQ         0.2006
     14 H3          3.7646  -15.7117   18.3689 H         1 VXQ         0.2006
     15 H4          0.2578  -15.1946   13.0321 H         1 VXQ         0.0334
     16 H5          0.8752  -15.6576   19.0776 H         1 VXQ         0.0959
     17 H6          1.6546  -16.8506   17.9841 H         1 VXQ         0.0959
     18 H7          0.2299  -12.2888   12.6045 H         1 VXQ         0.1069
     19 H8          0.8269  -16.1677   15.8297 H         1 VXQ         0.0471
     20 H9          2.5973  -13.3798   18.4650 H         1 VXQ         0.0498
     21 H10         2.7562  -11.7265   16.6386 H         1 VXQ         0.0551
@<TRIPOS>BOND
     1    3    1 1  
     2    2    6 2  
     3   10    2 1  
     4    5    3 1  
     5    4    6 1  
     6    7    4 1  
     7    8    5 ar 
     8    5    9 ar 
     9   10    7 ar 
    10    7   11 ar 
    11    8   10 ar 
    12    9   11 ar 
    13    1   12 1  
    14    1   13 1  
    15    1   14 1  
    16    2   15 1  
    17    3   16 1  
    18    3   17 1  
    19    6   18 1  
    20    8   19 1  
    21    9   20 1  
    22   11   21 1  
@<TRIPOS>SUBSTRUCTURE
     1 VXQ         1

