### 
### Created by X-TOOL on Mon Sep 10 21:13:08 2018
### 

@<TRIPOS>MOLECULE
4aba_ligand
   21    22     1     0     0
SMALL
GAST_HUCK


@<TRIPOS>ATOM
      1 C1          1.8110  -15.9810   18.2400 C.3       1 SW1        -0.0013
      2 N1          3.1200  -15.6030   18.8920 N.4       1 SW1         0.2291
      3 S1          1.1450  -14.5090   14.5470 S.3       1 SW1        -0.0244
      4 C2          1.6800  -15.1300   16.9770 C.2       1 SW1         0.0403
      5 N2          2.2500  -13.9070   16.6750 N.2       1 SW1        -0.3080
      6 S2          3.9420  -11.2810   15.7790 S.3       1 SW1        -0.0299
      7 C3          1.0550  -15.5770   15.8520 C.2       1 SW1         0.0067
      8 C4          2.0500  -13.4350   15.4870 C.2       1 SW1         0.1100
      9 C5          2.6050  -12.1410   15.0510 C.2       1 SW1         0.0706
     10 C6          2.1160  -11.3860   14.0130 C.2       1 SW1        -0.0573
     11 C7          2.8070  -10.1400   13.8480 C.2       1 SW1        -0.0652
     12 C8          3.8160   -9.9320   14.7280 C.2       1 SW1         0.0014
     13 H1          0.9745  -15.7739   18.9237 H         1 SW1         0.0953
     14 H2          1.8141  -17.0492   17.9773 H         1 SW1         0.0953
     15 H3          3.2452  -16.1446   19.7329 H         1 SW1         0.2006
     16 H4          3.1095  -14.6218   19.1227 H         1 SW1         0.2006
     17 H5          3.8789  -15.7904   18.2556 H         1 SW1         0.2006
     18 H6          0.5433  -16.5368   15.7991 H         1 SW1         0.0587
     19 H7          1.2880  -11.7013   13.3798 H         1 SW1         0.0515
     20 H8          2.5417   -9.4185   13.0767 H         1 SW1         0.0448
     21 H9          4.4484   -9.0461   14.7625 H         1 SW1         0.0810
@<TRIPOS>BOND
     1    1    2 1  
     2    4    1 1  
     3    3    7 1  
     4    8    3 1  
     5    5    4 1  
     6    4    7 2  
     7    8    5 2  
     8    9    6 1  
     9    6   12 1  
    10    8    9 1  
    11    9   10 2  
    12   10   11 1  
    13   11   12 2  
    14    1   13 1  
    15    1   14 1  
    16    2   15 1  
    17    2   16 1  
    18    2   17 1  
    19    7   18 1  
    20   10   19 1  
    21   11   20 1  
    22   12   21 1  
@<TRIPOS>SUBSTRUCTURE
     1 SW1         1

