### 
### Created by X-TOOL on Mon Sep 10 21:13:08 2018
### 

@<TRIPOS>MOLECULE
4abb_ligand
   21    22     1     0     0
SMALL
GAST_HUCK


@<TRIPOS>ATOM
      1 C1          1.2680  -15.3950   15.7530 C.2       1 K9S        -0.0056
      2 N1          1.9540  -16.1940   18.4390 N.4       1 K9S         0.2277
      3 S2          1.1050  -14.6540   14.2090 S.3       1 K9S        -0.0526
      4 C3          1.7750  -13.1340   14.7650 C.ar      1 K9S         0.0349
      5 C4          2.1480  -13.2550   16.1330 C.ar      1 K9S        -0.0134
      6 C5          1.8680  -14.4890   16.6930 C.2       1 K9S         0.0000
      7 C6          2.0200  -11.9520   14.0810 C.ar      1 K9S        -0.0501
      8 C7          2.6010  -10.8140   14.7530 C.ar      1 K9S        -0.0704
      9 C10         2.1440  -14.7840   18.1170 C.3       1 K9S        -0.0113
     10 C8          2.9120  -10.9230   16.0570 C.ar      1 K9S        -0.0714
     11 C9          2.7090  -12.1640   16.8330 C.ar      1 K9S        -0.0652
     12 H1          0.9584  -16.4127   15.9863 H         1 K9S         0.0632
     13 H2          2.1528  -16.3454   19.4155 H         1 K9S         0.2004
     14 H3          2.5775  -16.7536   17.8785 H         1 K9S         0.2004
     15 H4          1.0004  -16.4573   18.2456 H         1 K9S         0.2004
     16 H5          1.7719  -11.8821   13.0281 H         1 K9S         0.0569
     17 H6          2.7831   -9.8896   14.2170 H         1 K9S         0.0569
     18 H7          3.1852  -14.5078   18.3397 H         1 K9S         0.0931
     19 H8          1.4642  -14.1844   18.7402 H         1 K9S         0.0931
     20 H9          3.3311  -10.0603   16.5622 H         1 K9S         0.0555
     21 H10         2.9758  -12.2332   17.8814 H         1 K9S         0.0577
@<TRIPOS>BOND
     1    1    3 1  
     2    6    1 2  
     3    9    2 1  
     4    4    3 1  
     5    5    4 ar 
     6    4    7 ar 
     7    6    5 1  
     8    5   11 ar 
     9    6    9 1  
    10    7    8 ar 
    11    8   10 ar 
    12   10   11 ar 
    13    1   12 1  
    14    2   13 1  
    15    2   14 1  
    16    2   15 1  
    17    7   16 1  
    18    8   17 1  
    19    9   18 1  
    20    9   19 1  
    21   10   20 1  
    22   11   21 1  
@<TRIPOS>SUBSTRUCTURE
     1 K9S         1

