### 
### Created by X-TOOL on Mon Sep 10 21:13:08 2018
### 

@<TRIPOS>MOLECULE
4abd_ligand
   26    27     1     0     0
SMALL
GAST_HUCK


@<TRIPOS>ATOM
      1 C1          1.8020  -15.9750   18.3730 C.3       1 SW2        -0.0031
      2 N1          3.0920  -15.7910   19.0890 N.4       1 SW2         0.2307
      3 C2          1.7080  -15.0870   17.1570 C.ar      1 SW2        -0.0027
      4 N2          3.0760  -11.9760   15.5910 N.pl3     1 SW2        -0.2428
      5 C3          1.0770  -15.5940   16.0440 C.ar      1 SW2        -0.0620
      6 C4          1.1010  -14.9570   14.8260 C.ar      1 SW2        -0.0721
      7 C5          1.7340  -13.7140   14.6810 C.ar      1 SW2        -0.0337
      8 C6          2.3580  -13.2090   15.7950 C.ar      1 SW2         0.0872
      9 C7          2.8670  -11.0380   14.6150 C.2       1 SW2         0.0285
     10 C8          3.7200   -9.9510   14.7630 C.2       1 SW2        -0.0842
     11 C9          4.4440  -10.3570   15.9070 C.2       1 SW2        -0.0842
     12 C10         4.1250  -11.5900   16.3960 C.2       1 SW2         0.0285
     13 C11         2.3900  -13.8880   16.9880 C.ar      1 SW2        -0.0208
     14 H1          0.9762  -15.7309   19.0575 H         1 SW2         0.0978
     15 H2          1.7170  -17.0247   18.0554 H         1 SW2         0.0978
     16 H3          3.1195  -16.3981   19.8932 H         1 SW2         0.2008
     17 H4          3.1762  -14.8323   19.3888 H         1 SW2         0.2008
     18 H5          3.8549  -16.0179   18.4705 H         1 SW2         0.2008
     19 H6          0.5404  -16.5318   16.1311 H         1 SW2         0.0502
     20 H7          0.6258  -15.4202   13.9689 H         1 SW2         0.0583
     21 H8          1.7308  -13.1794   13.7380 H         1 SW2         0.0530
     22 H9          2.1257  -11.1322   13.8228 H         1 SW2         0.0810
     23 H10         3.8062   -9.0438   14.1668 H         1 SW2         0.0283
     24 H11         5.2049   -9.7282   16.3669 H         1 SW2         0.0283
     25 H12         4.5857  -12.1343   17.2190 H         1 SW2         0.0810
     26 H13         2.9592  -13.4802   17.8155 H         1 SW2         0.0525
@<TRIPOS>BOND
     1    1    2 1  
     2    3    1 1  
     3    5    3 ar 
     4    3   13 ar 
     5    8    4 1  
     6    4    9 1  
     7    4   12 1  
     8    6    5 ar 
     9    7    6 ar 
    10    7    8 ar 
    11    8   13 ar 
    12    9   10 2  
    13   10   11 1  
    14   11   12 2  
    15    1   14 1  
    16    1   15 1  
    17    2   16 1  
    18    2   17 1  
    19    2   18 1  
    20    5   19 1  
    21    6   20 1  
    22    7   21 1  
    23    9   22 1  
    24   10   23 1  
    25   11   24 1  
    26   12   25 1  
    27   13   26 1  
@<TRIPOS>SUBSTRUCTURE
     1 SW2         1

