### 
### Created by X-TOOL on Mon Sep 10 21:13:08 2018
### 

@<TRIPOS>MOLECULE
4abe_ligand
   25    26     1     0     0
SMALL
GAST_HUCK


@<TRIPOS>ATOM
      1 C1         -1.8170   16.0610   18.2590 C.3       1 913        -0.0031
      2 N1         -3.0940   15.9260   19.0130 N.4       1 913         0.2307
      3 C2         -1.7230   15.1360   17.0450 C.ar      1 913        -0.0024
      4 N2         -3.0610   11.9550   15.3360 N.pl3     1 913        -0.1658
      5 C3         -0.9570   15.5620   15.9930 C.ar      1 913        -0.0618
      6 C4         -0.8960   14.8470   14.8230 C.ar      1 913        -0.0718
      7 C5         -1.5620   13.6560   14.6280 C.ar      1 913        -0.0318
      8 C6         -2.3440   13.2010   15.6380 C.ar      1 913         0.1058
      9 C7         -2.6060   10.9080   14.5570 C.2       1 913         0.0644
     10 C8         -3.5600    9.9270   14.6450 C.2       1 913        -0.0469
     11 C9         -4.5490   10.5020   15.4970 C.2       1 913        -0.0053
     12 C11        -2.4120   13.9490   16.7980 C.ar      1 913        -0.0188
     13 N8         -4.2930   11.7620   15.8630 N.2       1 913        -0.2062
     14 H1         -0.9849   15.8275   18.9394 H         1 913         0.0978
     15 H2         -1.7262   17.1008   17.9119 H         1 913         0.0978
     16 H3         -3.0903   16.5603   19.7964 H         1 913         0.2008
     17 H4         -3.1884   14.9798   19.3474 H         1 913         0.2008
     18 H5         -3.8677   16.1466   18.4057 H         1 913         0.2008
     19 H6         -0.3886   16.4804   16.0859 H         1 913         0.0504
     20 H7         -0.2937   15.2387   14.0113 H         1 913         0.0584
     21 H8         -1.4641   13.1031   13.7007 H         1 913         0.0533
     22 H9         -1.6779   10.8698   13.9885 H         1 913         0.0997
     23 H10        -3.5621    8.9440   14.1765 H         1 913         0.0346
     24 H11        -5.4366    9.9609   15.8215 H         1 913         0.0659
     25 H12        -3.0585   13.5802   17.5861 H         1 913         0.0528
@<TRIPOS>BOND
     1    1    2 1  
     2    3    1 1  
     3    5    3 ar 
     4    3   12 ar 
     5    8    4 1  
     6    4    9 1  
     7    4   13 1  
     8    6    5 ar 
     9    7    6 ar 
    10    7    8 ar 
    11    8   12 ar 
    12    9   10 2  
    13   10   11 1  
    14   11   13 2  
    15    1   14 1  
    16    1   15 1  
    17    2   16 1  
    18    2   17 1  
    19    2   18 1  
    20    5   19 1  
    21    6   20 1  
    22    7   21 1  
    23    9   22 1  
    24   10   23 1  
    25   11   24 1  
    26   12   25 1  
@<TRIPOS>SUBSTRUCTURE
     1 913         1

