### 
### Created by X-TOOL on Mon Sep 10 21:13:08 2018
### 

@<TRIPOS>MOLECULE
4abf_ligand
   21    22     1     0     0
SMALL
GAST_HUCK


@<TRIPOS>ATOM
      1 C4          0.9810  -15.5260   15.8640 C.2       1 513        -0.0050
      2 N7          1.8490  -16.5190   18.4420 N.4       1 513         0.2277
      3 S3          0.7620  -14.8110   14.3430 S.3       1 513        -0.0507
      4 C2          1.7230  -13.4470   14.7930 C.ar      1 513         0.0375
      5 C1          2.1670  -13.6180   16.0920 C.ar      1 513        -0.0103
      6 C5          1.7370  -14.7830   16.7440 C.2       1 513         0.0009
      7 C8          2.0660  -12.3240   14.0160 C.ar      1 513        -0.0478
      8 C9          2.9030  -11.4010   14.6110 C.ar      1 513        -0.0611
      9 C6          2.1430  -15.1370   18.1290 C.3       1 513        -0.0112
     10 C10         3.3910  -11.5850   15.8910 C.ar      1 513         0.0032
     11 C11         3.0200  -12.6890   16.7170 C.ar      1 513        -0.0551
     12 BR1         4.5770  -10.2760   16.5270 Br        1 513        -0.0565
     13 H1          0.5580  -16.4950   16.1248 H         1 513         0.0633
     14 H2          2.1384  -16.7184   19.3867 H         1 513         0.2004
     15 H3          2.3459  -17.1210   17.8043 H         1 513         0.2004
     16 H4          0.8580  -16.6802   18.3531 H         1 513         0.2004
     17 H5          1.6936  -12.1914   13.0066 H         1 513         0.0575
     18 H6          3.1842  -10.5103   14.0608 H         1 513         0.0592
     19 H7          3.2251  -14.9709   18.2356 H         1 513         0.0931
     20 H8          1.6014  -14.4898   18.8345 H         1 513         0.0931
     21 H9          3.3657  -12.8020   17.7382 H         1 513         0.0609
@<TRIPOS>BOND
     1    1    3 1  
     2    6    1 2  
     3    9    2 1  
     4    4    3 1  
     5    5    4 ar 
     6    4    7 ar 
     7    6    5 1  
     8    5   11 ar 
     9    6    9 1  
    10    7    8 ar 
    11    8   10 ar 
    12   10   11 ar 
    13   10   12 1  
    14    1   13 1  
    15    2   14 1  
    16    2   15 1  
    17    2   16 1  
    18    7   17 1  
    19    8   18 1  
    20    9   19 1  
    21    9   20 1  
    22   11   21 1  
@<TRIPOS>SUBSTRUCTURE
     1 513         1

