### 
### Created by X-TOOL on Mon Sep 10 21:13:08 2018
### 

@<TRIPOS>MOLECULE
4abh_ligand
   30    31     1     0     0
SMALL
GAST_HUCK


@<TRIPOS>ATOM
      1 C1          1.8130  -15.9790   18.2830 C.3       1 7Z3        -0.0047
      2 N1          3.1190  -15.7710   19.0010 N.4       1 7Z3         0.2307
      3 C2          1.6750  -15.1310   17.0630 C.ar      1 7Z3        -0.0107
      4 N2          2.4160  -11.6370   15.8790 N.pl3     1 7Z3        -0.3102
      5 C3          1.3110  -15.7700   15.8650 C.ar      1 7Z3        -0.0686
      6 C4          1.2180  -15.0150   14.7150 C.ar      1 7Z3        -0.0800
      7 C5          1.5900  -13.6520   14.6800 C.ar      1 7Z3        -0.0513
      8 C6          2.0050  -13.0640   15.8460 C.ar      1 7Z3         0.0333
      9 C7          2.6860  -11.0220   14.5590 C.3       1 7Z3         0.0267
     10 C8          3.4630   -9.8000   14.9710 C.3       1 7Z3        -0.0315
     11 C9          4.0280  -10.0400   16.3680 C.3       1 7Z3        -0.0315
     12 C10         3.3670  -11.2460   16.9520 C.3       1 7Z3         0.0267
     13 C11         2.0470  -13.8110   17.0360 C.ar      1 7Z3        -0.0385
     14 H1          0.9914  -15.7362   18.9730 H         1 7Z3         0.0977
     15 H2          1.7415  -17.0354   17.9850 H         1 7Z3         0.0977
     16 H3          3.1548  -16.3675   19.8127 H         1 7Z3         0.2008
     17 H4          3.1948  -14.8078   19.2883 H         1 7Z3         0.2008
     18 H5          3.8822  -15.9984   18.3830 H         1 7Z3         0.2008
     19 H6          1.1076  -16.8346   15.8457 H         1 7Z3         0.0449
     20 H7          0.8479  -15.4816   13.8092 H         1 7Z3         0.0566
     21 H8          1.5482  -13.0871   13.7558 H         1 7Z3         0.0459
     22 H9          1.7545  -10.7532   14.0394 H         1 7Z3         0.0513
     23 H10         3.2851  -11.6856   13.9181 H         1 7Z3         0.0513
     24 H11         2.7984   -8.9236   14.9841 H         1 7Z3         0.0285
     25 H12         4.2857   -9.6258   14.2620 H         1 7Z3         0.0285
     26 H13         3.8284   -9.1645   17.0034 H         1 7Z3         0.0285
     27 H14         5.1134  -10.2072   16.3045 H         1 7Z3         0.0285
     28 H15         4.0973  -12.0450   17.1476 H         1 7Z3         0.0513
     29 H16         2.8367  -10.9978   17.8832 H         1 7Z3         0.0513
     30 H17         2.3801  -13.3343   17.9508 H         1 7Z3         0.0452
@<TRIPOS>BOND
     1    1    2 1  
     2    3    1 1  
     3    5    3 ar 
     4    3   13 ar 
     5    8    4 1  
     6    4    9 1  
     7    4   12 1  
     8    6    5 ar 
     9    7    6 ar 
    10    7    8 ar 
    11    8   13 ar 
    12    9   10 1  
    13   10   11 1  
    14   11   12 1  
    15    1   14 1  
    16    1   15 1  
    17    2   16 1  
    18    2   17 1  
    19    2   18 1  
    20    5   19 1  
    21    6   20 1  
    22    7   21 1  
    23    9   22 1  
    24    9   23 1  
    25   10   24 1  
    26   10   25 1  
    27   11   26 1  
    28   11   27 1  
    29   12   28 1  
    30   12   29 1  
    31   13   30 1  
@<TRIPOS>SUBSTRUCTURE
     1 7Z3         1

