### 
### Created by X-TOOL on Mon Sep 10 21:13:11 2018
### 

@<TRIPOS>MOLECULE
4abu_ligand
   26    27     1     0     0
SMALL
GAST_HUCK


@<TRIPOS>ATOM
      1 C1         -0.2970    0.3710   -7.1870 C.ar      1 FT1         0.1513
      2 C2          0.4800    0.0110   -8.2820 C.ar      1 FT1         0.1274
      3 C3         -0.1240   -0.2640   -9.5030 C.ar      1 FT1        -0.0222
      4 C4         -1.5060   -0.1790   -9.6290 C.ar      1 FT1         0.0104
      5 C5         -2.2830    0.1810   -8.5340 C.ar      1 FT1        -0.0617
      6 C6         -1.6780    0.4560   -7.3130 C.ar      1 FT1        -0.0295
      7 O7          0.2950    0.6400   -5.9920 O.3       1 FT1        -0.2563
      8 C8         -0.2540   -0.1430   -5.0260 C.ar      1 FT1         0.1297
      9 C9          0.4660   -0.4310   -3.8720 C.ar      1 FT1         0.0730
     10 C10        -0.0950   -1.2310   -2.8840 C.ar      1 FT1        -0.0417
     11 C11        -1.3760   -1.7440   -3.0490 C.ar      1 FT1         0.0297
     12 C12        -2.0960   -1.4570   -4.2030 C.ar      1 FT1        -0.0556
     13 C13        -1.5350   -0.6560   -5.1910 C.ar      1 FT1        -0.0273
     14 C14        -2.1710   -0.4820  -10.9730 C.2       1 FT1         0.1164
     15 O15        -3.3960   -0.5260  -11.0780 O.2       1 FT1        -0.3677
     16 CL1        -2.0740   -2.7410   -1.8190 Cl        1 FT1        -0.0805
     17 CL9         2.0610    0.2080   -3.6660 Cl        1 FT1        -0.0777
     18 O18         1.8320   -0.0720   -8.1580 O.3       1 FT1        -0.3347
     19 H1          0.4821   -0.5447  -10.3568 H         1 FT1         0.0562
     20 H2         -3.3605    0.2473   -8.6322 H         1 FT1         0.0556
     21 H3         -2.2838    0.7368   -6.4591 H         1 FT1         0.0536
     22 H4          0.4667   -1.4550   -1.9843 H         1 FT1         0.0603
     23 H5         -3.0948   -1.8578   -4.3324 H         1 FT1         0.0598
     24 H6         -2.0969   -0.4315   -6.0904 H         1 FT1         0.0552
     25 H7         -1.5507   -0.6614  -11.8499 H         1 FT1         0.1315
     26 H8          2.0811    0.1451   -7.2673 H         1 FT1         0.2447
@<TRIPOS>BOND
     1    1    2 ar 
     2    1    6 ar 
     3    1    7 1  
     4    2    3 ar 
     5    2   18 1  
     6    3    4 ar 
     7    4    5 ar 
     8    4   14 1  
     9    5    6 ar 
    10    7    8 1  
    11    8    9 ar 
    12    8   13 ar 
    13    9   10 ar 
    14    9   17 1  
    15   10   11 ar 
    16   11   12 ar 
    17   11   16 1  
    18   12   13 ar 
    19   14   15 2  
    20    3   19 1  
    21    5   20 1  
    22    6   21 1  
    23   10   22 1  
    24   12   23 1  
    25   13   24 1  
    26   14   25 1  
    27   18   26 1  
@<TRIPOS>SUBSTRUCTURE
     1 FT1         1

