### 
### Created by X-TOOL on Mon Sep 10 21:13:11 2018
### 

@<TRIPOS>MOLECULE
4abv_ligand
   27    28     1     0     0
SMALL
GAST_HUCK


@<TRIPOS>ATOM
      1 C1          0.0080    0.4460    7.0030 C.ar      1 FT2         0.1382
      2 C2         -0.3630    0.2470    8.3410 C.ar      1 FT2         0.1152
      3 C3          0.5610    0.4400    9.3550 C.ar      1 FT2        -0.0377
      4 C4          1.8380    0.8280    9.0240 C.ar      1 FT2        -0.0472
      5 C5          2.2400    1.0290    7.7140 C.ar      1 FT2        -0.0778
      6 C6          1.3160    0.8220    6.7000 C.ar      1 FT2        -0.0429
      7 O7         -0.8980    0.2130    5.9980 O.3       1 FT2        -0.2646
      8 C8         -1.0850    0.9720    4.8700 C.ar      1 FT2         0.1263
      9 C9         -0.0700    1.5280    4.1010 C.ar      1 FT2         0.0722
     10 C10        -0.4110    2.2850    2.9820 C.ar      1 FT2        -0.0421
     11 C11        -1.7300    2.4800    2.6160 C.ar      1 FT2         0.0294
     12 C12        -2.7270    1.9210    3.3710 C.ar      1 FT2        -0.0559
     13 C13        -2.3920    1.1720    4.4810 C.ar      1 FT2        -0.0280
     14 C14         2.8040    0.9990   10.1260 C.3       1 FT2         0.0494
     15 CL15        3.1550   -0.6060   10.7350 Cl        1 FT2        -0.1115
     16 CL16       -2.1560    3.4230    1.2400 Cl        1 FT2        -0.0807
     17 CL17        1.5980    1.3230    4.5280 Cl        1 FT2        -0.0780
     18 O18        -1.6130   -0.1300    8.7110 O.3       1 FT2        -0.3375
     19 H1          0.2821    0.2878   10.3914 H         1 FT2         0.0452
     20 H2          3.2529    1.3408    7.4863 H         1 FT2         0.0439
     21 H3          1.6128    0.9534    5.6657 H         1 FT2         0.0504
     22 H4          0.3759    2.7313    2.3847 H         1 FT2         0.0602
     23 H5         -3.7666    2.0651    3.1000 H         1 FT2         0.0598
     24 H6         -3.1859    0.7248    5.0682 H         1 FT2         0.0550
     25 H7          2.3665    1.6199   10.9217 H         1 FT2         0.0571
     26 H8          3.7240    1.4738    9.7544 H         1 FT2         0.0571
     27 H9         -2.1542   -0.2311    7.9369 H         1 FT2         0.2446
@<TRIPOS>BOND
     1    1    2 ar 
     2    1    6 ar 
     3    1    7 1  
     4    2    3 ar 
     5    2   18 1  
     6    3    4 ar 
     7    4    5 ar 
     8    4   14 1  
     9    5    6 ar 
    10    7    8 1  
    11    8    9 ar 
    12    8   13 ar 
    13    9   10 ar 
    14    9   17 1  
    15   10   11 ar 
    16   11   12 ar 
    17   11   16 1  
    18   12   13 ar 
    19   14   15 1  
    20    3   19 1  
    21    5   20 1  
    22    6   21 1  
    23   10   22 1  
    24   12   23 1  
    25   13   24 1  
    26   14   25 1  
    27   14   26 1  
    28   18   27 1  
@<TRIPOS>SUBSTRUCTURE
     1 FT2         1

