### 
### Created by X-TOOL on Mon Sep 10 21:13:11 2018
### 

@<TRIPOS>MOLECULE
4ac3_ligand
   60    62     1     0     0
SMALL
GAST_HUCK


@<TRIPOS>ATOM
      1 C1         43.9180   41.1500   80.2640 C.3       1 R83         0.0561
      2 O2         44.0470   39.7090   79.9980 O.3       1 R83        -0.3297
      3 C3         44.4520   38.9560   81.1050 C.ar      1 R83         0.1049
      4 C4         44.3370   39.4320   82.4230 C.ar      1 R83        -0.0149
      5 C5         44.7370   38.6260   83.4500 C.ar      1 R83         0.0932
      6 O6         44.7420   39.0660   84.7580 O.3       1 R83        -0.3315
      7 C7         44.0770   40.3840   84.9730 C.3       1 R83         0.0561
      8 C8         45.2730   37.3500   83.1650 C.ar      1 R83         0.1123
      9 C9         45.3130   36.8540   81.8660 C.ar      1 R83        -0.0307
     10 C10        44.8750   37.6420   80.8440 C.ar      1 R83         0.0874
     11 N11        44.9120   37.2800   79.4850 N.am      1 R83        -0.2430
     12 C12        45.8380   36.4750   78.8610 C.2       1 R83         0.1949
     13 O13        46.6530   35.8460   79.5690 O.2       1 R83        -0.3880
     14 C14        45.6810   36.2960   77.3440 C.3       1 R83         0.0305
     15 S15        45.7660   36.3010   84.4620 S.o2      1 R83         0.0597
     16 O16        46.6890   36.9190   85.2940 O.2       1 R83        -0.1534
     17 O17        46.0100   35.0430   83.8310 O.2       1 R83        -0.1534
     18 N18        44.4240   36.0370   85.4810 N.am      1 R83        -0.2409
     19 C19        43.1130   35.5830   84.9690 C.3       1 R83         0.0566
     20 C20        42.0940   36.6920   85.1560 C.ar      1 R83        -0.0062
     21 C21        41.1720   36.8930   84.1150 C.ar      1 R83        -0.0702
     22 C22        40.2340   37.9200   84.2570 C.ar      1 R83        -0.0819
     23 C23        40.1890   38.7120   85.4080 C.ar      1 R83        -0.0807
     24 C24        41.0730   38.4870   86.4810 C.ar      1 R83        -0.0507
     25 C25        42.0250   37.4700   86.3550 C.ar      1 R83         0.0442
     26 N26        42.9120   37.2140   87.4090 N.pl3     1 R83        -0.3119
     27 C27        43.0920   38.2780   88.4100 C.3       1 R83         0.0254
     28 C28        44.2410   37.8860   89.3970 C.3       1 R83        -0.0335
     29 C29        44.1110   36.4470   89.9350 C.3       1 R83        -0.0495
     30 C30        43.5810   35.4320   88.8850 C.3       1 R83        -0.0335
     31 C31        42.3910   36.0540   88.1340 C.3       1 R83         0.0254
     32 H1         43.5975   41.6650   79.3463 H         1 R83         0.0572
     33 H2         44.8891   41.5512   80.5895 H         1 R83         0.0572
     34 H3         43.1709   41.3114   81.0550 H         1 R83         0.0572
     35 H4         43.9382   40.4205   82.6201 H         1 R83         0.0427
     36 H5         44.1296   40.6517   86.0386 H         1 R83         0.0572
     37 H6         43.0236   40.3181   84.6631 H         1 R83         0.0572
     38 H7         44.5875   41.1540   84.3759 H         1 R83         0.0572
     39 H8         45.6870   35.8557   81.6696 H         1 R83         0.0462
     40 H9         44.1838   37.6489   78.9074 H         1 R83         0.2186
     41 H10        46.4765   35.6356   76.9685 H         1 R83         0.0470
     42 H11        45.7541   37.2759   76.8496 H         1 R83         0.0470
     43 H12        44.7000   35.8482   77.1272 H         1 R83         0.0470
     44 H13        44.5277   36.1954   86.4629 H         1 R83         0.1693
     45 H14        42.7905   34.6896   85.5237 H         1 R83         0.0611
     46 H15        43.1997   35.3393   83.8998 H         1 R83         0.0611
     47 H16        41.1875   36.2702   83.2279 H         1 R83         0.0520
     48 H17        39.5263   38.1061   83.4572 H         1 R83         0.0487
     49 H18        39.4615   39.5128   85.4758 H         1 R83         0.0525
     50 H19        41.0170   39.0870   87.3821 H         1 R83         0.0493
     51 H20        42.1566   38.4122   88.9730 H         1 R83         0.0511
     52 H21        43.3520   39.2181   87.9014 H         1 R83         0.0511
     53 H22        44.2230   38.5813   90.2492 H         1 R83         0.0284
     54 H23        45.2020   37.9771   88.8696 H         1 R83         0.0284
     55 H24        43.4176   36.4570   90.7888 H         1 R83         0.0266
     56 H25        45.1029   36.1115   90.2721 H         1 R83         0.0266
     57 H26        43.2548   34.5130   89.3940 H         1 R83         0.0284
     58 H27        44.3814   35.1908   88.1701 H         1 R83         0.0284
     59 H28        41.9654   35.3255   87.4282 H         1 R83         0.0511
     60 H29        41.6155   36.3696   88.8474 H         1 R83         0.0511
@<TRIPOS>BOND
     1    1    2 1  
     2    2    3 1  
     3    3    4 ar 
     4    3   10 ar 
     5    4    5 ar 
     6    5    6 1  
     7    5    8 ar 
     8    6    7 1  
     9    8    9 ar 
    10    8   15 1  
    11    9   10 ar 
    12   10   11 1  
    13   11   12 am 
    14   12   13 2  
    15   12   14 1  
    16   15   16 2  
    17   15   17 2  
    18   15   18 am 
    19   18   19 1  
    20   19   20 1  
    21   20   21 ar 
    22   20   25 ar 
    23   21   22 ar 
    24   22   23 ar 
    25   23   24 ar 
    26   24   25 ar 
    27   25   26 1  
    28   26   27 1  
    29   26   31 1  
    30   27   28 1  
    31   28   29 1  
    32   29   30 1  
    33   30   31 1  
    34    1   32 1  
    35    1   33 1  
    36    1   34 1  
    37    4   35 1  
    38    7   36 1  
    39    7   37 1  
    40    7   38 1  
    41    9   39 1  
    42   11   40 1  
    43   14   41 1  
    44   14   42 1  
    45   14   43 1  
    46   18   44 1  
    47   19   45 1  
    48   19   46 1  
    49   21   47 1  
    50   22   48 1  
    51   23   49 1  
    52   24   50 1  
    53   27   51 1  
    54   27   52 1  
    55   28   53 1  
    56   28   54 1  
    57   29   55 1  
    58   29   56 1  
    59   30   57 1  
    60   30   58 1  
    61   31   59 1  
    62   31   60 1  
@<TRIPOS>SUBSTRUCTURE
     1 R83         1

