### 
### Created by X-TOOL on Mon Sep 10 21:13:10 2018
### 

@<TRIPOS>MOLECULE
4acc_ligand
   55    57     1     0     0
SMALL
GAST_HUCK


@<TRIPOS>ATOM
      1 C1         11.2090   21.8830   13.3280 C.3       1 7YG        -0.0433
      2 N2         12.5290   21.9890   14.0130 N.4       1 7YG         0.2320
      3 C3         12.6720   21.1030   15.2010 C.3       1 7YG        -0.0433
      4 C4         13.7700   22.1940   13.1830 C.3       1 7YG        -0.0152
      5 C5         13.8000   21.3760   11.8970 C.3       1 7YG         0.0665
      6 N6         13.9710   19.9690   12.2990 N.am      1 7YG        -0.2423
      7 S7         13.6810   18.7440   11.1430 S.o2      1 7YG         0.0687
      8 O8         13.6900   17.5000   11.8930 O.2       1 7YG        -0.1502
      9 O9         12.6320   19.0720   10.2030 O.2       1 7YG        -0.1502
     10 C10        15.2170   18.8030   10.1890 C.ar      1 7YG         0.1088
     11 C11        15.2120   19.1540    8.8470 C.ar      1 7YG        -0.0338
     12 C12        16.4060   19.1920    8.1530 C.ar      1 7YG        -0.0503
     13 C13        17.6130   18.8760    8.7670 C.ar      1 7YG        -0.0003
     14 C14        17.5880   18.5300   10.1070 C.ar      1 7YG        -0.0503
     15 C15        16.4080   18.5000   10.8260 C.ar      1 7YG        -0.0338
     16 C16        18.8730   18.8560    8.0330 C.ar      1 7YG         0.0738
     17 C17        19.0530   19.5450    6.8510 C.ar      1 7YG         0.0379
     18 N18        20.1710   19.4780    6.1170 N.ar      1 7YG        -0.2533
     19 C19        21.1550   18.7070    6.6130 C.ar      1 7YG         0.1616
     20 C20        20.9980   18.0460    7.8200 C.ar      1 7YG         0.1756
     21 N21        19.8600   18.0900    8.5320 N.ar      1 7YG        -0.2600
     22 C22        22.0660   17.1780    8.3690 C.2       1 7YG         0.2541
     23 O23        23.1560   17.0920    7.8240 O.2       1 7YG        -0.3700
     24 N24        21.6590   16.4800    9.4900 N.am      1 7YG        -0.2251
     25 C25        22.4590   15.6880   10.3250 C.ar      1 7YG         0.0941
     26 C26        21.8450   15.0640   11.3910 C.ar      1 7YG        -0.0215
     27 C27        22.6020   14.2980   12.2610 C.ar      1 7YG        -0.0479
     28 C28        23.9590   14.1880   12.0090 C.ar      1 7YG        -0.0050
     29 N29        24.5750   14.7750   10.9710 N.ar      1 7YG        -0.3127
     30 C30        23.8240   15.5200   10.1540 C.ar      1 7YG         0.0313
     31 N31        22.3320   18.5790    5.8790 N.pl3     1 7YG        -0.3111
     32 H1         10.4176   21.7365   14.0778 H         1 7YG         0.0777
     33 H2         11.2222   21.0273   12.6369 H         1 7YG         0.0777
     34 H3         11.0133   22.8069   12.7641 H         1 7YG         0.0777
     35 H4         12.4463   22.8949   14.4473 H         1 7YG         0.2028
     36 H5         13.6689   21.2425   15.6445 H         1 7YG         0.0777
     37 H6         12.5514   20.0540   14.8927 H         1 7YG         0.0777
     38 H7         11.9014   21.3579   15.9435 H         1 7YG         0.0777
     39 H8         14.6427   21.9138   13.7912 H         1 7YG         0.0830
     40 H9         13.8355   23.2592   12.9165 H         1 7YG         0.0830
     41 H10        14.6408   21.6949   11.2635 H         1 7YG         0.0528
     42 H11        12.8568   21.5013   11.3450 H         1 7YG         0.0528
     43 H12        14.2513   19.7353   13.2300 H         1 7YG         0.1674
     44 H13        14.2807   19.3960    8.3479 H         1 7YG         0.0639
     45 H14        16.4018   19.4745    7.1065 H         1 7YG         0.0630
     46 H15        18.5169   18.2763   10.6048 H         1 7YG         0.0630
     47 H16        16.4151   18.2416   11.8787 H         1 7YG         0.0639
     48 H17        18.2450   20.1751    6.4972 H         1 7YG         0.0922
     49 H18        20.6908   16.5471    9.7311 H         1 7YG         0.2279
     50 H19        20.7777   15.1726   11.5464 H         1 7YG         0.0622
     51 H20        22.1477   13.8012   13.1107 H         1 7YG         0.0667
     52 H21        24.5584   13.5936   12.6891 H         1 7YG         0.0691
     53 H22        24.3050   16.0159    9.3187 H         1 7YG         0.0711
     54 H23        23.1010   17.9944    6.2366 H         1 7YG         0.1819
     55 H24        22.4333   19.0689    4.9787 H         1 7YG         0.1819
@<TRIPOS>BOND
     1    1    2 1  
     2    2    3 1  
     3    2    4 1  
     4    4    5 1  
     5    5    6 1  
     6    6    7 am 
     7    7    8 2  
     8    7    9 2  
     9    7   10 1  
    10   10   11 ar 
    11   10   15 ar 
    12   11   12 ar 
    13   12   13 ar 
    14   13   14 ar 
    15   13   16 1  
    16   14   15 ar 
    17   16   17 ar 
    18   16   21 ar 
    19   17   18 ar 
    20   18   19 ar 
    21   19   20 ar 
    22   19   31 1  
    23   20   21 ar 
    24   20   22 1  
    25   22   23 2  
    26   22   24 am 
    27   24   25 1  
    28   25   26 ar 
    29   25   30 ar 
    30   26   27 ar 
    31   27   28 ar 
    32   28   29 ar 
    33   29   30 ar 
    34    1   32 1  
    35    1   33 1  
    36    1   34 1  
    37    2   35 1  
    38    3   36 1  
    39    3   37 1  
    40    3   38 1  
    41    4   39 1  
    42    4   40 1  
    43    5   41 1  
    44    5   42 1  
    45    6   43 1  
    46   11   44 1  
    47   12   45 1  
    48   14   46 1  
    49   15   47 1  
    50   17   48 1  
    51   24   49 1  
    52   26   50 1  
    53   27   51 1  
    54   28   52 1  
    55   30   53 1  
    56   31   54 1  
    57   31   55 1  
@<TRIPOS>SUBSTRUCTURE
     1 7YG         1

