### 
### Created by X-TOOL on Mon Sep 10 21:13:09 2018
### 

@<TRIPOS>MOLECULE
4acf_ligand
   46    48     1     0     0
SMALL
GAST_HUCK


@<TRIPOS>ATOM
      1 O19       -25.6740   88.6820    0.2860 O.co2     1 46B        -0.5662
      2 C18       -26.2870   87.7260    0.7980 C.2       1 46B         0.0665
      3 O20       -27.5160   87.5580    0.6600 O.co2     1 46B        -0.5662
      4 C17       -25.4890   86.7500    1.6240 C.3       1 46B         0.1282
      5 O16       -25.5200   87.1620    3.0040 O.3       1 46B        -0.2892
      6 C13       -26.1450   86.3890    3.9480 C.ar      1 46B         0.1158
      7 C14       -27.3070   85.6820    3.6450 C.ar      1 46B        -0.0126
      8 C15       -27.9240   84.8970    4.6090 C.ar      1 46B        -0.0372
      9 C12       -25.6080   86.3060    5.2290 C.ar      1 46B        -0.0126
     10 C11       -26.2390   85.5200    6.1940 C.ar      1 46B        -0.0372
     11 C10       -27.3880   84.7890    5.8840 C.ar      1 46B         0.0491
     12 C2        -28.0480   83.9730    6.9560 C.2       1 46B         0.2009
     13 N1        -27.4350   83.5110    8.0510 N.pl3     1 46B        -0.2206
     14 C9        -28.3500   82.8640    8.7930 C.ar      1 46B         0.1599
     15 C8        -28.2450   82.2240    9.9640 C.ar      1 46B         0.0002
     16 C7        -29.3640   81.6210   10.5340 C.ar      1 46B        -0.0379
     17 C3        -29.3390   83.6050    7.0210 C.2       1 46B         0.2345
     18 N4        -29.5220   82.9280    8.1530 N.ar      1 46B        -0.2426
     19 C5        -30.6360   82.3740    8.6560 C.ar      1 46B         0.0165
     20 C6        -30.5860   81.6940    9.8730 C.ar      1 46B         0.0327
     21 BR1       -32.1620   80.9150   10.5830 Br        1 46B        -0.0468
     22 N21       -30.3180   83.8740    6.1270 N.pl3     1 46B        -0.2532
     23 C22       -31.0590   82.8350    5.4190 C.3       1 46B         0.0511
     24 C23       -30.7070   82.7360    3.9260 C.3       1 46B        -0.0275
     25 C24       -31.5920   81.7260    3.1860 C.3       1 46B        -0.0536
     26 C25       -31.2170   81.5780    1.7220 C.3       1 46B        -0.0652
     27 H1        -24.4481   86.7320    1.2687 H         1 46B         0.0798
     28 H2        -25.9260   85.7449    1.5301 H         1 46B         0.0798
     29 H3        -27.7318   85.7456    2.6497 H         1 46B         0.0611
     30 H4        -28.8345   84.3626    4.3630 H         1 46B         0.0709
     31 H5        -24.7033   86.8496    5.4762 H         1 46B         0.0611
     32 H6        -25.8319   85.4762    7.1977 H         1 46B         0.0709
     33 H7        -26.4388   83.6298    8.2843 H         1 46B         0.2410
     34 H8        -27.2874   82.1749   10.4697 H         1 46B         0.0678
     35 H9        -29.2835   81.1009   11.4817 H         1 46B         0.0739
     36 H10       -31.5733   82.4548    8.1174 H         1 46B         0.0833
     37 H11       -30.5515   84.8590    5.9370 H         1 46B         0.2261
     38 H12       -32.1337   83.0517    5.5091 H         1 46B         0.0589
     39 H13       -30.8391   81.8670    5.8929 H         1 46B         0.0589
     40 H14       -29.6568   82.4233    3.8300 H         1 46B         0.0290
     41 H15       -30.8384   83.7260    3.4650 H         1 46B         0.0290
     42 H16       -32.6375   82.0622    3.2489 H         1 46B         0.0263
     43 H17       -31.4919   80.7460    3.6754 H         1 46B         0.0263
     44 H18       -31.8831   80.8438    1.2453 H         1 46B         0.0230
     45 H19       -30.1754   81.2333    1.6433 H         1 46B         0.0230
     46 H20       -31.3209   82.5496    1.2168 H         1 46B         0.0230
@<TRIPOS>BOND
     1    1    2 ar 
     2    2    3 ar 
     3    2    4 1  
     4    4    5 1  
     5    5    6 1  
     6    6    7 ar 
     7    6    9 ar 
     8    7    8 ar 
     9    8   11 ar 
    10    9   10 ar 
    11   10   11 ar 
    12   11   12 1  
    13   12   13 1  
    14   12   17 2  
    15   13   14 1  
    16   14   15 ar 
    17   14   18 ar 
    18   15   16 ar 
    19   16   20 ar 
    20   17   18 1  
    21   17   22 1  
    22   18   19 ar 
    23   19   20 ar 
    24   20   21 1  
    25   22   23 1  
    26   23   24 1  
    27   24   25 1  
    28   25   26 1  
    29    4   27 1  
    30    4   28 1  
    31    7   29 1  
    32    8   30 1  
    33    9   31 1  
    34   10   32 1  
    35   13   33 1  
    36   15   34 1  
    37   16   35 1  
    38   19   36 1  
    39   22   37 1  
    40   23   38 1  
    41   23   39 1  
    42   24   40 1  
    43   24   41 1  
    44   25   42 1  
    45   25   43 1  
    46   26   44 1  
    47   26   45 1  
    48   26   46 1  
@<TRIPOS>SUBSTRUCTURE
     1 46B         1

