### 
### Created by X-TOOL on Mon Sep 10 21:13:08 2018
### 

@<TRIPOS>MOLECULE
4aci_ligand
   18    17     1     0     0
SMALL
GAST_HUCK


@<TRIPOS>ATOM
      1 C1        -11.1130    9.4630   37.0710 C.2       1 CIT         0.0371
      2 O1        -12.2910    9.1490   36.7650 O.co2     1 CIT        -0.5690
      3 O2        -10.2990    9.9130   36.1850 O.co2     1 CIT        -0.5690
      4 C2        -10.6430    9.3330   38.4790 C.3       1 CIT         0.0356
      5 C3        -11.7320    9.6290   39.4940 C.3       1 CIT         0.1328
      6 O7        -12.8620    8.8030   39.1690 O.3       1 CIT        -0.3818
      7 C4        -11.2430    9.3090   40.8940 C.3       1 CIT         0.0356
      8 C5        -12.3000    9.5370   41.9790 C.2       1 CIT         0.0371
      9 O3        -13.5550    9.6900   41.7660 O.co2     1 CIT        -0.5690
     10 O4        -11.8820    9.6490   43.1710 O.co2     1 CIT        -0.5690
     11 C6        -12.2180   11.0740   39.3350 C.2       1 CIT         0.0796
     12 O5        -13.4170   11.3830   39.4610 O.co2     1 CIT        -0.5449
     13 O6        -11.4100   11.9580   39.1020 O.co2     1 CIT        -0.5449
     14 H1         -9.8133   10.0374   38.6387 H         1 CIT         0.0452
     15 H2        -10.2863    8.3044   38.6366 H         1 CIT         0.0452
     16 H3        -13.1611    9.0087   38.2911 H         1 CIT         0.2091
     17 H4        -10.3752    9.9481   41.1140 H         1 CIT         0.0452
     18 H5        -10.9372    8.2528   40.9228 H         1 CIT         0.0452
@<TRIPOS>BOND
     1    1    2 ar 
     2    1    3 ar 
     3    1    4 1  
     4    4    5 1  
     5    5    6 1  
     6    5    7 1  
     7    5   11 1  
     8    7    8 1  
     9    8    9 ar 
    10    8   10 ar 
    11   11   12 ar 
    12   11   13 ar 
    13    4   14 1  
    14    4   15 1  
    15    6   16 1  
    16    7   17 1  
    17    7   18 1  
@<TRIPOS>SUBSTRUCTURE
     1 CIT         1

