### 
### Created by X-TOOL on Mon Sep 10 21:13:09 2018
### 

@<TRIPOS>MOLECULE
4acu_ligand
   55    59     1     0     0
SMALL
GAST_HUCK


@<TRIPOS>ATOM
      1 C1          1.3900   -3.1140  -16.4730 C.3       1 QN7         0.0654
      2 O2          1.6530   -2.7230  -17.8260 O.3       1 QN7        -0.2979
      3 C3          2.9620   -2.9570  -18.2380 C.ar      1 QN7         0.1845
      4 C4          3.7430   -3.9810  -17.7380 C.ar      1 QN7         0.0303
      5 C5          5.0040   -4.1700  -18.2690 C.ar      1 QN7        -0.0077
      6 C6          5.4960   -3.3120  -19.2340 C.ar      1 QN7         0.0045
      7 C7          4.7280   -2.2900  -19.7650 C.ar      1 QN7         0.0994
      8 C8          3.4420   -2.1660  -19.2720 C.ar      1 QN7         0.2253
      9 F9          2.6550   -1.1930  -19.7680 F         1 QN7        -0.1689
     10 C10         5.3110   -1.3190  -20.6850 C.ar      1 QN7         0.0814
     11 C11         6.0820   -1.6970  -21.7680 C.ar      1 QN7         0.0144
     12 C12         6.6810   -0.7380  -22.5690 C.ar      1 QN7        -0.0000
     13 C13         6.5150    0.6080  -22.2870 C.ar      1 QN7        -0.0079
     14 C14         5.7280    1.0250  -21.2230 C.ar      1 QN7         0.0267
     15 C15         5.1590    0.0380  -20.4370 C.ar      1 QN7         0.0136
     16 C16         5.5290    2.4890  -20.8780 C.3       1 QN7         0.1816
     17 C17         6.2590    2.7650  -19.5760 C.2       1 QN7         0.1003
     18 N18         7.5300    2.5270  -19.4350 N.pl3     1 QN7        -0.2966
     19 C19         8.0510    2.8720  -18.1000 C.3       1 QN7         0.0958
     20 C20         7.2630    3.9560  -17.3700 C.3       1 QN7         0.2796
     21 C21         5.7790    3.6180  -17.3000 C.3       1 QN7         0.0679
     22 N22         5.3950    3.2900  -18.6670 N.2       1 QN7        -0.3078
     23 C23         4.1560    3.2420  -19.2890 C.cat     1 QN7         0.2758
     24 N24         4.1320    2.7990  -20.5020 N.pl3     1 QN7        -0.2894
     25 N25         3.0400    3.6510  -18.5950 N.pl3     1 QN7        -0.2645
     26 F26         7.7900    4.0560  -16.1150 F         1 QN7        -0.2023
     27 F27         7.3890    5.1630  -18.0240 F         1 QN7        -0.2023
     28 C28         5.9520    3.4350  -21.9940 C.ar      1 QN7        -0.0014
     29 C29         5.0470    3.8410  -22.9610 C.ar      1 QN7        -0.0219
     30 C30         5.4710    4.6870  -23.9730 C.ar      1 QN7         0.0321
     31 N31         6.7200    5.1540  -24.1030 N.ar      1 QN7        -0.2735
     32 C32         7.5850    4.7300  -23.1710 C.ar      1 QN7         0.0321
     33 C33         7.2540    3.8910  -22.1270 C.ar      1 QN7        -0.0219
     34 H1          0.3401   -2.8975  -16.2263 H         1 QN7         0.0591
     35 H2          2.0493   -2.5530  -15.7944 H         1 QN7         0.0591
     36 H3          1.5785   -4.1918  -16.3595 H         1 QN7         0.0591
     37 H4          3.3741   -4.6225  -16.9459 H         1 QN7         0.1086
     38 H5          5.6129   -4.9985  -17.9258 H         1 QN7         0.0746
     39 H6          6.5130   -3.4431  -19.5855 H         1 QN7         0.0957
     40 H7          6.2188   -2.7488  -21.9919 H         1 QN7         0.1025
     41 H8          7.2813   -1.0420  -23.4189 H         1 QN7         0.0821
     42 H9          7.0079    1.3476  -22.9076 H         1 QN7         0.1116
     43 H10         4.5636    0.3407  -19.5832 H         1 QN7         0.1108
     44 H11         8.1168    2.1346  -20.1851 H         1 QN7         0.1886
     45 H12         9.0876    3.2211  -18.2162 H         1 QN7         0.0588
     46 H13         8.0375    1.9627  -17.4811 H         1 QN7         0.0588
     47 H14         5.2038    4.4816  -16.9348 H         1 QN7         0.0460
     48 H15         5.6106    2.7578  -16.6355 H         1 QN7         0.0460
     49 H16         3.2981    2.6834  -21.0954 H         1 QN7         0.3051
     50 H17         3.1318    3.9941  -17.6282 H         1 QN7         0.3188
     51 H18         2.1130    3.6140  -19.0425 H         1 QN7         0.3188
     52 H19         4.0184    3.5006  -22.9263 H         1 QN7         0.0867
     53 H20         4.7398    4.9929  -24.7125 H         1 QN7         0.0879
     54 H21         8.6123    5.0686  -23.2422 H         1 QN7         0.0879
     55 H22         8.0108    3.5890  -21.4121 H         1 QN7         0.0867
@<TRIPOS>BOND
     1    1    2 1  
     2    2    3 1  
     3    3    4 ar 
     4    3    8 ar 
     5    4    5 ar 
     6    5    6 ar 
     7    6    7 ar 
     8    7    8 ar 
     9    7   10 1  
    10    8    9 1  
    11   10   11 ar 
    12   10   15 ar 
    13   11   12 ar 
    14   12   13 ar 
    15   13   14 ar 
    16   14   15 ar 
    17   14   16 1  
    18   16   17 1  
    19   16   24 1  
    20   16   28 1  
    21   17   18 1  
    22   17   22 2  
    23   18   19 1  
    24   19   20 1  
    25   20   21 1  
    26   20   26 1  
    27   20   27 1  
    28   21   22 1  
    29   22   23 ar 
    30   23   24 ar 
    31   23   25 ar 
    32   28   29 ar 
    33   28   33 ar 
    34   29   30 ar 
    35   30   31 ar 
    36   31   32 ar 
    37   32   33 ar 
    38    1   34 1  
    39    1   35 1  
    40    1   36 1  
    41    4   37 1  
    42    5   38 1  
    43    6   39 1  
    44   11   40 1  
    45   12   41 1  
    46   13   42 1  
    47   15   43 1  
    48   18   44 1  
    49   19   45 1  
    50   19   46 1  
    51   21   47 1  
    52   21   48 1  
    53   24   49 1  
    54   25   50 1  
    55   25   51 1  
    56   29   52 1  
    57   30   53 1  
    58   32   54 1  
    59   33   55 1  
@<TRIPOS>SUBSTRUCTURE
     1 QN7         1

