### 
### Created by X-TOOL on Mon Sep 10 21:13:10 2018
### 

@<TRIPOS>MOLECULE
4acx_ligand
   54    57     1     0     0
SMALL
GAST_HUCK


@<TRIPOS>ATOM
      1 C1          2.0910   -3.0830  -17.2670 C.3       1 S8Z         0.0383
      2 O2          3.3560   -3.5730  -17.6880 O.3       1 S8Z        -0.3645
      3 C3          3.2650   -3.8510  -19.0790 C.3       1 S8Z         0.1327
      4 C4          3.9720   -2.8360  -19.8530 C.1       1 S8Z         0.0031
      5 C5          4.5550   -2.0000  -20.4840 C.1       1 S8Z         0.0259
      6 C6          5.2490   -1.0030  -21.2210 C.ar      1 S8Z         0.1161
      7 C7          6.1190   -1.3360  -22.2390 C.ar      1 S8Z         0.0296
      8 C8          6.7960   -0.3300  -22.9000 C.ar      1 S8Z         0.0114
      9 C9          6.5970    0.9880  -22.5400 C.ar      1 S8Z        -0.0002
     10 C10         5.7050    1.3310  -21.5390 C.ar      1 S8Z         0.0029
     11 C11         5.0440    0.3150  -20.8770 C.ar      1 S8Z         0.0143
     12 C12         5.4780    2.7600  -21.1240 C.3       1 S8Z         0.1168
     13 C13         6.3040    3.0030  -19.8920 C.2       1 S8Z         0.0978
     14 N14         7.5520    2.7400  -19.6670 N.2       1 S8Z        -0.2995
     15 C15         8.1670    3.0600  -18.3720 C.3       1 S8Z         0.0825
     16 C16         7.3630    4.0970  -17.6060 C.3       1 S8Z         0.2845
     17 C17         5.8770    3.7870  -17.6080 C.3       1 S8Z         0.1057
     18 N18         5.4370    3.5580  -18.9780 N.pl3     1 S8Z        -0.2624
     19 C19         4.1570    3.4310  -19.4440 C.cat     1 S8Z         0.1282
     20 N20         4.1130    2.9720  -20.6450 N.pl3     1 S8Z        -0.3864
     21 N21         3.0320    3.7510  -18.7270 N.pl3     1 S8Z        -0.3566
     22 F22         7.5650    5.3300  -18.1420 F         1 S8Z        -0.2017
     23 F23         7.8190    4.1630  -16.3270 F         1 S8Z        -0.2017
     24 C24         5.7530    3.7370  -22.2430 C.ar      1 S8Z        -0.0258
     25 C25         4.8400    3.8630  -23.2770 C.ar      1 S8Z        -0.0275
     26 C26         5.0710    4.7400  -24.3180 C.ar      1 S8Z         0.0263
     27 C27         6.2210    5.5080  -24.3260 C.ar      1 S8Z         0.1712
     28 C28         7.1430    5.3930  -23.3090 C.ar      1 S8Z         0.0263
     29 C29         6.9020    4.5100  -22.2770 C.ar      1 S8Z        -0.0275
     30 O30         6.5150    6.3990  -25.3470 O.3       1 S8Z        -0.2038
     31 C31         5.5030    7.0820  -26.0880 C.3       1 S8Z         0.3834
     32 F32         6.0270    8.2040  -26.6500 F         1 S8Z        -0.1697
     33 F33         5.0260    6.2700  -27.0690 F         1 S8Z        -0.1697
     34 H1          2.1251   -2.8566  -16.1911 H         1 S8Z         0.0524
     35 H2          1.3208   -3.8450  -17.4571 H         1 S8Z         0.0524
     36 H3          1.8474   -2.1679  -17.8267 H         1 S8Z         0.0524
     37 H4          2.2063   -3.8606  -19.3772 H         1 S8Z         0.0764
     38 H5          3.7117   -4.8357  -19.2808 H         1 S8Z         0.0764
     39 H6          6.2690   -2.3732  -22.5161 H         1 S8Z         0.1112
     40 H7          7.4836   -0.5751  -23.7014 H         1 S8Z         0.0836
     41 H8          7.1495    1.7684  -23.0507 H         1 S8Z         0.1226
     42 H9          4.3549    0.5579  -20.0763 H         1 S8Z         0.0972
     43 H10         9.1798    3.4523  -18.5461 H         1 S8Z         0.0481
     44 H11         8.2281    2.1413  -17.7702 H         1 S8Z         0.0481
     45 H12         5.3234    4.6362  -17.1810 H         1 S8Z         0.0630
     46 H13         5.6883    2.8862  -17.0056 H         1 S8Z         0.0630
     47 H14         3.2546    2.7842  -21.1824 H         1 S8Z         0.1497
     48 H15         3.1191    4.1156  -17.7676 H         1 S8Z         0.1642
     49 H16         2.1002    3.6267  -19.1481 H         1 S8Z         0.1642
     50 H17         3.9347    3.2668  -23.2688 H         1 S8Z         0.0851
     51 H18         4.3536    4.8262  -25.1261 H         1 S8Z         0.0790
     52 H19         8.0479    5.9898  -23.3196 H         1 S8Z         0.0790
     53 H20         7.6268    4.4191  -21.4760 H         1 S8Z         0.0851
     54 H21         4.6813    7.3605  -25.4118 H         1 S8Z         0.1471
@<TRIPOS>BOND
     1    1    2 1  
     2    2    3 1  
     3    3    4 1  
     4    4    5 3  
     5    5    6 1  
     6    6    7 ar 
     7    6   11 ar 
     8    7    8 ar 
     9    8    9 ar 
    10    9   10 ar 
    11   10   11 ar 
    12   10   12 1  
    13   12   13 1  
    14   12   20 1  
    15   12   24 1  
    16   13   14 2  
    17   13   18 1  
    18   14   15 1  
    19   15   16 1  
    20   16   17 1  
    21   16   22 1  
    22   16   23 1  
    23   17   18 1  
    24   18   19 ar 
    25   19   20 ar 
    26   19   21 ar 
    27   24   25 ar 
    28   24   29 ar 
    29   25   26 ar 
    30   26   27 ar 
    31   27   28 ar 
    32   27   30 1  
    33   28   29 ar 
    34   30   31 1  
    35   31   32 1  
    36   31   33 1  
    37    1   34 1  
    38    1   35 1  
    39    1   36 1  
    40    3   37 1  
    41    3   38 1  
    42    7   39 1  
    43    8   40 1  
    44    9   41 1  
    45   11   42 1  
    46   15   43 1  
    47   15   44 1  
    48   17   45 1  
    49   17   46 1  
    50   20   47 1  
    51   21   48 1  
    52   21   49 1  
    53   25   50 1  
    54   26   51 1  
    55   28   52 1  
    56   29   53 1  
    57   31   54 1  
@<TRIPOS>SUBSTRUCTURE
     1 S8Z         1

