### 
### Created by X-TOOL on Mon Sep 10 21:13:09 2018
### 

@<TRIPOS>MOLECULE
4ad2_ligand
   45    46     1     0     0
SMALL
GAST_HUCK


@<TRIPOS>ATOM
      1 C1        -46.7640   72.7020  -16.6000 C.3       1 GLC         0.1886
      2 C2        -46.2720   72.6240  -18.0430 C.3       1 GLC         0.1341
      3 C3        -44.8980   71.9770  -18.0530 C.3       1 GLC         0.1141
      4 C4        -43.9510   72.8050  -17.1810 C.3       1 GLC         0.1119
      5 C5        -44.4800   72.8870  -15.7490 C.3       1 GLC         0.1130
      6 C6        -43.6260   73.7910  -14.8370 C.3       1 GLC         0.0730
      7 O2        -47.1820   71.8870  -18.8240 O.3       1 GLC        -0.3841
      8 O3        -44.4620   71.9090  -19.3940 O.3       1 GLC        -0.3864
      9 O4        -42.7220   72.1450  -17.1270 O.3       1 GLC        -0.3865
     10 O5        -45.8140   73.3880  -15.7760 O.3       1 GLC        -0.3405
     11 O6        -44.1430   73.7550  -13.5090 O.3       1 GLC        -0.3924
     12 O4        -49.2800   69.6450  -15.8480 O.3       1 IFM        -0.3885
     13 C4        -48.4590   70.0040  -14.7040 C.3       1 IFM         0.0961
     14 C3        -47.8890   71.4220  -14.9190 C.3       1 IFM         0.1275
     15 O3        -47.0470   71.4020  -16.0600 O.3       1 IFM        -0.3376
     16 C2        -47.0430   71.8920  -13.7250 C.3       1 IFM        -0.0042
     17 N         -47.8090   71.7990  -12.4950 N.4       1 IFM         0.2292
     18 C1        -48.4040   70.4970  -12.2070 C.3       1 IFM        -0.0261
     19 C5        -49.2430   69.9740  -13.3900 C.3       1 IFM         0.0507
     20 C6        -49.8010   68.5950  -13.0350 C.3       1 IFM         0.0543
     21 O6        -48.7630   67.6200  -12.7980 O.3       1 IFM        -0.3945
     22 H1        -47.6999   73.2799  -16.5952 H         1 GLC         0.0938
     23 H2        -46.1936   73.6408  -18.4552 H         1 GLC         0.0671
     24 H3        -44.9628   70.9586  -17.6423 H         1 GLC         0.0648
     25 H4        -43.8336   73.8140  -17.6030 H         1 GLC         0.0647
     26 H5        -44.4841   71.8725  -15.3239 H         1 GLC         0.0647
     27 H6        -43.6561   74.8240  -15.2137 H         1 GLC         0.0584
     28 H7        -42.5864   73.4315  -14.8350 H         1 GLC         0.0584
     29 H8        -46.8694   71.8481  -19.7203 H         1 GLC         0.2101
     30 H9        -44.4166   72.7862  -19.7559 H         1 GLC         0.2100
     31 H10       -42.1240   72.6362  -16.5760 H         1 GLC         0.2100
     32 H11       -44.1165   72.8627  -13.1842 H         1 GLC         0.2095
     33 H12       -49.6338   68.7725  -15.7211 H         1 GLC         0.2099
     34 H13       -47.6279   69.2871  -14.6314 H         1 GLC         0.0626
     35 H14       -48.7202   72.1252  -15.0758 H         1 GLC         0.0677
     36 H15       -46.7393   72.9371  -13.8848 H         1 GLC         0.0840
     37 H16       -46.1476   71.2583  -13.6432 H         1 GLC         0.0840
     38 H17       -48.5554   72.4746  -12.5449 H         1 GLC         0.2014
     39 H18       -47.1946   72.0328  -11.7309 H         1 GLC         0.2014
     40 H19       -49.0535   70.5903  -11.3242 H         1 GLC         0.0818
     41 H20       -47.5995   69.7772  -11.9959 H         1 GLC         0.0818
     42 H21       -50.1005   70.6512  -13.5169 H         1 GLC         0.0401
     43 H22       -50.4300   68.2447  -13.8667 H         1 GLC         0.0562
     44 H23       -50.4130   68.6861  -12.1255 H         1 GLC         0.0562
     45 H24       -48.2174   67.9091  -12.0760 H         1 GLC         0.2094
@<TRIPOS>BOND
     1    1    2 1  
     2    1   10 1  
     3   15    1 1  
     4    2    3 1  
     5    2    7 1  
     6    3    4 1  
     7    3    8 1  
     8    5    4 1  
     9    4    9 1  
    10    5    6 1  
    11   10    5 1  
    12    6   11 1  
    13   13   12 1  
    14   14   13 1  
    15   13   19 1  
    16   14   15 1  
    17   14   16 1  
    18   16   17 1  
    19   17   18 1  
    20   18   19 1  
    21   19   20 1  
    22   20   21 1  
    23    1   22 1  
    24    2   23 1  
    25    3   24 1  
    26    4   25 1  
    27    5   26 1  
    28    6   27 1  
    29    6   28 1  
    30    7   29 1  
    31    8   30 1  
    32    9   31 1  
    33   11   32 1  
    34   12   33 1  
    35   13   34 1  
    36   14   35 1  
    37   16   36 1  
    38   16   37 1  
    39   17   38 1  
    40   17   39 1  
    41   18   40 1  
    42   18   41 1  
    43   19   42 1  
    44   20   43 1  
    45   20   44 1  
    46   21   45 1  
@<TRIPOS>SUBSTRUCTURE
     1 GLC         1

