### 
### Created by X-TOOL on Mon Sep 10 21:13:09 2018
### 

@<TRIPOS>MOLECULE
4ad3_ligand
   46    47     1     0     0
SMALL
GAST_HUCK


@<TRIPOS>ATOM
      1 C1        -46.3170   72.0340  -16.4710 C.3       1 GLC         0.1884
      2 C2        -45.8050   71.8810  -17.9130 C.3       1 GLC         0.1341
      3 C3        -44.3820   71.3380  -17.8940 C.3       1 GLC         0.1141
      4 C4        -43.4710   72.2220  -17.0500 C.3       1 GLC         0.1119
      5 C5        -44.0630   72.3520  -15.6500 C.3       1 GLC         0.1130
      6 C6        -43.1980   73.2550  -14.7710 C.3       1 GLC         0.0730
      7 O2        -46.6080   70.9580  -18.6040 O.3       1 GLC        -0.3841
      8 O3        -43.8770   71.2700  -19.2020 O.3       1 GLC        -0.3864
      9 O4        -42.2080   71.5990  -16.9940 O.3       1 GLC        -0.3865
     10 O5        -45.3980   72.8520  -15.7540 O.3       1 GLC        -0.3405
     11 O6        -43.7040   73.3350  -13.4540 O.3       1 GLC        -0.3924
     12 C4        -48.0150   69.3750  -14.6350 C.3       1 DMJ         0.1284
     13 O4        -48.8360   69.1190  -15.7970 O.3       1 DMJ        -0.3834
     14 C3        -47.3110   70.7340  -14.7770 C.3       1 DMJ         0.1236
     15 O3        -46.4760   70.7000  -15.9460 O.3       1 DMJ        -0.3399
     16 C2        -46.4880   71.0730  -13.5210 C.3       1 DMJ         0.1234
     17 O2        -45.5100   70.0390  -13.3110 O.3       1 DMJ        -0.3838
     18 C1        -47.3770   71.0690  -12.2870 C.3       1 DMJ        -0.0040
     19 N5        -47.9720   69.7500  -12.2200 N.4       1 DMJ         0.2346
     20 C5        -48.8340   69.3510  -13.3400 C.3       1 DMJ         0.0301
     21 C6        -49.5000   68.0190  -13.0330 C.3       1 DMJ         0.0893
     22 O6        -48.5090   66.9930  -12.8550 O.3       1 DMJ        -0.3894
     23 H1        -47.2977   72.5322  -16.4706 H         1 GLC         0.0938
     24 H2        -45.8299   72.8565  -18.4207 H         1 GLC         0.0671
     25 H3        -44.3962   70.3267  -17.4615 H         1 GLC         0.0648
     26 H4        -43.3781   73.2184  -17.5065 H         1 GLC         0.0647
     27 H5        -44.0973   71.3541  -15.1884 H         1 GLC         0.0647
     28 H6        -43.1767   74.2644  -15.2075 H         1 GLC         0.0584
     29 H7        -42.1765   72.8485  -14.7372 H         1 GLC         0.0584
     30 H8        -47.5031   71.2753  -18.6294 H         1 GLC         0.2101
     31 H9        -43.8458   72.1436  -19.5740 H         1 GLC         0.2100
     32 H10       -41.6225   72.1202  -16.4573 H         1 GLC         0.2100
     33 H11       -43.7207   72.4666  -13.0691 H         1 GLC         0.2095
     34 H12       -47.2500   68.5870  -14.5741 H         1 GLC         0.0678
     35 H13       -49.2666   68.2777  -15.7000 H         1 GLC         0.2102
     36 H14       -48.0744   71.5147  -14.9097 H         1 GLC         0.0653
     37 H15       -46.0021   72.0523  -13.6432 H         1 GLC         0.0674
     38 H16       -44.9979   70.2415  -12.5370 H         1 GLC         0.2101
     39 H17       -48.1601   71.8360  -12.3790 H         1 GLC         0.0840
     40 H18       -46.7779   71.2630  -11.3851 H         1 GLC         0.0840
     41 H19       -48.5268   69.7087  -11.3794 H         1 GLC         0.2019
     42 H20       -47.2212   69.0801  -12.1603 H         1 GLC         0.2019
     43 H21       -49.6344   70.0984  -13.4438 H         1 GLC         0.0900
     44 H22       -50.1612   67.7434  -13.8677 H         1 GLC         0.0614
     45 H23       -50.0930   68.1140  -12.1114 H         1 GLC         0.0614
     46 H24       -47.9378   67.2278  -12.1331 H         1 GLC         0.2097
@<TRIPOS>BOND
     1    1    2 1  
     2    1   10 1  
     3   15    1 1  
     4    2    3 1  
     5    2    7 1  
     6    3    4 1  
     7    3    8 1  
     8    5    4 1  
     9    4    9 1  
    10    5    6 1  
    11   10    5 1  
    12    6   11 1  
    13   12   13 1  
    14   14   12 1  
    15   12   20 1  
    16   14   15 1  
    17   14   16 1  
    18   16   17 1  
    19   16   18 1  
    20   18   19 1  
    21   19   20 1  
    22   20   21 1  
    23   21   22 1  
    24    1   23 1  
    25    2   24 1  
    26    3   25 1  
    27    4   26 1  
    28    5   27 1  
    29    6   28 1  
    30    6   29 1  
    31    7   30 1  
    32    8   31 1  
    33    9   32 1  
    34   11   33 1  
    35   12   34 1  
    36   13   35 1  
    37   14   36 1  
    38   16   37 1  
    39   17   38 1  
    40   18   39 1  
    41   18   40 1  
    42   19   41 1  
    43   19   42 1  
    44   20   43 1  
    45   21   44 1  
    46   21   45 1  
    47   22   46 1  
@<TRIPOS>SUBSTRUCTURE
     1 GLC         1

