### 
### Created by X-TOOL on Mon Sep 10 21:13:15 2018
### 

@<TRIPOS>MOLECULE
4ad6_ligand
   25    26     1     0     0
SMALL
GAST_HUCK


@<TRIPOS>ATOM
      1 O15         1.8940    2.1560   12.4740 O.3       1 GSY        -0.3921
      2 C14         1.2690    1.0340   11.8920 C.3       1 GSY         0.0745
      3 C13         0.4050    0.3810   12.9620 C.3       1 GSY         0.1046
      4 N7          1.3000   -0.5860   13.6790 N.pl3     1 GSY        -0.1339
      5 C5          1.7310   -1.7150   13.0950 C.2       1 GSY         0.3040
      6 C6          1.5560   -2.3020   11.8240 C.2       1 GSY         0.3015
      7 O11         0.8490   -1.8090   10.9160 O.2       1 GSY        -0.3429
      8 N1          2.1540   -3.5330   11.5800 N.am      1 GSY        -0.2440
      9 C2          2.9290   -4.1040   12.6240 C.cat     1 GSY         0.1928
     10 N2          3.4840   -5.2730   12.4900 N.pl3     1 GSY        -0.3352
     11 N3          3.0560   -3.5200   13.8020 N.pl3     1 GSY        -0.2262
     12 C4          2.4840   -2.3530   14.0680 C.2       1 GSY         0.2584
     13 N9          2.4620   -1.5880   15.1750 N.2       1 GSY        -0.1893
     14 C8          1.7350   -0.5350   14.9270 C.2       1 GSY         0.2562
     15 S10         1.4910    0.7360   16.1740 S.3       1 GSY        -0.0103
     16 H1          2.4412    2.5838   11.8260 H         1 GSY         0.2095
     17 H2          2.0297    0.3224   11.5385 H         1 GSY         0.0587
     18 H3          0.6419    1.3510   11.0457 H         1 GSY         0.0587
     19 H4         -0.4401   -0.1503   12.4999 H         1 GSY         0.0670
     20 H5          0.0232    1.1395   13.6611 H         1 GSY         0.0670
     21 H6          2.0426   -3.9990   10.7022 H         1 GSY         0.1822
     22 H7          4.0423   -5.6693   13.2595 H         1 GSY         0.1763
     23 H8          3.3651   -5.8022   11.6144 H         1 GSY         0.1763
     24 H9          3.6140   -3.9831   14.5335 H         1 GSY         0.2370
     25 H10         1.0484    0.3302   16.9835 H         1 GSY         0.1493
@<TRIPOS>BOND
     1    1    2 1  
     2    2    3 1  
     3    3    4 1  
     4    4    5 1  
     5    4   14 1  
     6    5    6 1  
     7    5   12 2  
     8    6    7 2  
     9    6    8 am 
    10    8    9 ar 
    11    9   10 ar 
    12    9   11 ar 
    13   11   12 1  
    14   12   13 1  
    15   13   14 2  
    16   14   15 1  
    17    1   16 1  
    18    2   17 1  
    19    2   18 1  
    20    3   19 1  
    21    3   20 1  
    22    8   21 1  
    23   10   22 1  
    24   10   23 1  
    25   11   24 1  
    26   15   25 1  
@<TRIPOS>SUBSTRUCTURE
     1 GSY         1

