### 
### Created by X-TOOL on Mon Sep 10 21:13:10 2018
### 

@<TRIPOS>MOLECULE
4ael_ligand
   45    48     1     0     0
SMALL
GAST_HUCK


@<TRIPOS>ATOM
      1 C1         22.7220   15.3450   40.6380 C.1       1 4HN         0.0932
      2 C2         21.9600   14.6330   32.4610 C.ar      1 4HN        -0.0710
      3 C3         21.2150   13.4900   32.2500 C.ar      1 4HN        -0.0693
      4 C4         21.9070   15.2760   33.6850 C.ar      1 4HN        -0.0605
      5 C5         20.0180   15.9820   36.6550 C.ar      1 4HN        -0.0520
      6 C6         22.3560   15.6490   36.6550 C.ar      1 4HN        -0.0520
      7 C7         20.0930   16.5930   37.8900 C.ar      1 4HN        -0.0487
      8 C8         22.4300   16.2610   37.8800 C.ar      1 4HN        -0.0487
      9 C9         20.4220   13.0050   33.2720 C.ar      1 4HN        -0.0303
     10 C10        20.3500   20.2640   41.6060 C.ar      1 4HN        -0.0193
     11 C11        20.4770   20.8010   42.8720 C.ar      1 4HN         0.0118
     12 C12        21.7090   19.0520   43.6010 C.ar      1 4HN         0.0315
     13 C13        22.1170   16.6280   40.8820 C.ar      1 4HN         0.1600
     14 C14        21.6090   18.4360   42.3650 C.ar      1 4HN         0.0798
     15 C15        21.1440   15.4870   36.0220 C.ar      1 4HN        -0.0175
     16 C16        21.3100   16.7350   38.5370 C.ar      1 4HN         0.0039
     17 C17        21.1210   14.8010   34.7290 C.ar      1 4HN         0.0156
     18 C18        20.9250   19.0410   41.3220 C.ar      1 4HN         0.0545
     19 C19        20.3910   13.6420   34.5050 C.ar      1 4HN         0.1031
     20 C20        22.1880   17.2100   42.1330 C.ar      1 4HN         0.1688
     21 C21        21.4340   17.2990   39.8830 C.ar      1 4HN         0.0707
     22 C22        20.1110   12.0570   37.5630 C.3       1 4HN        -0.0369
     23 C23        20.1120   11.9400   36.0520 C.3       1 4HN         0.0688
     24 N24        23.2020   14.3090   40.4230 N.1       1 4HN        -0.3427
     25 N25        21.1500   20.2340   43.8830 N.ar      1 4HN        -0.2924
     26 N26        20.8330   18.4780   40.1020 N.ar      1 4HN        -0.2973
     27 O27        22.8500   16.5950   43.1800 O.3       1 4HN        -0.3009
     28 O28        19.5650   13.1340   35.5040 O.3       1 4HN        -0.3149
     29 H1         22.5860   15.0264   31.6683 H         1 4HN         0.0529
     30 H2         21.2518   12.9795   31.2944 H         1 4HN         0.0598
     31 H3         22.4944   16.1748   33.8341 H         1 4HN         0.0601
     32 H4         19.0536   15.8877   36.1692 H         1 4HN         0.0617
     33 H5         23.2614   15.2889   36.1799 H         1 4HN         0.0617
     34 H6         19.1898   16.9660   38.3592 H         1 4HN         0.0656
     35 H7         23.4003   16.3770   38.3493 H         1 4HN         0.0656
     36 H8         19.8186   12.1192   33.1096 H         1 4HN         0.0545
     37 H9         19.8019   20.7996   40.8393 H         1 4HN         0.0711
     38 H10        19.9958   21.7535   43.0626 H         1 4HN         0.0827
     39 H11        22.2698   18.5500   44.3811 H         1 4HN         0.0920
     40 H12        20.5316   11.1403   38.0020 H         1 4HN         0.0256
     41 H13        19.0795   12.1944   37.9195 H         1 4HN         0.0256
     42 H14        20.7213   12.9212   37.8643 H         1 4HN         0.0256
     43 H15        19.5006   11.0781   35.7466 H         1 4HN         0.0614
     44 H16        21.1424   11.8049   35.6914 H         1 4HN         0.0614
     45 H17        22.2424   16.4498   43.8957 H         1 4HN         0.2654
@<TRIPOS>BOND
     1   13    1 1  
     2    1   24 3  
     3    3    2 ar 
     4    4    2 ar 
     5    9    3 ar 
     6   17    4 ar 
     7    5    7 ar 
     8   15    5 ar 
     9    6    8 ar 
    10   15    6 ar 
    11    7   16 ar 
    12    8   16 ar 
    13   19    9 ar 
    14   10   11 ar 
    15   18   10 ar 
    16   11   25 ar 
    17   14   12 ar 
    18   12   25 ar 
    19   13   20 ar 
    20   21   13 ar 
    21   18   14 ar 
    22   20   14 ar 
    23   17   15 1  
    24   16   21 1  
    25   19   17 ar 
    26   26   18 ar 
    27   28   19 1  
    28   20   27 1  
    29   21   26 ar 
    30   23   22 1  
    31   23   28 1  
    32    2   29 1  
    33    3   30 1  
    34    4   31 1  
    35    5   32 1  
    36    6   33 1  
    37    7   34 1  
    38    8   35 1  
    39    9   36 1  
    40   10   37 1  
    41   11   38 1  
    42   12   39 1  
    43   22   40 1  
    44   22   41 1  
    45   22   42 1  
    46   23   43 1  
    47   23   44 1  
    48   27   45 1  
@<TRIPOS>SUBSTRUCTURE
     1 4HN         1

