### 
### Created by X-TOOL on Mon Sep 10 21:13:09 2018
### 

@<TRIPOS>MOLECULE
4afg_ligand
   30    33     1     0     0
SMALL
GAST_HUCK


@<TRIPOS>ATOM
      1 C01        46.4010   -4.1070   13.8550 C.3       1 QMR        -0.0204
      2 N02        44.9110   -4.2010   13.9650 N.4       1 QMR         0.2304
      3 C03        44.1410   -3.2140   13.0450 C.3       1 QMR        -0.0204
      4 C04        44.8150   -1.9330   12.9480 C.3       1 QMR         0.0382
      5 C05        46.2280   -2.1000   12.5880 C.3       1 QMR        -0.0171
      6 C06        46.8960   -2.7320   13.7010 C.3       1 QMR         0.0382
      7 C07        46.2420   -1.9610   14.6730 C.ar      1 QMR        -0.0173
      8 C08        46.6940   -1.6410   15.9850 C.ar      1 QMR        -0.0333
      9 C09        45.8900   -0.8330   16.8420 C.ar      1 QMR         0.0623
     10 N10        46.3530   -0.5080   18.1260 N.ar      1 QMR        -0.2774
     11 C11        45.5860    0.2470   18.9370 C.ar      1 QMR         0.0376
     12 C12        44.3510    0.7350   18.5270 C.ar      1 QMR         0.0376
     13 N13        43.9070    0.4430   17.2880 N.ar      1 QMR        -0.2774
     14 C14        44.6970   -0.3640   16.4370 C.ar      1 QMR         0.0623
     15 C15        44.2240   -0.6500   15.1330 C.ar      1 QMR        -0.0333
     16 C16        45.0140   -1.4680   14.2640 C.ar      1 QMR        -0.0173
     17 H1         46.7223   -4.6918   12.9805 H         1 QMR         0.0841
     18 H2         46.8443   -4.5357   14.7659 H         1 QMR         0.0841
     19 H3         44.6519   -4.0102   14.9203 H         1 QMR         0.2017
     20 H4         44.6347   -5.1397   13.7229 H         1 QMR         0.2017
     21 H5         43.1331   -3.0561   13.4563 H         1 QMR         0.0841
     22 H6         44.0621   -3.6522   12.0391 H         1 QMR         0.0841
     23 H7         44.2724   -1.2351   12.2935 H         1 QMR         0.0523
     24 H8         46.6817   -1.1181   12.3881 H         1 QMR         0.0320
     25 H9         46.3136   -2.7327   11.6922 H         1 QMR         0.0320
     26 H10        47.9941   -2.6684   13.6908 H         1 QMR         0.0523
     27 H11        47.6511   -2.0123   16.3330 H         1 QMR         0.0575
     28 H12        45.9413    0.4796   19.9344 H         1 QMR         0.0919
     29 H13        43.7520    1.3430   19.1953 H         1 QMR         0.0919
     30 H14        43.2730   -0.2533   14.7965 H         1 QMR         0.0575
@<TRIPOS>BOND
     1    1    2 1  
     2    1    6 1  
     3    2    3 1  
     4    3    4 1  
     5    4    5 1  
     6    4   16 1  
     7    5    6 1  
     8    6    7 1  
     9    7    8 ar 
    10    7   16 ar 
    11    8    9 ar 
    12    9   10 ar 
    13    9   14 ar 
    14   10   11 ar 
    15   11   12 ar 
    16   12   13 ar 
    17   13   14 ar 
    18   14   15 ar 
    19   15   16 ar 
    20    1   17 1  
    21    1   18 1  
    22    2   19 1  
    23    2   20 1  
    24    3   21 1  
    25    3   22 1  
    26    4   23 1  
    27    5   24 1  
    28    5   25 1  
    29    6   26 1  
    30    8   27 1  
    31   11   28 1  
    32   12   29 1  
    33   15   30 1  
@<TRIPOS>SUBSTRUCTURE
     1 QMR         1

