### 
### Created by X-TOOL on Mon Sep 10 21:13:09 2018
### 

@<TRIPOS>MOLECULE
4afh_ligand
   53    55     1     0     0
SMALL
GAST_HUCK


@<TRIPOS>ATOM
      1 O1        -44.1380  110.1400   16.2770 O.2       1 L0B        -0.3782
      2 C3        -45.3000  110.4800   16.4450 C.2       1 L0B         0.1383
      3 C21       -45.1260  119.1780   10.1170 C.ar      1 L0B        -0.0687
      4 C10       -46.1550  118.6720   10.9040 C.ar      1 L0B        -0.0685
      5 C19       -45.9520  117.5170   11.6690 C.ar      1 L0B        -0.0579
      6 C17       -44.7160  116.8720   11.6440 C.ar      1 L0B        -0.0146
      7 C18       -43.6920  117.3810   10.8510 C.ar      1 L0B        -0.0579
      8 C20       -43.8850  118.5410   10.0870 C.ar      1 L0B        -0.0685
      9 C14       -44.9980  114.4550   11.6130 C.3       1 L0B         0.0263
     10 C11       -44.7910  113.0680   12.2620 C.3       1 L0B        -0.0165
     11 C13       -45.1510  111.9430   11.2770 C.3       1 L0B        -0.0092
     12 C15       -44.8360  110.5940   11.9160 C.3       1 L0B        -0.0427
     13 C12       -45.6040  110.4630   13.2300 C.3       1 L0B        -0.0073
     14 C9        -45.2250  111.6060   14.1740 C.3       1 L0B        -0.0056
     15 N1        -45.5070  112.9310   13.5560 N.4       1 L0B         0.2392
     16 C22       -46.9630  113.1440   13.4240 C.3       1 L0B        -0.0424
     17 C8        -45.9880  111.4600   15.5030 C.3       1 L0B         0.0655
     18 C16       -44.4980  115.6340   12.4440 C.3       1 L0B         0.0941
     19 O2        -45.2500  115.6990   13.6510 O.3       1 L0B        -0.3791
     20 C4        -47.2920  110.4570   17.9870 C.ar      1 L0B        -0.0430
     21 C1        -46.0810  109.8910   17.5930 C.ar      1 L0B         0.0328
     22 C2        -45.5810  108.7730   18.2650 C.ar      1 L0B        -0.0430
     23 C5        -46.2980  108.2150   19.3180 C.ar      1 L0B        -0.0559
     24 C6        -47.5030  108.7860   19.7130 C.ar      1 L0B        -0.0572
     25 C7        -48.0060  109.9000   19.0470 C.ar      1 L0B        -0.0559
     26 H1        -45.2888  120.0710    9.5244 H         1 L0B         0.0559
     27 H2        -47.1161  119.1728   10.9252 H         1 L0B         0.0599
     28 H3        -46.7559  117.1241   12.2809 H         1 L0B         0.0557
     29 H4        -42.7338  116.8748   10.8235 H         1 L0B         0.0557
     30 H5        -43.0794  118.9382    9.4802 H         1 L0B         0.0599
     31 H6        -46.0751  114.5930   11.4375 H         1 L0B         0.0367
     32 H7        -44.4654  114.4650   10.6506 H         1 L0B         0.0367
     33 H8        -43.7175  112.9731   12.4824 H         1 L0B         0.0854
     34 H9        -44.5623  112.0593   10.3551 H         1 L0B         0.0320
     35 H10       -46.2231  111.9943   11.0364 H         1 L0B         0.0320
     36 H11       -43.7561  110.5248   12.1137 H         1 L0B         0.0269
     37 H12       -45.1364  109.7855   11.2333 H         1 L0B         0.0269
     38 H13       -45.3547  109.5019   13.7034 H         1 L0B         0.0321
     39 H14       -46.6842  110.5021   13.0260 H         1 L0B         0.0321
     40 H15       -44.1464  111.5435   14.3804 H         1 L0B         0.0877
     41 H16       -45.1519  113.6428   14.1752 H         1 L0B         0.2038
     42 H17       -47.1498  114.1266   12.9662 H         1 L0B         0.0778
     43 H18       -47.4305  113.1083   14.4190 H         1 L0B         0.0778
     44 H19       -47.3928  112.3558   12.7884 H         1 L0B         0.0778
     45 H20       -46.0439  112.4440   15.9915 H         1 L0B         0.0541
     46 H21       -47.0047  111.0971   15.2919 H         1 L0B         0.0541
     47 H22       -43.4291  115.5143   12.6745 H         1 L0B         0.0759
     48 H23       -44.9445  116.4308   14.1741 H         1 L0B         0.2130
     49 H24       -47.6779  111.3284   17.4704 H         1 L0B         0.0672
     50 H25       -44.6334  108.3400   17.9655 H         1 L0B         0.0672
     51 H26       -45.9187  107.3376   19.8293 H         1 L0B         0.0630
     52 H27       -48.0537  108.3611   20.5444 H         1 L0B         0.0655
     53 H28       -48.9514  110.3338   19.3521 H         1 L0B         0.0630
@<TRIPOS>BOND
     1    2    1 2  
     2   17    2 1  
     3    2   21 1  
     4    4    3 ar 
     5    8    3 ar 
     6    5    4 ar 
     7    6    5 ar 
     8    6    7 ar 
     9   18    6 1  
    10    7    8 ar 
    11   10    9 1  
    12    9   18 1  
    13   10   11 1  
    14   15   10 1  
    15   12   11 1  
    16   13   12 1  
    17   14   13 1  
    18   14   15 1  
    19   14   17 1  
    20   15   16 1  
    21   18   19 1  
    22   21   20 ar 
    23   20   25 ar 
    24   21   22 ar 
    25   22   23 ar 
    26   23   24 ar 
    27   24   25 ar 
    28    3   26 1  
    29    4   27 1  
    30    5   28 1  
    31    7   29 1  
    32    8   30 1  
    33    9   31 1  
    34    9   32 1  
    35   10   33 1  
    36   11   34 1  
    37   11   35 1  
    38   12   36 1  
    39   12   37 1  
    40   13   38 1  
    41   13   39 1  
    42   14   40 1  
    43   15   41 1  
    44   16   42 1  
    45   16   43 1  
    46   16   44 1  
    47   17   45 1  
    48   17   46 1  
    49   18   47 1  
    50   19   48 1  
    51   20   49 1  
    52   22   50 1  
    53   23   51 1  
    54   24   52 1  
    55   25   53 1  
@<TRIPOS>SUBSTRUCTURE
     1 L0B         1

