### 
### Created by X-TOOL on Mon Sep 10 21:13:09 2018
### 

@<TRIPOS>MOLECULE
4afj_ligand
   38    40     1     0     0
SMALL
GAST_HUCK


@<TRIPOS>ATOM
      1 C5        101.3010   24.7550  -10.5850 C.ar      1 SJJ        -0.0575
      2 C7        103.5570   24.8720  -11.3080 C.ar      1 SJJ        -0.0575
      3 C4        101.5420   23.5290   -9.9970 C.ar      1 SJJ        -0.0304
      4 C8        103.8190   23.6480  -10.7190 C.ar      1 SJJ        -0.0304
      5 C19       106.2320   30.1010  -15.2860 C.ar      1 SJJ        -0.0305
      6 C23       107.7230   28.7750  -13.9870 C.ar      1 SJJ        -0.0305
      7 C20       107.0300   29.8400  -16.3820 C.ar      1 SJJ         0.0031
      8 C22       108.4470   28.5700  -15.1440 C.ar      1 SJJ         0.0031
      9 C11       100.5140   28.1870  -12.4960 C.2       1 SJJ         0.1668
     10 C6        102.2960   25.4340  -11.2560 C.ar      1 SJJ         0.0127
     11 C18       106.5920   29.5580  -14.0690 C.ar      1 SJJ        -0.0012
     12 C3        102.7970   22.9690  -10.0760 C.ar      1 SJJ         0.0933
     13 C9        101.9570   26.6920  -11.9020 C.2       1 SJJ         0.1609
     14 C13       102.5900   27.7600  -12.4980 C.2       1 SJJ         0.1147
     15 C14       104.0260   28.0820  -12.6840 C.2       1 SJJ         0.1976
     16 C1        104.2920   21.2820   -9.5980 C.3       1 SJJ         0.0601
     17 C17       105.7780   29.8150  -12.8560 C.3       1 SJJ         0.0704
     18 N21       108.1340   29.0840  -16.3410 N.ar      1 SJJ        -0.3066
     19 N12       101.6580   28.6970  -12.8650 N.2       1 SJJ        -0.2883
     20 N16       104.3900   29.3370  -13.0880 N.am      1 SJJ        -0.2765
     21 O15       104.8680   27.2400  -12.4010 O.2       1 SJJ        -0.3973
     22 O10       100.6240   26.9710  -11.9080 O.3       1 SJJ        -0.2214
     23 O2        102.9420   21.7240   -9.4640 O.3       1 SJJ        -0.3195
     24 H1        100.3112   25.1917  -10.5178 H         1 SJJ         0.0605
     25 H2        104.3546   25.3991  -11.8190 H         1 SJJ         0.0605
     26 H3        100.7462   23.0097   -9.4754 H         1 SJJ         0.0551
     27 H4        104.8157   23.2238  -10.7603 H         1 SJJ         0.0551
     28 H5        105.3449   30.7170  -15.3788 H         1 SJJ         0.0652
     29 H6        108.0334   28.3352  -13.0461 H         1 SJJ         0.0652
     30 H7        106.7452   30.2737  -17.3338 H         1 SJJ         0.0803
     31 H8        109.3327   27.9483  -15.0796 H         1 SJJ         0.0803
     32 H9         99.5608   28.6916  -12.6467 H         1 SJJ         0.1409
     33 H10       104.4060   20.3002   -9.1153 H         1 SJJ         0.0579
     34 H11       104.9648   22.0073   -9.1171 H         1 SJJ         0.0579
     35 H12       104.5460   21.1977  -10.6649 H         1 SJJ         0.0579
     36 H13       105.7647   30.8942  -12.6438 H         1 SJJ         0.0708
     37 H14       106.2135   29.2784  -12.0002 H         1 SJJ         0.0708
     38 H15       103.7239   29.9315  -13.5384 H         1 SJJ         0.1865
@<TRIPOS>BOND
     1    1    3 ar 
     2   10    1 ar 
     3    2    4 ar 
     4   10    2 ar 
     5    3   12 ar 
     6    4   12 ar 
     7    5    7 ar 
     8   11    5 ar 
     9    6    8 ar 
    10   11    6 ar 
    11    7   18 ar 
    12    8   18 ar 
    13   19    9 2  
    14    9   22 1  
    15   13   10 1  
    16   17   11 1  
    17   12   23 1  
    18   14   13 2  
    19   13   22 1  
    20   15   14 1  
    21   14   19 1  
    22   20   15 am 
    23   15   21 2  
    24   23   16 1  
    25   17   20 1  
    26    1   24 1  
    27    2   25 1  
    28    3   26 1  
    29    4   27 1  
    30    5   28 1  
    31    6   29 1  
    32    7   30 1  
    33    8   31 1  
    34    9   32 1  
    35   16   33 1  
    36   16   34 1  
    37   16   35 1  
    38   17   36 1  
    39   17   37 1  
    40   20   38 1  
@<TRIPOS>SUBSTRUCTURE
     1 SJJ         1

