### 
### Created by X-TOOL on Mon Sep 10 21:13:10 2018
### 

@<TRIPOS>MOLECULE
4aft_ligand
   30    33     1     0     0
SMALL
GAST_HUCK


@<TRIPOS>ATOM
      1 C01       -29.4400  -88.9840   28.8380 C.3       1 QMR        -0.0204
      2 N02       -28.2800  -88.2420   29.3830 N.4       1 QMR         0.2304
      3 C03       -28.7240  -87.2680   30.4060 C.3       1 QMR        -0.0204
      4 C04       -29.7800  -86.3440   29.8250 C.3       1 QMR         0.0382
      5 C05       -30.9860  -87.2240   29.5150 C.3       1 QMR        -0.0171
      6 C06       -30.4940  -88.0170   28.3130 C.3       1 QMR         0.0382
      7 C07       -29.8090  -86.9730   27.5410 C.ar      1 QMR        -0.0173
      8 C08       -29.5360  -86.8860   26.1890 C.ar      1 QMR        -0.0333
      9 C09       -28.8310  -85.7630   25.7580 C.ar      1 QMR         0.0623
     10 N10       -28.5350  -85.5920   24.4560 N.ar      1 QMR        -0.2774
     11 C11       -27.8540  -84.5040   24.0580 C.ar      1 QMR         0.0376
     12 C12       -27.4350  -83.5240   24.9620 C.ar      1 QMR         0.0376
     13 N13       -27.7010  -83.6370   26.2690 N.ar      1 QMR        -0.2774
     14 C14       -28.3800  -84.7110   26.7240 C.ar      1 QMR         0.0623
     15 C15       -28.6570  -84.8350   28.0770 C.ar      1 QMR        -0.0333
     16 C16       -29.3640  -85.9470   28.4800 C.ar      1 QMR        -0.0173
     17 H         -29.8784  -89.5883   29.6322 H         1 QMR         0.0841
     18 H         -29.1014  -89.6176   28.0182 H         1 QMR         0.0841
     19 H         -27.8206  -87.7396   28.6234 H         1 QMR         0.2017
     20 H         -27.6346  -88.9044   29.8132 H         1 QMR         0.2017
     21 H         -27.8688  -86.6746   30.7293 H         1 QMR         0.0841
     22 H         -29.1482  -87.8076   31.2528 H         1 QMR         0.0841
     23 H         -29.9527  -85.5076   30.5023 H         1 QMR         0.0523
     24 H         -31.8959  -86.6574   29.3169 H         1 QMR         0.0320
     25 H         -31.2907  -87.8516   30.3525 H         1 QMR         0.0320
     26 H         -31.2565  -88.5627   27.7573 H         1 QMR         0.0523
     27 H         -29.8571  -87.6598   25.4917 H         1 QMR         0.0575
     28 H         -27.6218  -84.3824   23.0000 H         1 QMR         0.0919
     29 H         -26.8845  -82.6565   24.5981 H         1 QMR         0.0919
     30 H         -28.3284  -84.0824   28.7937 H         1 QMR         0.0575
@<TRIPOS>BOND
     1    1    2 1  
     2    1    6 1  
     3    2    3 1  
     4    3    4 1  
     5    4    5 1  
     6    4   16 1  
     7    5    6 1  
     8    6    7 1  
     9    7    8 ar 
    10    7   16 ar 
    11    8    9 ar 
    12    9   10 ar 
    13    9   14 ar 
    14   10   11 ar 
    15   11   12 ar 
    16   12   13 ar 
    17   13   14 ar 
    18   14   15 ar 
    19   15   16 ar 
    20    1   17 1  
    21    1   18 1  
    22    2   19 1  
    23    2   20 1  
    24    3   21 1  
    25    3   22 1  
    26    4   23 1  
    27    5   24 1  
    28    5   25 1  
    29    6   26 1  
    30    8   27 1  
    31   11   28 1  
    32   12   29 1  
    33   15   30 1  
@<TRIPOS>SUBSTRUCTURE
     1 QMR         1

