### 
### Created by X-TOOL on Mon Sep 10 21:13:10 2018
### 

@<TRIPOS>MOLECULE
4ag8_ligand
   46    49     1     0     0
SMALL
GAST_HUCK


@<TRIPOS>ATOM
      1 O81        24.8310   23.4700   35.7940 O.2       1 AXI        -0.3884
      2 C80        25.4990   22.8060   36.6100 C.2       1 AXI         0.2009
      3 N82        26.4150   21.9160   36.1840 N.am      1 AXI        -0.2903
      4 C88        26.7820   21.7270   34.7830 C.3       1 AXI         0.0189
      5 C23        25.2920   23.0320   38.0660 C.ar      1 AXI         0.0639
      6 C22        26.4560   22.9970   38.8890 C.ar      1 AXI        -0.0473
      7 C21        26.4090   23.2000   40.2910 C.ar      1 AXI        -0.0628
      8 C20        25.1560   23.4620   40.8850 C.ar      1 AXI        -0.0630
      9 C18        24.0180   23.2980   38.6740 C.ar      1 AXI         0.0505
     10 C19        23.9820   23.4920   40.0940 C.ar      1 AXI        -0.0416
     11 S24        22.5100   23.3470   37.7880 S.3       1 AXI        -0.0405
     12 C07        21.4890   24.5480   38.5260 C.ar      1 AXI         0.0240
     13 C08        20.1230   24.2590   38.7960 C.ar      1 AXI        -0.0554
     14 C09        19.2570   25.2390   39.3920 C.ar      1 AXI        -0.0658
     15 C12        22.0200   25.8320   38.8650 C.ar      1 AXI        -0.0205
     16 C11        21.1780   26.7750   39.4500 C.ar      1 AXI         0.0863
     17 N15        21.4300   28.0760   39.8550 N.pl3     1 AXI        -0.2114
     18 N14        20.3390   28.5970   40.3060 N.2       1 AXI        -0.1947
     19 C13        19.3710   27.7550   40.2740 C.2       1 AXI         0.0609
     20 C10        19.8440   26.5040   39.7110 C.ar      1 AXI         0.0144
     21 C16        18.0180   28.1340   40.7130 C.2       1 AXI        -0.0397
     22 C17        16.8850   27.3250   40.8080 C.2       1 AXI        -0.0391
     23 C02        15.5470   27.8250   41.2730 C.ar      1 AXI         0.0395
     24 N03        14.5760   26.8900   41.3370 N.ar      1 AXI        -0.2976
     25 C04        13.3190   27.2230   41.7450 C.ar      1 AXI         0.0067
     26 C05        13.0020   28.5450   42.1030 C.ar      1 AXI        -0.0365
     27 C06        14.0040   29.5300   42.0410 C.ar      1 AXI        -0.0443
     28 C01        15.3120   29.1790   41.6160 C.ar      1 AXI        -0.0306
     29 H1         26.8724   21.3493   36.8693 H         1 AXI         0.1839
     30 H2         27.5497   20.9428   34.7077 H         1 AXI         0.0483
     31 H3         27.1794   22.6692   34.3777 H         1 AXI         0.0483
     32 H4         25.8934   21.4266   34.2085 H         1 AXI         0.0483
     33 H5         27.4163   22.8073   38.4232 H         1 AXI         0.0652
     34 H6         27.3110   23.1552   40.8906 H         1 AXI         0.0573
     35 H7         25.0920   23.6412   41.9522 H         1 AXI         0.0636
     36 H8         23.0273   23.6669   40.5766 H         1 AXI         0.0581
     37 H9         19.7274   23.2808   38.5475 H         1 AXI         0.0506
     38 H10        18.2119   25.0302   39.5898 H         1 AXI         0.0585
     39 H11        23.0600   26.0674   38.6700 H         1 AXI         0.0501
     40 H12        22.3424   28.5513   39.8042 H         1 AXI         0.2486
     41 H13        17.8846   29.1761   40.9995 H         1 AXI         0.0684
     42 H14        16.9756   26.2759   40.5304 H         1 AXI         0.0607
     43 H15        12.5528   26.4577   41.7942 H         1 AXI         0.0821
     44 H16        11.9985   28.8018   42.4226 H         1 AXI         0.0689
     45 H17        13.7781   30.5537   42.3168 H         1 AXI         0.0726
     46 H18        16.1015   29.9194   41.5562 H         1 AXI         0.0702
@<TRIPOS>BOND
     1    1    2 2  
     2    2    3 am 
     3    2    5 1  
     4    3    4 1  
     5    5    6 ar 
     6    5    9 ar 
     7    6    7 ar 
     8    7    8 ar 
     9    8   10 ar 
    10    9   10 ar 
    11    9   11 1  
    12   11   12 1  
    13   12   13 ar 
    14   12   15 ar 
    15   13   14 ar 
    16   14   20 ar 
    17   15   16 ar 
    18   16   17 1  
    19   16   20 ar 
    20   17   18 1  
    21   18   19 2  
    22   19   20 1  
    23   19   21 1  
    24   21   22 2  
    25   22   23 1  
    26   23   24 ar 
    27   23   28 ar 
    28   24   25 ar 
    29   25   26 ar 
    30   26   27 ar 
    31   27   28 ar 
    32    3   29 1  
    33    4   30 1  
    34    4   31 1  
    35    4   32 1  
    36    6   33 1  
    37    7   34 1  
    38    8   35 1  
    39   10   36 1  
    40   13   37 1  
    41   14   38 1  
    42   15   39 1  
    43   17   40 1  
    44   21   41 1  
    45   22   42 1  
    46   25   43 1  
    47   26   44 1  
    48   27   45 1  
    49   28   46 1  
@<TRIPOS>SUBSTRUCTURE
     1 AXI         1

