### 
### Created by X-TOOL on Mon Sep 10 21:13:09 2018
### 

@<TRIPOS>MOLECULE
4agl_ligand
   25    25     1     0     0
SMALL
GAST_HUCK


@<TRIPOS>ATOM
      1 C1         91.1500   95.7340  -44.9530 C.ar      1 P84         0.0362
      2 C2         91.5110   95.5430  -43.6140 C.ar      1 P84         0.1085
      3 C3         91.8830   94.2830  -43.1520 C.ar      1 P84         0.0339
      4 C4         90.7150   97.0950  -45.4760 C.3       1 P84         0.0011
      5 N5         91.3970   98.2310  -44.8270 N.4       1 P84         0.2414
      6 C6         91.8960   93.1760  -44.0130 C.ar      1 P84        -0.0557
      7 C8         91.1670   94.6180  -45.8160 C.ar      1 P84        -0.0503
      8 C9         92.7910   98.4320  -45.2710 C.3       1 P84        -0.0421
      9 C10        91.5360   93.3480  -45.3510 C.ar      1 P84        -0.0056
     10 I15        92.3850   94.0740  -41.1170 I         1 P84        -0.0582
     11 O16        91.5240   96.6270  -42.7800 O.3       1 P84        -0.3326
     12 I17        91.5360   91.7340  -46.6820 I         1 P84        -0.0600
     13 C14        90.6140   99.4730  -44.9250 C.3       1 P84        -0.0421
     14 H1         89.6327   97.2001  -45.3098 H         1 P84         0.0956
     15 H2         90.9259   97.1350  -46.5548 H         1 P84         0.0956
     16 H3         91.4470   98.0012  -43.8468 H         1 P84         0.2040
     17 H4         92.1823   92.1978  -43.6438 H         1 P84         0.0587
     18 H5         90.8900   94.7447  -46.8563 H         1 P84         0.0575
     19 H6         93.2238   99.2937  -44.7416 H         1 P84         0.0778
     20 H7         92.8071   98.6215  -46.3544 H         1 P84         0.0778
     21 H8         93.3806   97.5306  -45.0476 H         1 P84         0.0778
     22 H9         92.4049   96.7612  -42.4507 H         1 P84         0.2478
     23 H10        89.5843   99.2849  -44.5869 H         1 P84         0.0778
     24 H11        90.5998   99.8161  -45.9700 H         1 P84         0.0778
     25 H12        91.0724  100.2465  -44.2913 H         1 P84         0.0778
@<TRIPOS>BOND
     1    1    2 ar 
     2    1    4 1  
     3    1    7 ar 
     4    2    3 ar 
     5    2   11 1  
     6    3    6 ar 
     7    3   10 1  
     8    4    5 1  
     9    5    8 1  
    10    5   13 1  
    11    6    9 ar 
    12    7    9 ar 
    13    9   12 1  
    14    4   14 1  
    15    4   15 1  
    16    5   16 1  
    17    6   17 1  
    18    7   18 1  
    19    8   19 1  
    20    8   20 1  
    21    8   21 1  
    22   11   22 1  
    23   13   23 1  
    24   13   24 1  
    25   13   25 1  
@<TRIPOS>SUBSTRUCTURE
     1 P84         1

