### 
### Created by X-TOOL on Mon Sep 10 21:13:09 2018
### 

@<TRIPOS>MOLECULE
4agm_ligand
   47    48     1     0     0
SMALL
GAST_HUCK


@<TRIPOS>ATOM
      1 C01        91.0680   93.5550  -45.0980 C.ar      1 P86        -0.0056
      2 C1         90.4990   95.8990  -44.7880 C.ar      1 P86         0.0362
      3 N1         90.4980   98.3810  -44.6910 N.4       1 P86         0.2460
      4 O1         90.8570   96.9650  -42.6590 O.3       1 P86        -0.3326
      5 C02        91.4810   93.4570  -43.7630 C.ar      1 P86        -0.0557
      6 C2         89.9050   97.1660  -45.3350 C.3       1 P86         0.0016
      7 N2         92.0320  102.4380  -44.4730 N.4       1 P86         0.2373
      8 C03        89.5430   99.5450  -44.7170 C.3       1 P86        -0.0255
      9 C3         90.5790   94.7670  -45.6090 C.ar      1 P86        -0.0503
     10 C4         91.3960   94.6040  -42.9570 C.ar      1 P86         0.0339
     11 C7         90.9090   95.8370  -43.4300 C.ar      1 P86         0.1085
     12 C8         90.1750  100.7310  -44.0050 C.3       1 P86         0.0307
     13 C10        91.4300  101.0810  -44.8020 C.3       1 P86        -0.0111
     14 C11        92.9470  102.9030  -45.5930 C.3       1 P86        -0.0345
     15 C12        92.9390  104.4100  -45.7850 C.3       1 P86        -0.0245
     16 C13        92.7530  102.4490  -43.1430 C.3       1 P86        -0.0345
     17 C14        92.6400  103.7790  -42.4090 C.3       1 P86        -0.0245
     18 C15        92.4510   99.9400  -44.6950 C.3       1 P86         0.0307
     19 C16        91.8210   98.7070  -45.3220 C.3       1 P86        -0.0255
     20 I1         91.1810   91.8880  -46.3980 I         1 P86        -0.0600
     21 I2         91.9860   94.4580  -40.9270 I         1 P86        -0.0582
     22 H1         90.6711   98.1599  -43.7229 H         1 P86         0.2046
     23 H2         91.1615   96.7623  -41.7822 H         1 P86         0.2478
     24 H3         91.8558   92.5218  -43.3631 H         1 P86         0.0587
     25 H4         88.8205   97.1591  -45.1514 H         1 P86         0.0957
     26 H5         90.0934   97.2091  -46.4179 H         1 P86         0.0957
     27 H6         91.2713  103.0960  -44.4063 H         1 P86         0.2036
     28 H7         88.6093   99.2655  -44.2070 H         1 P86         0.0816
     29 H8         89.3239   99.8171  -45.7600 H         1 P86         0.0816
     30 H9         90.2617   94.8274  -46.6438 H         1 P86         0.0575
     31 H10        90.4412  100.4595  -42.9728 H         1 P86         0.0372
     32 H11        89.4802  101.5837  -43.9924 H         1 P86         0.0372
     33 H12        91.1232  101.1355  -45.8569 H         1 P86         0.0855
     34 H13        92.6207  102.4293  -46.5306 H         1 P86         0.0812
     35 H14        93.9741  102.5857  -45.3600 H         1 P86         0.0812
     36 H15        93.6189  104.6785  -46.6070 H         1 P86         0.0281
     37 H16        93.2729  104.8995  -44.8583 H         1 P86         0.0281
     38 H17        91.9195  104.7432  -46.0289 H         1 P86         0.0281
     39 H18        93.8177  102.2375  -43.3209 H         1 P86         0.0812
     40 H19        92.3240  101.6611  -42.5064 H         1 P86         0.0812
     41 H20        93.1837  103.7185  -41.4547 H         1 P86         0.0281
     42 H21        91.5805  104.0013  -42.2138 H         1 P86         0.0281
     43 H22        93.0742  104.5777  -43.0283 H         1 P86         0.0281
     44 H23        92.6881   99.7453  -43.6387 H         1 P86         0.0372
     45 H24        93.3717  100.2074  -45.2342 H         1 P86         0.0372
     46 H25        91.6688   98.8908  -46.3958 H         1 P86         0.0816
     47 H26        92.5004   97.8522  -45.1889 H         1 P86         0.0816
@<TRIPOS>BOND
     1    1    5 ar 
     2    9    1 ar 
     3    1   20 1  
     4    6    2 1  
     5    2    9 ar 
     6    2   11 ar 
     7    3    6 1  
     8    8    3 1  
     9    3   19 1  
    10   11    4 1  
    11   10    5 ar 
    12   13    7 1  
    13    7   14 1  
    14    7   16 1  
    15   12    8 1  
    16   11   10 ar 
    17   10   21 1  
    18   12   13 1  
    19   13   18 1  
    20   14   15 1  
    21   16   17 1  
    22   18   19 1  
    23    3   22 1  
    24    4   23 1  
    25    5   24 1  
    26    6   25 1  
    27    6   26 1  
    28    7   27 1  
    29    8   28 1  
    30    8   29 1  
    31    9   30 1  
    32   12   31 1  
    33   12   32 1  
    34   13   33 1  
    35   14   34 1  
    36   14   35 1  
    37   15   36 1  
    38   15   37 1  
    39   15   38 1  
    40   16   39 1  
    41   16   40 1  
    42   17   41 1  
    43   17   42 1  
    44   17   43 1  
    45   18   44 1  
    46   18   45 1  
    47   19   46 1  
    48   19   47 1  
@<TRIPOS>SUBSTRUCTURE
     1 P86         1

