### 
### Created by X-TOOL on Mon Sep 10 21:13:09 2018
### 

@<TRIPOS>MOLECULE
4agn_ligand
   53    54     1     0     0
SMALL
GAST_HUCK


@<TRIPOS>ATOM
      1 C01        91.4340   93.5340  -45.2570 C.ar      1 NXG         0.0107
      2 C1         90.7660   95.8310  -44.8540 C.ar      1 NXG         0.0353
      3 N1         90.7020   98.2900  -44.6610 N.4       1 NXG         0.2460
      4 O1         90.9900   96.8240  -42.6710 O.3       1 NXG        -0.3334
      5 C02        91.8080   93.4050  -43.9090 C.ar      1 NXG        -0.0500
      6 C2         90.1700   97.1080  -45.3810 C.3       1 NXG         0.0013
      7 N2         92.0850  102.4030  -44.3390 N.4       1 NXG         0.2373
      8 C03        89.7100   99.4240  -44.7190 C.3       1 NXG        -0.0255
      9 C3         90.9080   94.7520  -45.7280 C.ar      1 NXG        -0.0452
     10 C4         91.6500   94.5140  -43.0550 C.ar      1 NXG         0.0334
     11 C7         91.1290   95.7400  -43.4870 C.ar      1 NXG         0.1072
     12 C8         90.2630  100.6250  -43.9720 C.3       1 NXG         0.0307
     13 C10        91.5230  101.0190  -44.7370 C.3       1 NXG        -0.0111
     14 C11        93.1810  102.4220  -43.2800 C.3       1 NXG        -0.0345
     15 C12        94.1450  103.5810  -43.4820 C.3       1 NXG        -0.0245
     16 C13        90.9370  103.3670  -43.9740 C.3       1 NXG        -0.0345
     17 C14        90.9680  103.6760  -42.4870 C.3       1 NXG        -0.0245
     18 C15        92.5920   99.9270  -44.5600 C.3       1 NXG         0.0307
     19 C16        92.0450   98.6620  -45.2120 C.3       1 NXG        -0.0255
     20 C17        91.5740   92.4640  -46.1940 C.1       1 NXG        -0.0744
     21 C18        91.7020   91.5680  -46.9810 C.1       1 NXG        -0.0750
     22 C19        91.8600   90.4730  -47.9390 C.3       1 NXG         0.1032
     23 O2         91.9170   90.9840  -49.2660 O.3       1 NXG        -0.3830
     24 I2         92.1750   94.3250  -41.0000 I         1 NXG        -0.0583
     25 H1         90.8259   98.0407  -43.6922 H         1 NXG         0.2046
     26 H2         91.2756   96.5973  -41.7937 H         1 NXG         0.2476
     27 H3         92.2100   92.4709  -43.5337 H         1 NXG         0.0578
     28 H4         89.0780   97.0728  -45.2535 H         1 NXG         0.0957
     29 H5         90.4116   97.2014  -46.4501 H         1 NXG         0.0957
     30 H6         92.5144  102.7696  -45.1740 H         1 NXG         0.2036
     31 H7         88.7648   99.1074  -44.2539 H         1 NXG         0.0816
     32 H8         89.5285   99.6980  -45.7687 H         1 NXG         0.0816
     33 H9         90.6141   94.8516  -46.7666 H         1 NXG         0.0561
     34 H10        90.5090  100.3554  -42.9343 H         1 NXG         0.0372
     35 H11        89.5356  101.4501  -43.9738 H         1 NXG         0.0372
     36 H12        91.2595  101.0689  -45.8038 H         1 NXG         0.0855
     37 H13        93.7435  101.4782  -43.3334 H         1 NXG         0.0812
     38 H14        92.7153  102.5157  -42.2879 H         1 NXG         0.0812
     39 H15        94.9169  103.5566  -42.6987 H         1 NXG         0.0281
     40 H16        93.5936  104.5310  -43.4239 H         1 NXG         0.0281
     41 H17        94.6218  103.4936  -44.4694 H         1 NXG         0.0281
     42 H18        89.9744  102.8994  -44.2284 H         1 NXG         0.0812
     43 H19        91.0522  104.3017  -44.5423 H         1 NXG         0.0812
     44 H20        90.1461  104.3634  -42.2382 H         1 NXG         0.0281
     45 H21        91.9290  104.1454  -42.2300 H         1 NXG         0.0281
     46 H22        90.8513  102.7430  -41.9161 H         1 NXG         0.0281
     47 H23        92.7792   99.7507  -43.4905 H         1 NXG         0.0372
     48 H24        93.5282  100.2310  -45.0509 H         1 NXG         0.0372
     49 H25        91.9515   98.8311  -46.2949 H         1 NXG         0.0816
     50 H26        92.7468   97.8349  -45.0292 H         1 NXG         0.0816
     51 H27        91.0048   89.7868  -47.8506 H         1 NXG         0.0689
     52 H28        92.7906   89.9294  -47.7190 H         1 NXG         0.0689
     53 H29        92.6561   91.5755  -49.3449 H         1 NXG         0.2106
@<TRIPOS>BOND
     1    1    5 ar 
     2    9    1 ar 
     3    1   20 1  
     4    6    2 1  
     5    2    9 ar 
     6    2   11 ar 
     7    3    6 1  
     8    8    3 1  
     9    3   19 1  
    10   11    4 1  
    11   10    5 ar 
    12   13    7 1  
    13    7   14 1  
    14    7   16 1  
    15   12    8 1  
    16   11   10 ar 
    17   10   24 1  
    18   12   13 1  
    19   13   18 1  
    20   14   15 1  
    21   16   17 1  
    22   18   19 1  
    23   20   21 3  
    24   21   22 1  
    25   22   23 1  
    26    3   25 1  
    27    4   26 1  
    28    5   27 1  
    29    6   28 1  
    30    6   29 1  
    31    7   30 1  
    32    8   31 1  
    33    8   32 1  
    34    9   33 1  
    35   12   34 1  
    36   12   35 1  
    37   13   36 1  
    38   14   37 1  
    39   14   38 1  
    40   15   39 1  
    41   15   40 1  
    42   15   41 1  
    43   16   42 1  
    44   16   43 1  
    45   17   44 1  
    46   17   45 1  
    47   17   46 1  
    48   18   47 1  
    49   18   48 1  
    50   19   49 1  
    51   19   50 1  
    52   22   51 1  
    53   22   52 1  
    54   23   53 1  
@<TRIPOS>SUBSTRUCTURE
     1 NXG         1

