### 
### Created by X-TOOL on Mon Sep 10 21:13:10 2018
### 

@<TRIPOS>MOLECULE
4ago_ligand
   69    70     1     0     0
SMALL
GAST_HUCK


@<TRIPOS>ATOM
      1 C01        91.3920   93.3530  -45.3400 C.ar      1 P74         0.0107
      2 C04        91.5040   92.3070  -46.3020 C.1       1 P74        -0.0747
      3 C05        91.6520   91.4460  -47.1170 C.1       1 P74        -0.0786
      4 C06        91.8410   90.3840  -48.1100 C.3       1 P74         0.0922
      5 N          91.6040   90.9580  -49.4160 N.am      1 P74        -0.2515
      6 C1         90.7290   95.6540  -44.9800 C.ar      1 P74         0.0353
      7 N1         90.6220   98.1370  -44.7970 N.4       1 P74         0.2460
      8 O1         90.9480   96.6360  -42.8080 O.3       1 P74        -0.3334
      9 C02        91.7760   93.2220  -44.0020 C.ar      1 P74        -0.0500
     10 C2         90.1570   96.9320  -45.5280 C.3       1 P74         0.0013
     11 N2         91.8380  102.1460  -43.8410 N.4       1 P74         0.2373
     12 C03        89.6020   99.2340  -44.8940 C.3       1 P74        -0.0255
     13 C3         90.8820   94.5670  -45.8350 C.ar      1 P74        -0.0452
     14 C4         91.6110   94.3260  -43.1650 C.ar      1 P74         0.0334
     15 C7         91.0980   95.5530  -43.6160 C.ar      1 P74         0.1072
     16 C8         90.0730  100.3930  -44.0350 C.3       1 P74         0.0307
     17 C10        91.3910  100.8890  -44.6110 C.3       1 P74        -0.0111
     18 C11        93.2610  102.0780  -43.2710 C.3       1 P74        -0.0345
     19 C12        93.9640  103.3960  -43.5390 C.3       1 P74        -0.0245
     20 C13        91.5150  103.5180  -44.4200 C.3       1 P74        -0.0345
     21 C14        90.0580  103.7120  -44.8220 C.3       1 P74        -0.0245
     22 C15        92.4480   99.7750  -44.4930 C.3       1 P74         0.0307
     23 C16        91.9640   98.5780  -45.2900 C.3       1 P74        -0.0255
     24 I2         92.1580   94.1710  -41.1100 I         1 P74        -0.0583
     25 C07        90.3370   91.1370  -49.8940 C.2       1 P74         0.3207
     26 O01        90.3970   91.9600  -50.9680 O.3       1 P74        -0.2581
     27 C08        89.1960   92.5360  -51.5480 C.3       1 P74         0.0905
     28 C09        89.7220   93.4330  -52.6750 C.3       1 P74        -0.0320
     29 C17        88.4400   93.4270  -50.5530 C.3       1 P74        -0.0320
     30 C          88.2930   91.4460  -52.1380 C.3       1 P74        -0.0320
     31 O          89.3380   90.6620  -49.3760 O.2       1 P74        -0.3775
     32 H1         91.1286   89.5665  -47.9249 H         1 P74         0.0651
     33 H2         92.8684   89.9952  -48.0522 H         1 P74         0.0651
     34 H3         92.3835   91.2294  -49.9806 H         1 P74         0.1877
     35 H4         90.7190   97.8921  -43.8240 H         1 P74         0.2046
     36 H5         91.2355   96.4165  -41.9295 H         1 P74         0.2476
     37 H6         92.1887   92.2924  -43.6270 H         1 P74         0.0578
     38 H7         89.0602   96.8825  -45.4599 H         1 P74         0.0957
     39 H8         90.4551   97.0254  -46.5827 H         1 P74         0.0957
     40 H9         91.2546  102.1104  -43.0198 H         1 P74         0.2036
     41 H10        88.6291   98.8718  -44.5304 H         1 P74         0.0816
     42 H11        89.5041   99.5607  -45.9398 H         1 P74         0.0816
     43 H12        90.6088   94.6554  -46.8803 H         1 P74         0.0561
     44 H13        90.2204  100.0556  -42.9985 H         1 P74         0.0372
     45 H14        89.3274  101.2015  -44.0550 H         1 P74         0.0372
     46 H15        91.2538  101.1451  -45.6719 H         1 P74         0.0855
     47 H16        93.8138  101.2599  -43.7559 H         1 P74         0.0812
     48 H17        93.2158  101.8979  -42.1868 H         1 P74         0.0812
     49 H18        94.9856  103.3557  -43.1333 H         1 P74         0.0281
     50 H19        93.4090  104.2128  -43.0544 H         1 P74         0.0281
     51 H20        94.0070  103.5748  -44.6235 H         1 P74         0.0281
     52 H21        92.1398  103.6691  -45.3126 H         1 P74         0.0812
     53 H22        91.7659  104.2767  -43.6641 H         1 P74         0.0812
     54 H23        89.9212  104.7257  -45.2267 H         1 P74         0.0281
     55 H24        89.4136  103.5791  -43.9405 H         1 P74         0.0281
     56 H25        89.7875  102.9714  -45.5890 H         1 P74         0.0281
     57 H26        92.5758   99.4928  -43.4375 H         1 P74         0.0372
     58 H27        93.4082  100.1281  -44.8971 H         1 P74         0.0372
     59 H28        91.8879   98.8553  -46.3517 H         1 P74         0.0816
     60 H29        92.6818   97.7522  -45.1772 H         1 P74         0.0816
     61 H30        88.8755   93.9201  -53.1812 H         1 P74         0.0260
     62 H31        90.2803   92.8221  -53.3996 H         1 P74         0.0260
     63 H32        90.3874   94.2004  -52.2526 H         1 P74         0.0260
     64 H33        87.5420   93.8378  -51.0376 H         1 P74         0.0260
     65 H34        89.0923   94.2518  -50.2303 H         1 P74         0.0260
     66 H35        88.1437   92.8300  -49.6779 H         1 P74         0.0260
     67 H36        87.3933   91.9090  -52.5693 H         1 P74         0.0260
     68 H37        87.9992   90.7437  -51.3440 H         1 P74         0.0260
     69 H38        88.8388   90.9034  -52.9239 H         1 P74         0.0260
@<TRIPOS>BOND
     1    1    2 1  
     2    1    9 ar 
     3   13    1 ar 
     4    2    3 3  
     5    3    4 1  
     6    4    5 1  
     7    5   25 am 
     8   10    6 1  
     9    6   13 ar 
    10    6   15 ar 
    11    7   10 1  
    12   12    7 1  
    13    7   23 1  
    14   15    8 1  
    15   14    9 ar 
    16   17   11 1  
    17   11   18 1  
    18   11   20 1  
    19   16   12 1  
    20   15   14 ar 
    21   14   24 1  
    22   16   17 1  
    23   17   22 1  
    24   18   19 1  
    25   20   21 1  
    26   22   23 1  
    27   25   26 1  
    28   25   31 2  
    29   26   27 1  
    30   27   28 1  
    31   27   29 1  
    32   27   30 1  
    33    4   32 1  
    34    4   33 1  
    35    5   34 1  
    36    7   35 1  
    37    8   36 1  
    38    9   37 1  
    39   10   38 1  
    40   10   39 1  
    41   11   40 1  
    42   12   41 1  
    43   12   42 1  
    44   13   43 1  
    45   16   44 1  
    46   16   45 1  
    47   17   46 1  
    48   18   47 1  
    49   18   48 1  
    50   19   49 1  
    51   19   50 1  
    52   19   51 1  
    53   20   52 1  
    54   20   53 1  
    55   21   54 1  
    56   21   55 1  
    57   21   56 1  
    58   22   57 1  
    59   22   58 1  
    60   23   59 1  
    61   23   60 1  
    62   28   61 1  
    63   28   62 1  
    64   28   63 1  
    65   29   64 1  
    66   29   65 1  
    67   29   66 1  
    68   30   67 1  
    69   30   68 1  
    70   30   69 1  
@<TRIPOS>SUBSTRUCTURE
     1 P74         1

