### 
### Created by X-TOOL on Mon Sep 10 21:13:09 2018
### 

@<TRIPOS>MOLECULE
4agp_ligand
   63    65     1     0     0
SMALL
GAST_HUCK


@<TRIPOS>ATOM
      1 C01        91.5770   93.4520  -45.2950 C.ar      1 P51         0.0107
      2 C04        91.7530   92.3450  -46.1880 C.1       1 P51        -0.0740
      3 C05        91.8950   91.4530  -46.9720 C.1       1 P51        -0.0697
      4 C06        92.1440   90.3480  -47.9190 C.3       1 P51         0.1292
      5 O          90.9260   89.9330  -48.5430 O.3       1 P51        -0.3059
      6 C07        90.3680   90.7330  -49.5100 C.ar      1 P51         0.0923
      7 C1         90.9060   95.7610  -44.9550 C.ar      1 P51         0.0353
      8 N1         90.8320   98.2450  -44.8170 N.4       1 P51         0.2460
      9 O1         91.0790   96.7610  -42.7680 O.3       1 P51        -0.3334
     10 C02        91.9220   93.3360  -43.9450 C.ar      1 P51        -0.0500
     11 C2         90.3530   97.0310  -45.5320 C.3       1 P51         0.0013
     12 N2         92.0580  102.3500  -44.2520 N.4       1 P51         0.2373
     13 C03        89.7980   99.3400  -44.8630 C.3       1 P51        -0.0255
     14 C3         91.0740   94.6640  -45.8050 C.ar      1 P51        -0.0452
     15 C4         91.7430   94.4530  -43.1210 C.ar      1 P51         0.0334
     16 C7         91.2390   95.6800  -43.5770 C.ar      1 P51         0.1072
     17 C8         90.3350  100.5070  -44.0570 C.3       1 P51         0.0307
     18 C10        91.5700  100.9970  -44.8020 C.3       1 P51        -0.0111
     19 C11        93.0710  102.1710  -43.1140 C.3       1 P51        -0.0345
     20 C12        93.7770  103.4970  -42.9020 C.3       1 P51        -0.0245
     21 C13        90.9580  103.2970  -43.7890 C.3       1 P51        -0.0345
     22 C14        90.1540  103.9020  -44.9310 C.3       1 P51        -0.0245
     23 C15        92.6740   99.9330  -44.6790 C.3       1 P51         0.0307
     24 C16        92.1560   98.6850  -45.3690 C.3       1 P51        -0.0255
     25 I2         92.2500   94.2730  -41.0690 I         1 P51        -0.0583
     26 C08        89.1070   90.3130  -49.9440 C.ar      1 P51        -0.0331
     27 C09        88.4200   91.0300  -50.9270 C.ar      1 P51        -0.0706
     28 C17        88.9920   92.1730  -51.4820 C.ar      1 P51        -0.0729
     29 C18        90.2540   92.5960  -51.0580 C.ar      1 P51        -0.0706
     30 C          90.9380   91.8770  -50.0700 C.ar      1 P51        -0.0331
     31 H1         92.5790   89.4969  -47.3746 H         1 P51         0.0747
     32 H2         92.8486   90.6872  -48.6926 H         1 P51         0.0747
     33 H3         90.9711   98.0002  -43.8492 H         1 P51         0.2046
     34 H4         91.3469   96.5364  -41.8846 H         1 P51         0.2476
     35 H5         92.3167   92.4077  -43.5481 H         1 P51         0.0578
     36 H6         89.2553   96.9967  -45.4699 H         1 P51         0.0957
     37 H7         90.6587   97.1005  -46.5864 H         1 P51         0.0957
     38 H8         92.5352  102.8078  -45.0127 H         1 P51         0.2036
     39 H9         88.8538   98.9839  -44.4252 H         1 P51         0.0816
     40 H10        89.6254   99.6503  -45.9041 H         1 P51         0.0816
     41 H11        90.8174   94.7464  -46.8550 H         1 P51         0.0561
     42 H12        90.6055  100.1789  -43.0425 H         1 P51         0.0372
     43 H13        89.5830  101.3074  -43.9953 H         1 P51         0.0372
     44 H14        91.3149  101.1256  -45.8643 H         1 P51         0.0855
     45 H15        93.8041  101.3970  -43.3851 H         1 P51         0.0812
     46 H16        92.5487  101.8747  -42.1924 H         1 P51         0.0812
     47 H17        94.5109  103.3957  -42.0889 H         1 P51         0.0281
     48 H18        93.0383  104.2672  -42.6353 H         1 P51         0.0281
     49 H19        94.2937  103.7895  -43.8280 H         1 P51         0.0281
     50 H20        91.4211  104.1153  -43.2182 H         1 P51         0.0812
     51 H21        90.2701  102.7387  -43.1371 H         1 P51         0.0812
     52 H22        89.3826  104.5711  -44.5221 H         1 P51         0.0281
     53 H23        89.6736  103.0978  -45.5076 H         1 P51         0.0281
     54 H24        90.8247  104.4744  -45.5886 H         1 P51         0.0281
     55 H25        92.8808   99.7221  -43.6194 H         1 P51         0.0372
     56 H26        93.5942  100.2831  -45.1696 H         1 P51         0.0372
     57 H27        92.0409   98.8949  -46.4426 H         1 P51         0.0816
     58 H28        92.8858   97.8738  -45.2301 H         1 P51         0.0816
     59 H29        88.6589   89.4243  -49.5146 H         1 P51         0.0542
     60 H30        87.4427   90.6973  -51.2576 H         1 P51         0.0589
     61 H31        88.4585   92.7330  -52.2415 H         1 P51         0.0523
     62 H32        90.7038   93.4808  -51.4938 H         1 P51         0.0589
     63 H33        91.9147   92.2106  -49.7387 H         1 P51         0.0542
@<TRIPOS>BOND
     1    1    2 1  
     2    1   10 ar 
     3   14    1 ar 
     4    2    3 3  
     5    3    4 1  
     6    4    5 1  
     7    5    6 1  
     8    6   26 ar 
     9    6   30 ar 
    10   11    7 1  
    11    7   14 ar 
    12    7   16 ar 
    13    8   11 1  
    14   13    8 1  
    15    8   24 1  
    16   16    9 1  
    17   15   10 ar 
    18   18   12 1  
    19   12   19 1  
    20   12   21 1  
    21   17   13 1  
    22   16   15 ar 
    23   15   25 1  
    24   17   18 1  
    25   18   23 1  
    26   19   20 1  
    27   21   22 1  
    28   23   24 1  
    29   26   27 ar 
    30   27   28 ar 
    31   28   29 ar 
    32   29   30 ar 
    33    4   31 1  
    34    4   32 1  
    35    8   33 1  
    36    9   34 1  
    37   10   35 1  
    38   11   36 1  
    39   11   37 1  
    40   12   38 1  
    41   13   39 1  
    42   13   40 1  
    43   14   41 1  
    44   17   42 1  
    45   17   43 1  
    46   18   44 1  
    47   19   45 1  
    48   19   46 1  
    49   20   47 1  
    50   20   48 1  
    51   20   49 1  
    52   21   50 1  
    53   21   51 1  
    54   22   52 1  
    55   22   53 1  
    56   22   54 1  
    57   23   55 1  
    58   23   56 1  
    59   24   57 1  
    60   24   58 1  
    61   26   59 1  
    62   27   60 1  
    63   28   61 1  
    64   29   62 1  
    65   30   63 1  
@<TRIPOS>SUBSTRUCTURE
     1 P51         1

