### 
### Created by X-TOOL on Mon Sep 10 21:13:09 2018
### 

@<TRIPOS>MOLECULE
4agq_ligand
   64    66     1     0     0
SMALL
GAST_HUCK


@<TRIPOS>ATOM
      1 C          90.8850   91.8020  -50.1560 C.ar      1 P96        -0.0445
      2 N          91.0760   89.9140  -48.5970 N.pl3     1 P96        -0.3123
      3 C01        91.5330   93.4550  -45.3070 C.ar      1 P96         0.0107
      4 C1         90.7800   95.7390  -44.9640 C.ar      1 P96         0.0353
      5 N1         90.6830   98.2530  -44.8460 N.4       1 P96         0.2460
      6 O1         90.9230   96.7270  -42.7950 O.3       1 P96        -0.3334
      7 C02        91.8810   93.3660  -43.9520 C.ar      1 P96        -0.0500
      8 C2         90.1810   96.9990  -45.5280 C.3       1 P96         0.0013
      9 N2         91.9400  102.3560  -44.2570 N.4       1 P96         0.2373
     10 C03        89.6400   99.3320  -44.9180 C.3       1 P96        -0.0255
     11 C3         90.9950   94.6440  -45.8120 C.ar      1 P96        -0.0452
     12 C04        91.7590   92.3600  -46.1960 C.1       1 P96        -0.0747
     13 C4         91.6780   94.4580  -43.0960 C.ar      1 P96         0.0334
     14 C05        91.9620   91.4750  -46.9830 C.1       1 P96        -0.0794
     15 C06        92.2560   90.3680  -47.9040 C.3       1 P96         0.0837
     16 C07        90.3620   90.6810  -49.5060 C.ar      1 P96         0.0384
     17 C7         91.1240   95.6340  -43.6080 C.ar      1 P96         0.1072
     18 C08        89.0360   90.3300  -49.7960 C.ar      1 P96        -0.0445
     19 C8         90.1590  100.5540  -44.1790 C.3       1 P96         0.0307
     20 C09        88.2670   91.0680  -50.7030 C.ar      1 P96        -0.0737
     21 C10        91.4680  101.0070  -44.8210 C.3       1 P96        -0.0111
     22 C12        90.0990  103.9410  -44.8990 C.3       1 P96        -0.0245
     23 C13        93.0260  102.2730  -43.2010 C.3       1 P96        -0.0345
     24 C14        93.6440  103.6430  -42.9800 C.3       1 P96        -0.0245
     25 C15        92.5330   99.9110  -44.6780 C.3       1 P96         0.0307
     26 C16        92.0460   98.6390  -45.3540 C.3       1 P96        -0.0255
     27 C17        88.8110   92.1780  -51.3390 C.ar      1 P96        -0.0751
     28 C18        90.1280   92.5440  -51.0680 C.ar      1 P96        -0.0737
     29 I2         92.1690   94.3450  -41.0290 I         1 P96        -0.0583
     30 C11        90.7760  103.2160  -43.7470 C.3       1 P96        -0.0345
     31 H1         91.9049   92.1045  -49.9477 H         1 P96         0.0515
     32 H2         90.7417   88.9589  -48.4048 H         1 P96         0.1764
     33 H3         90.7992   98.0349  -43.8688 H         1 P96         0.2046
     34 H4         91.1974   96.5168  -41.9101 H         1 P96         0.2476
     35 H5         92.3090   92.4487  -43.5641 H         1 P96         0.0578
     36 H6         89.0884   96.9502  -45.4103 H         1 P96         0.0957
     37 H7         90.4323   97.0578  -46.5973 H         1 P96         0.0957
     38 H8         92.3451  102.8501  -45.0366 H         1 P96         0.2036
     39 H9         88.7098   98.9810  -44.4473 H         1 P96         0.0816
     40 H10        89.4444   99.5895  -45.9694 H         1 P96         0.0816
     41 H11        90.7434   94.7185  -46.8638 H         1 P96         0.0561
     42 H12        92.9939   90.7091  -48.6450 H         1 P96         0.0644
     43 H13        92.6748   89.5292  -47.3287 H         1 P96         0.0644
     44 H14        88.5967   89.4681  -49.3070 H         1 P96         0.0515
     45 H15        90.3352  100.2990  -43.1236 H         1 P96         0.0372
     46 H16        89.4181  101.3647  -44.2416 H         1 P96         0.0372
     47 H17        87.2446   90.7733  -50.9101 H         1 P96         0.0583
     48 H18        91.2812  101.1500  -45.8955 H         1 P96         0.0855
     49 H19        89.2692  104.5504  -44.5116 H         1 P96         0.0281
     50 H20        89.7090  103.2047  -45.6171 H         1 P96         0.0281
     51 H21        90.8288  104.5926  -45.4017 H         1 P96         0.0281
     52 H22        93.8052  101.5718  -43.5345 H         1 P96         0.0812
     53 H23        92.5894  101.9142  -42.2573 H         1 P96         0.0812
     54 H24        94.4294  103.5715  -42.2132 H         1 P96         0.0281
     55 H25        92.8672  104.3459  -42.6447 H         1 P96         0.0281
     56 H26        94.0830  104.0035  -43.9220 H         1 P96         0.0281
     57 H27        92.7142   99.7129  -43.6113 H         1 P96         0.0372
     58 H28        93.4676  100.2438  -45.1531 H         1 P96         0.0372
     59 H29        91.9925   98.8054  -46.4400 H         1 P96         0.0816
     60 H30        92.7540   97.8242  -45.1423 H         1 P96         0.0816
     61 H31        88.2163   92.7534  -52.0392 H         1 P96         0.0505
     62 H32        90.5653   93.4031  -51.5637 H         1 P96         0.0583
     63 H33        91.1610  103.9566  -43.0306 H         1 P96         0.0812
     64 H34        90.0412  102.5687  -43.2460 H         1 P96         0.0812
@<TRIPOS>BOND
     1   16    1 ar 
     2    1   28 ar 
     3   15    2 1  
     4    2   16 1  
     5    3    7 ar 
     6   11    3 ar 
     7    3   12 1  
     8    8    4 1  
     9    4   11 ar 
    10    4   17 ar 
    11    5    8 1  
    12   10    5 1  
    13    5   26 1  
    14   17    6 1  
    15   13    7 ar 
    16   21    9 1  
    17    9   23 1  
    18    9   30 1  
    19   19   10 1  
    20   12   14 3  
    21   17   13 ar 
    22   13   29 1  
    23   14   15 1  
    24   16   18 ar 
    25   18   20 ar 
    26   19   21 1  
    27   20   27 ar 
    28   21   25 1  
    29   30   22 1  
    30   23   24 1  
    31   25   26 1  
    32   27   28 ar 
    33    1   31 1  
    34    2   32 1  
    35    5   33 1  
    36    6   34 1  
    37    7   35 1  
    38    8   36 1  
    39    8   37 1  
    40    9   38 1  
    41   10   39 1  
    42   10   40 1  
    43   11   41 1  
    44   15   42 1  
    45   15   43 1  
    46   18   44 1  
    47   19   45 1  
    48   19   46 1  
    49   20   47 1  
    50   21   48 1  
    51   22   49 1  
    52   22   50 1  
    53   22   51 1  
    54   23   52 1  
    55   23   53 1  
    56   24   54 1  
    57   24   55 1  
    58   24   56 1  
    59   25   57 1  
    60   25   58 1  
    61   26   59 1  
    62   26   60 1  
    63   27   61 1  
    64   28   62 1  
    65   30   63 1  
    66   30   64 1  
@<TRIPOS>SUBSTRUCTURE
     1 P96         1

