### 
### Created by X-TOOL on Mon Sep 10 21:13:09 2018
### 

@<TRIPOS>MOLECULE
4ah9_ligand
   35    37     1     0     0
SMALL
GAST_HUCK


@<TRIPOS>ATOM
      1 NJ         15.5730  -24.7060   10.7680 N.2       1 0MB        -0.2644
      2 NK         17.2750  -25.0490   12.3140 N.2       1 0MB        -0.2690
      3 NL         19.0360  -29.8150   12.1710 N.4       1 0MB         0.2286
      4 NQ         17.6570  -27.4380   12.4100 N.pl3     1 0MB        -0.2514
      5 CAA        16.8350  -19.9770   12.0320 C.ar      1 0MB        -0.0566
      6 CAC        15.9070  -20.5640   11.1530 C.ar      1 0MB        -0.0553
      7 CAB        17.6550  -20.8240   12.7990 C.ar      1 0MB        -0.0553
      8 CAE        15.7350  -21.9380   10.9910 C.ar      1 0MB        -0.0444
      9 CAD        17.4770  -22.1990   12.6260 C.ar      1 0MB        -0.0444
     10 CAF        20.0770  -28.9170   12.7720 C.3       1 0MB        -0.0316
     11 CAG        17.7030  -29.8970   12.8380 C.3       1 0MB        -0.0111
     12 CAI        16.9050  -28.7090   12.3330 C.3       1 0MB         0.0813
     13 SAM        15.7620  -26.4010   10.7660 S.3       1 0MB         0.0629
     14 CAN        16.5390  -22.7450   11.7780 C.ar      1 0MB         0.0149
     15 CAO        16.4440  -24.1740   11.6180 C.2       1 0MB         0.0776
     16 C9         19.5380  -28.1180   13.9470 C.3       1 0MB         0.0095
     17 CAP        17.0270  -26.3140   11.9320 C.2       1 0MB         0.2057
     18 C10        18.4400  -27.1270   13.6100 C.3       1 0MB         0.0466
     19 H1         19.4193  -30.7471   12.1542 H         1 0MB         0.2014
     20 H2         18.8785  -29.4994   11.2267 H         1 0MB         0.2014
     21 H3         16.9161  -18.8993   12.1161 H         1 0MB         0.0661
     22 H4         15.2834  -19.9034   10.5616 H         1 0MB         0.0632
     23 H5         18.3898  -20.4290   13.4912 H         1 0MB         0.0632
     24 H6         15.0159  -22.3493   10.2918 H         1 0MB         0.0675
     25 H7         18.1118  -22.8728   13.1900 H         1 0MB         0.0675
     26 H8         20.4295  -28.2172   11.9999 H         1 0MB         0.0814
     27 H9         20.9188  -29.5338   13.1197 H         1 0MB         0.0814
     28 H10        17.8189  -29.8422   13.9305 H         1 0MB         0.0835
     29 H11        17.1990  -30.8371   12.5694 H         1 0MB         0.0835
     30 H12        16.6297  -28.8913   11.2837 H         1 0MB         0.0597
     31 H13        15.9928  -28.6148   12.9404 H         1 0MB         0.0597
     32 H14        20.3754  -27.5591   14.3902 H         1 0MB         0.0338
     33 H15        19.1391  -28.8283   14.6861 H         1 0MB         0.0338
     34 H16        17.7485  -27.0836   14.4643 H         1 0MB         0.0545
     35 H17        18.9059  -26.1412   13.4649 H         1 0MB         0.0545
@<TRIPOS>BOND
     1    1   13 1  
     2   15    1 2  
     3   15    2 1  
     4    2   17 2  
     5    3   10 1  
     6   11    3 1  
     7    4   12 1  
     8   17    4 1  
     9    4   18 1  
    10    6    5 ar 
    11    7    5 ar 
    12    8    6 ar 
    13    9    7 ar 
    14   14    8 ar 
    15   14    9 ar 
    16   10   16 1  
    17   12   11 1  
    18   17   13 1  
    19   14   15 1  
    20   16   18 1  
    21    3   19 1  
    22    3   20 1  
    23    5   21 1  
    24    6   22 1  
    25    7   23 1  
    26    8   24 1  
    27    9   25 1  
    28   10   26 1  
    29   10   27 1  
    30   11   28 1  
    31   11   29 1  
    32   12   30 1  
    33   12   31 1  
    34   16   32 1  
    35   16   33 1  
    36   18   34 1  
    37   18   35 1  
@<TRIPOS>SUBSTRUCTURE
     1 0MB         1

