### 
### Created by X-TOOL on Mon Sep 10 21:13:10 2018
### 

@<TRIPOS>MOLECULE
4ahs_ligand
   17    18     1     0     0
SMALL
GAST_HUCK


@<TRIPOS>ATOM
      1 C6        -15.5130   20.2680  -10.7570 C.ar      1 AKH        -0.0682
      2 C5        -16.5350   19.9790  -11.6690 C.ar      1 AKH        -0.0076
      3 C1        -17.4470   20.9660  -12.3540 C.2       1 AKH        -0.0460
      4 C2        -18.2890   20.0010  -13.1750 C.2       1 AKH         0.0852
      5 C7        -14.7740   19.2290  -10.2400 C.ar      1 AKH        -0.0725
      6 C8        -15.0580   17.9310  -10.6550 C.ar      1 AKH        -0.0587
      7 C9        -16.0660   17.6140  -11.5690 C.ar      1 AKH         0.0407
      8 C10       -16.3240   16.1750  -11.9280 C.2       1 AKH         0.0593
      9 O11       -17.0720   15.9140  -12.9330 O.co2     1 AKH        -0.5633
     10 C4        -16.8200   18.6790  -12.0610 C.ar      1 AKH         0.1386
     11 O12       -15.8020   15.2980  -11.1610 O.co2     1 AKH        -0.5633
     12 O3        -17.8760   18.6150  -12.9730 O.3       1 AKH        -0.2544
     13 H1        -15.3077   21.2912  -10.4637 H         1 AKH         0.0572
     14 H2        -17.4901   22.0518  -12.2819 H         1 AKH         0.0342
     15 H3        -19.1009   20.3066  -13.8332 H         1 AKH         0.1072
     16 H4        -13.9842   19.4179   -9.5219 H         1 AKH         0.0536
     17 H5        -14.4642   17.1214  -10.2464 H         1 AKH         0.0580
@<TRIPOS>BOND
     1    1    2 ar 
     2    1    5 ar 
     3    2    3 1  
     4    2   10 ar 
     5    3    4 2  
     6    4   12 1  
     7    5    6 ar 
     8    6    7 ar 
     9    7    8 1  
    10    7   10 ar 
    11    8    9 ar 
    12    8   11 ar 
    13   10   12 1  
    14    1   13 1  
    15    3   14 1  
    16    4   15 1  
    17    5   16 1  
    18    6   17 1  
@<TRIPOS>SUBSTRUCTURE
     1 AKH         1

