### 
### Created by X-TOOL on Mon Sep 10 21:13:08 2018
### 

@<TRIPOS>MOLECULE
4ahu_ligand
   18    19     1     0     0
SMALL
GAST_HUCK


@<TRIPOS>ATOM
      1 CAA       -16.7460   18.1670    1.2830 C.ar      1 ICO        -0.0139
      2 CAD       -17.7150   18.5320    0.3550 C.ar      1 ICO        -0.0737
      3 CAI       -18.0010   19.8650    0.1180 C.ar      1 ICO        -0.0786
      4 CAJ       -17.3330   20.8640    0.7900 C.ar      1 ICO        -0.0759
      5 CAF       -16.3540   20.5380    1.7160 C.ar      1 ICO        -0.0424
      6 CAB       -16.0780   19.1950    1.9530 C.ar      1 ICO         0.0671
      7 NAE       -15.1340   18.6220    2.7950 N.pl3     1 ICO        -0.2736
      8 CAG       -15.1930   17.2650    2.6960 C.2       1 ICO         0.0405
      9 CAC       -16.1790   16.9370    1.7720 C.2       1 ICO         0.0098
     10 CAH       -16.5350   15.4530    1.4080 C.2       1 ICO         0.0391
     11 OAL       -17.4080   15.2070    0.5020 O.co2     1 ICO        -0.5714
     12 OAK       -15.9570   14.5480    2.0920 O.co2     1 ICO        -0.5714
     13 H1        -18.2525   17.7637   -0.1889 H         1 ICO         0.0536
     14 H2        -18.7625   20.1267   -0.6077 H         1 ICO         0.0517
     15 H3        -17.5720   21.9033    0.5954 H         1 ICO         0.0532
     16 H4        -15.8139   21.3146    2.2453 H         1 ICO         0.0547
     17 H5        -14.4869   19.1444    3.4027 H         1 ICO         0.2299
     18 H6        -14.5740   16.5579    3.2462 H         1 ICO         0.1014
@<TRIPOS>BOND
     1    1    2 ar 
     2    1    6 ar 
     3    1    9 1  
     4    2    3 ar 
     5    3    4 ar 
     6    4    5 ar 
     7    5    6 ar 
     8    6    7 1  
     9    7    8 1  
    10    8    9 2  
    11    9   10 1  
    12   10   11 ar 
    13   10   12 ar 
    14    2   13 1  
    15    3   14 1  
    16    4   15 1  
    17    5   16 1  
    18    7   17 1  
    19    8   18 1  
@<TRIPOS>SUBSTRUCTURE
     1 ICO         1

