### 
### Created by X-TOOL on Mon Sep 10 21:13:09 2018
### 

@<TRIPOS>MOLECULE
4ahv_ligand
   25    26     1     0     0
SMALL
GAST_HUCK


@<TRIPOS>ATOM
      1 N13       -14.5700   18.3040    3.0210 N.4       1 Z5P         0.2301
      2 C10       -16.6770   20.8270    1.6790 C.ar      1 Z5P        -0.0583
      3 N4        -16.4880   17.0620    1.5340 N.pl3     1 Z5P        -0.1670
      4 C9        -17.5700   21.0430    0.6750 C.ar      1 Z5P        -0.0748
      5 C8        -18.0950   19.9550    0.0310 C.ar      1 Z5P        -0.0722
      6 C7        -17.7150   18.6980    0.4050 C.ar      1 Z5P        -0.0308
      7 C6        -16.7950   18.4630    1.3980 C.ar      1 Z5P         0.1197
      8 C3        -15.5870   16.3970    2.3160 C.2       1 Z5P         0.0628
      9 C12       -15.2340   19.6070    3.1190 C.3       1 Z5P        -0.0005
     10 C2        -15.8310   15.0400    2.1980 C.2       1 Z5P        -0.0479
     11 C1        -16.9110   14.9370    1.2760 C.2       1 Z5P        -0.0062
     12 C11       -16.2730   19.5800    2.0520 C.ar      1 Z5P         0.0391
     13 N5        -17.2900   16.1640    0.8760 N.2       1 Z5P        -0.2078
     14 H1        -13.8449   18.2431    3.7186 H         1 Z5P         0.2007
     15 H2        -14.1636   18.2020    2.1042 H         1 Z5P         0.2007
     16 H3        -15.2447   17.5707    3.1729 H         1 Z5P         0.2007
     17 H4        -16.2697   21.6832    2.2044 H         1 Z5P         0.0541
     18 H5        -17.8578   22.0493    0.3929 H         1 Z5P         0.0544
     19 H6        -18.8096   20.0909   -0.7727 H         1 Z5P         0.0544
     20 H7        -18.1581   17.8492   -0.1032 H         1 Z5P         0.0570
     21 H8        -14.8107   16.8555    2.9268 H         1 Z5P         0.0990
     22 H9        -14.5172   20.4225    2.9425 H         1 Z5P         0.0967
     23 H10       -15.6970   19.7335    4.1088 H         1 Z5P         0.0967
     24 H11       -15.3098   14.2270    2.7013 H         1 Z5P         0.0342
     25 H12       -17.3630   14.0035    0.9440 H         1 Z5P         0.0653
@<TRIPOS>BOND
     1    9    1 1  
     2    2    4 ar 
     3   12    2 ar 
     4    7    3 1  
     5    3    8 1  
     6    3   13 1  
     7    4    5 ar 
     8    6    5 ar 
     9    7    6 ar 
    10   12    7 ar 
    11    8   10 2  
    12    9   12 1  
    13   10   11 1  
    14   11   13 2  
    15    1   14 1  
    16    1   15 1  
    17    1   16 1  
    18    2   17 1  
    19    4   18 1  
    20    5   19 1  
    21    6   20 1  
    22    8   21 1  
    23    9   22 1  
    24    9   23 1  
    25   10   24 1  
    26   11   25 1  
@<TRIPOS>SUBSTRUCTURE
     1 Z5P         1

