### 
### Created by X-TOOL on Mon Sep 10 21:13:09 2018
### 

@<TRIPOS>MOLECULE
4ai5_ligand
   18    19     1     0     0
SMALL
GAST_HUCK


@<TRIPOS>ATOM
      1 N9         26.2000  -21.4960    1.6340 N.2       1 ADK        -0.3434
      2 C4         27.4690  -21.4560    1.9430 C.2       1 ADK         0.1303
      3 N3         28.3330  -22.4180    1.9370 N.pl3     1 ADK        -0.2039
      4 C2         29.6470  -22.1400    2.2810 C.2       1 ADK         0.1599
      5 N1         29.9970  -20.9240    2.6590 N.2       1 ADK        -0.2043
      6 C6         29.0750  -19.8940    2.7010 C.2       1 ADK         0.1586
      7 N6         29.4370  -18.6270    3.0510 N.pl3     1 ADK        -0.2911
      8 C5         27.8070  -20.1980    2.3350 C.2       1 ADK         0.0970
      9 N7         26.7120  -19.4900    2.2340 N.2       1 ADK        -0.3604
     10 C8         25.6950  -20.2680    1.8410 C.2       1 ADK        -0.0216
     11 C3A        27.9200  -23.8350    1.5190 C.3       1 ADK         0.0586
     12 H1         30.3956  -22.9298    2.2392 H         1 ADK         0.1719
     13 H2         28.7308  -17.8776    3.0745 H         1 ADK         0.1984
     14 H3         30.4167  -18.4193    3.2919 H         1 ADK         0.1984
     15 H4         24.6572  -19.9636    1.7136 H         1 ADK         0.0727
     16 H5         26.8448  -23.8501    1.2870 H         1 ADK         0.0597
     17 H6         28.1274  -24.5351    2.3417 H         1 ADK         0.0597
     18 H7         28.4915  -24.1359    0.6286 H         1 ADK         0.0597
@<TRIPOS>BOND
     1    1    2 2  
     2    1   10 1  
     3    2    3 1  
     4    2    8 1  
     5    3    4 1  
     6    3   11 1  
     7    4    5 2  
     8    5    6 1  
     9    6    7 1  
    10    6    8 2  
    11    8    9 1  
    12    9   10 2  
    13    4   12 1  
    14    7   13 1  
    15    7   14 1  
    16   10   15 1  
    17   11   16 1  
    18   11   17 1  
    19   11   18 1  
@<TRIPOS>SUBSTRUCTURE
     1 ADK         1

