### 
### Created by X-TOOL on Mon Sep 10 21:13:11 2018
### 

@<TRIPOS>MOLECULE
4ai8_ligand
   23    22     1     0     0
SMALL
GAST_HUCK


@<TRIPOS>ATOM
      1 O10        17.9010   24.4170   27.7210 O.co2     1 DZA        -0.5689
      2 C09        18.0340   24.9420   28.8430 C.2       1 DZA         0.0370
      3 O11        17.1220   25.3240   29.5850 O.co2     1 DZA        -0.5689
      4 C08        19.3640   25.6400   29.1560 C.3       1 DZA         0.0172
      5 C07        20.4010   24.7400   28.5030 C.3       1 DZA         0.0531
      6 C02        21.7030   25.5500   28.5180 C.2       1 DZA         0.2147
      7 O01        21.7870   26.6790   28.9400 O.2       1 DZA        -0.3922
      8 N03        22.7330   24.8630   28.0050 N.am      1 DZA        -0.2540
      9 N04        23.7060   25.4240   27.9990 N.4       1 DZA         0.3672
     10 C06        24.5390   24.5780   28.8650 C.3       1 DZA        -0.0193
     11 C05        24.0980   25.5210   26.5790 C.3       1 DZA        -0.0193
     12 H1         19.5278   25.7047   30.2418 H         1 DZA         0.0455
     13 H2         19.3899   26.6497   28.7204 H         1 DZA         0.0455
     14 H3         20.1080   24.5000   27.4703 H         1 DZA         0.0522
     15 H4         20.5195   23.8088   29.0764 H         1 DZA         0.0522
     16 H5         22.6429   23.9298   27.6570 H         1 DZA         0.2382
     17 H6         23.6239   26.3496   28.3896 H         1 DZA         0.2291
     18 H7         25.5436   25.0178   28.9504 H         1 DZA         0.0784
     19 H8         24.6155   23.5707   28.4297 H         1 DZA         0.0784
     20 H9         24.0815   24.5123   29.8632 H         1 DZA         0.0784
     21 H10        25.0513   26.0638   26.4981 H         1 DZA         0.0784
     22 H11        23.3199   26.0612   26.0199 H         1 DZA         0.0784
     23 H12        24.2150   24.5103   26.1610 H         1 DZA         0.0784
@<TRIPOS>BOND
     1    1    2 ar 
     2    2    3 ar 
     3    2    4 1  
     4    4    5 1  
     5    5    6 1  
     6    6    7 2  
     7    6    8 am 
     8    8    9 1  
     9    9   10 1  
    10    9   11 1  
    11    4   12 1  
    12    4   13 1  
    13    5   14 1  
    14    5   15 1  
    15    8   16 1  
    16    9   17 1  
    17   10   18 1  
    18   10   19 1  
    19   10   20 1  
    20   11   21 1  
    21   11   22 1  
    22   11   23 1  
@<TRIPOS>SUBSTRUCTURE
     1 DZA         1

