### 
### Created by X-TOOL on Mon Sep 10 21:13:09 2018
### 

@<TRIPOS>MOLECULE
4aia_ligand
   18    19     1     0     0
SMALL
GAST_HUCK


@<TRIPOS>ATOM
      1 N9         30.5610  -19.8250    2.7660 N.2       1 ADK        -0.3434
      2 C4         29.7040  -20.8150    2.4760 C.2       1 ADK         0.1303
      3 N3         29.9060  -22.1390    2.2820 N.pl3     1 ADK        -0.2039
      4 C2         28.8360  -22.9570    1.9950 C.2       1 ADK         0.1599
      5 N1         27.6130  -22.4810    1.9080 N.2       1 ADK        -0.2043
      6 C6         27.4230  -21.1340    2.1200 C.2       1 ADK         0.1586
      7 N6         26.1920  -20.6440    2.0520 N.pl3     1 ADK        -0.2911
      8 C5         28.4630  -20.3160    2.4140 C.2       1 ADK         0.0970
      9 N7         28.5560  -19.0100    2.6660 N.2       1 ADK        -0.3604
     10 C8         29.8380  -18.6900    2.8940 C.2       1 ADK        -0.0216
     11 C3A        31.2850  -22.7350    2.3440 C.3       1 ADK         0.0586
     12 H1         29.0061  -24.0209    1.8367 H         1 ADK         0.1719
     13 H2         26.0284  -19.6390    2.2074 H         1 ADK         0.1984
     14 H3         25.3999  -21.2686    1.8438 H         1 ADK         0.1984
     15 H4         30.2243  -17.7012    3.1368 H         1 ADK         0.0727
     16 H5         32.0146  -21.9471    2.5826 H         1 ADK         0.0597
     17 H6         31.5347  -23.1834    1.3711 H         1 ADK         0.0597
     18 H7         31.3146  -23.5104    3.1236 H         1 ADK         0.0597
@<TRIPOS>BOND
     1    1    2 2  
     2    1   10 1  
     3    2    3 1  
     4    2    8 1  
     5    3    4 1  
     6    3   11 1  
     7    4    5 2  
     8    5    6 1  
     9    6    7 1  
    10    6    8 2  
    11    8    9 1  
    12    9   10 2  
    13    4   12 1  
    14    7   13 1  
    15    7   14 1  
    16   10   15 1  
    17   11   16 1  
    18   11   17 1  
    19   11   18 1  
@<TRIPOS>SUBSTRUCTURE
     1 ADK         1

