### 
### Created by X-TOOL on Mon Sep 10 21:13:09 2018
### 

@<TRIPOS>MOLECULE
4aj1_ligand
   26    27     1     0     0
SMALL
GAST_HUCK


@<TRIPOS>ATOM
      1 C1         16.2620   -7.0320    2.8090 C.3       1 AJ1         0.0313
      2 C2         17.3180   -7.1970    1.7360 C.2       1 AJ1         0.1988
      3 O3         17.4300   -8.2210    1.0580 O.2       1 AJ1        -0.3860
      4 N4         18.1550   -6.1210    1.5830 N.am      1 AJ1        -0.2392
      5 C5         19.4650   -6.1310    1.0090 C.ar      1 AJ1         0.0549
      6 C6         20.5500   -5.5310    1.6600 C.ar      1 AJ1        -0.0521
      7 C7         21.8110   -5.5480    1.0890 C.ar      1 AJ1        -0.0733
      8 C8         22.0300   -6.1640   -0.1350 C.ar      1 AJ1        -0.0028
      9 C9         20.9340   -6.7580   -0.7670 C.ar      1 AJ1         0.0366
     10 C10        19.6630   -6.7430   -0.2070 C.ar      1 AJ1        -0.0325
     11 S11        21.4220   -7.4670   -2.2850 S.3       1 AJ1         0.0212
     12 C12        23.0680   -6.9040   -1.9670 C.2       1 AJ1         0.1789
     13 N13        23.2370   -6.2650   -0.8380 N.2       1 AJ1        -0.3178
     14 N14        24.0810   -7.1390   -2.8410 N.pl3     1 AJ1        -0.2854
     15 C15        23.9560   -7.9510   -4.0550 C.3       1 AJ1         0.0228
     16 H          15.2728   -7.1264    2.3610 H         1 AJ1         0.0471
     17 H          16.3936   -7.8031    3.5681 H         1 AJ1         0.0471
     18 H          16.3623   -6.0482    3.2674 H         1 AJ1         0.0471
     19 H          17.8071   -5.2206    1.9127 H         1 AJ1         0.2236
     20 H          20.4003   -5.0463    2.6248 H         1 AJ1         0.0452
     21 H          22.6428   -5.0713    1.6077 H         1 AJ1         0.0511
     22 H          18.8284   -7.2128   -0.7274 H         1 AJ1         0.0434
     23 H          24.9898   -6.7224   -2.6389 H         1 AJ1         0.1913
     24 H          23.6605   -8.9645   -3.7838 H         1 AJ1         0.0495
     25 H          23.2004   -7.5131   -4.7073 H         1 AJ1         0.0495
     26 H          24.9145   -7.9771   -4.5734 H         1 AJ1         0.0495
@<TRIPOS>BOND
     1    1    2 1  
     2    2    3 2  
     3    2    4 am 
     4    4    5 1  
     5    5    6 ar 
     6    5   10 ar 
     7    6    7 ar 
     8    7    8 ar 
     9    8    9 ar 
    10    8   13 1  
    11    9   10 ar 
    12    9   11 1  
    13   11   12 1  
    14   12   13 2  
    15   12   14 1  
    16   14   15 1  
    17    1   16 1  
    18    1   17 1  
    19    1   18 1  
    20    4   19 1  
    21    6   20 1  
    22    7   21 1  
    23   10   22 1  
    24   14   23 1  
    25   15   24 1  
    26   15   25 1  
    27   15   26 1  
@<TRIPOS>SUBSTRUCTURE
     1 AJ1         1

