### 
### Created by X-TOOL on Mon Sep 10 21:13:08 2018
### 

@<TRIPOS>MOLECULE
4aj2_ligand
   17    18     1     0     0
SMALL
GAST_HUCK


@<TRIPOS>ATOM
      1 C1         21.9880   -7.4010   -1.6390 C.ar      1 52C        -0.0568
      2 C2         21.2130   -6.8870   -0.6230 C.ar      1 52C        -0.0576
      3 C3         21.7390   -5.9360    0.2390 C.ar      1 52C        -0.0430
      4 C4         23.0510   -5.5100    0.0680 C.ar      1 52C         0.0586
      5 C5         23.8560   -6.0200   -0.9520 C.ar      1 52C         0.0540
      6 C6         23.3050   -6.9740   -1.8100 C.ar      1 52C        -0.0436
      7 C7         25.2520   -5.6040   -1.1760 C.2       1 52C         0.1859
      8 N8         26.1390   -5.2520   -0.2570 N.pl3     1 52C        -0.1509
      9 N9         27.2870   -4.9630   -0.9280 N.2       1 52C        -0.0637
     10 N10        27.1230   -5.1230   -2.2000 N.2       1 52C        -0.1384
     11 N11        25.8490   -5.5280   -2.3730 N.2       1 52C        -0.2073
     12 CL1        23.6430   -4.3140    1.1810 Cl        1 52C        -0.0651
     13 H          21.5692   -8.1470   -2.3144 H         1 52C         0.0629
     14 H          20.1854   -7.2278   -0.4962 H         1 52C         0.0648
     15 H          21.1286   -5.5262    1.0437 H         1 52C         0.0633
     16 H          23.9078   -7.3877   -2.6185 H         1 52C         0.0662
     17 H          25.9911   -5.2067    0.7512 H         1 52C         0.2706
@<TRIPOS>BOND
     1    1    2 ar 
     2    1    6 ar 
     3    2    3 ar 
     4    3    4 ar 
     5    4    5 ar 
     6    4   12 1  
     7    5    6 ar 
     8    5    7 1  
     9    7    8 1  
    10    7   11 2  
    11    8    9 1  
    12    9   10 2  
    13   10   11 1  
    14    1   13 1  
    15    2   14 1  
    16    3   15 1  
    17    6   16 1  
    18    8   17 1  
@<TRIPOS>SUBSTRUCTURE
     1 52C         1

