### 
### Created by X-TOOL on Mon Sep 10 21:13:10 2018
### 

@<TRIPOS>MOLECULE
4aj4_ligand
   34    35     1     0     0
SMALL
GAST_HUCK


@<TRIPOS>ATOM
      1 C8         21.7770   -5.4960    1.0500 C.ar      1 VAB        -0.0688
      2 C9         20.4890   -5.5500    1.5650 C.ar      1 VAB        -0.0494
      3 C11        19.7700   -6.8820   -0.3270 C.ar      1 VAB        -0.0301
      4 C7         22.0780   -6.1340   -0.1540 C.ar      1 VAB         0.0098
      5 C10        19.4800   -6.2330    0.8880 C.ar      1 VAB         0.0572
      6 C12        21.0620   -6.8230   -0.8200 C.ar      1 VAB         0.0404
      7 C5         23.2510   -6.8320   -1.8730 C.2       1 VAB         0.1560
      8 C1         24.0660   -6.9220   -6.8160 C.2       1 VAB        -0.1165
      9 C2         23.9170   -6.6530   -5.5830 C.2       1 VAB        -0.0762
     10 C15        17.2360   -7.2470    1.3080 C.2       1 VAB         0.2042
     11 C19        13.7820   -7.9960    2.5650 C.2       1 VAB         0.0370
     12 C3         23.9500   -7.6870   -4.4920 C.3       1 VAB         0.0443
     13 C17        15.8260   -6.8180    1.5640 C.3       1 VAB         0.0544
     14 C18        15.2080   -7.5710    2.7440 C.3       1 VAB         0.0175
     15 N6         23.3210   -6.1620   -0.7800 N.2       1 VAB        -0.3086
     16 N14        18.1690   -6.2600    1.4560 N.am      1 VAB        -0.2376
     17 O16        17.5250   -8.4130    0.9830 O.2       1 VAB        -0.3852
     18 O20        13.0470   -7.5680    1.6790 O.co2     1 VAB        -0.5689
     19 O21        13.3880   -8.8580    3.4650 O.co2     1 VAB        -0.5689
     20 S13        21.6920   -7.5170   -2.2810 S.3       1 VAB         0.0124
     21 S4         24.6380   -7.0820   -2.9020 S.3       1 VAB        -0.0316
     22 H1         22.5508   -4.9569    1.5844 H         1 VAB         0.0532
     23 H2         20.2656   -5.0558    2.5036 H         1 VAB         0.0460
     24 H3         18.9967   -7.4174   -0.8659 H         1 VAB         0.0438
     25 H4         24.0310   -6.1235   -7.5556 H         1 VAB         0.0290
     26 H5         24.2287   -7.9511   -7.1330 H         1 VAB         0.0290
     27 H6         23.7561   -5.6137   -5.3003 H         1 VAB         0.0683
     28 H7         24.5661   -8.5311   -4.8354 H         1 VAB         0.0592
     29 H8         22.9212   -8.0327   -4.3132 H         1 VAB         0.0592
     30 H9         15.2254   -7.0131    0.6633 H         1 VAB         0.0525
     31 H10        15.8162   -5.7405    1.7849 H         1 VAB         0.0525
     32 H11        15.8105   -8.4739    2.9223 H         1 VAB         0.0455
     33 H12        15.2580   -6.9165    3.6267 H         1 VAB         0.0455
     34 H13        17.9078   -5.4763    2.0195 H         1 VAB         0.2244
@<TRIPOS>BOND
     1    2    1 ar 
     2    1    4 ar 
     3    5    2 ar 
     4    5    3 ar 
     5    3    6 ar 
     6    6    4 ar 
     7    4   15 1  
     8   16    5 1  
     9    6   20 1  
    10    7   15 2  
    11   20    7 1  
    12    7   21 1  
    13    9    8 2  
    14   12    9 1  
    15   13   10 1  
    16   10   16 am 
    17   10   17 2  
    18   14   11 1  
    19   11   18 ar 
    20   11   19 ar 
    21   21   12 1  
    22   13   14 1  
    23    1   22 1  
    24    2   23 1  
    25    3   24 1  
    26    8   25 1  
    27    8   26 1  
    28    9   27 1  
    29   12   28 1  
    30   12   29 1  
    31   13   30 1  
    32   13   31 1  
    33   14   32 1  
    34   14   33 1  
    35   16   34 1  
@<TRIPOS>SUBSTRUCTURE
     1 VAB         1

