### 
### Created by X-TOOL on Mon Sep 10 21:13:10 2018
### 

@<TRIPOS>MOLECULE
4aje_ligand
   20    20     1     0     0
SMALL
GAST_HUCK


@<TRIPOS>ATOM
      1 C1         14.9060  -15.3250    9.9550 C.ar      1 2B4        -0.0299
      2 C5         12.9110  -14.3790    8.9990 C.ar      1 2B4        -0.0299
      3 C2         15.6810  -14.5750    9.0850 C.ar      1 2B4        -0.0611
      4 C4         13.6820  -13.6340    8.1280 C.ar      1 2B4        -0.0611
      5 C6         13.5280  -15.2260    9.9090 C.ar      1 2B4         0.0992
      6 C3         15.0650  -13.7460    8.1910 C.ar      1 2B4         0.0012
      7 C9         12.9480  -18.0520    9.7010 C.2       1 2B4         0.0828
      8 C12        11.8740  -17.8390   11.9670 C.2       1 2B4         0.0828
      9 C8         12.9700  -17.3300   11.0390 C.3       1 2B4         0.1854
     10 O10        12.1170  -17.7870    8.8100 O.co2     1 2B4        -0.5643
     11 O13        11.9350  -18.9170   12.5440 O.co2     1 2B4        -0.5643
     12 O11        13.9000  -18.9200    9.6030 O.co2     1 2B4        -0.5643
     13 O14        10.8800  -17.0160   12.0710 O.co2     1 2B4        -0.5643
     14 O7         12.7120  -15.9270   10.7650 O.3       1 2B4        -0.2846
     15 BR1        16.1290  -12.7180    7.0080 Br        1 2B4        -0.0600
     16 H1         15.3793  -15.9880   10.6702 H         1 2B4         0.0549
     17 H2         11.8300  -14.3025    8.9719 H         1 2B4         0.0549
     18 H3         16.7624  -14.6452    9.1135 H         1 2B4         0.0615
     19 H4         13.2152  -12.9727    7.4070 H         1 2B4         0.0615
     20 H5         13.9516  -17.4578   11.5186 H         1 2B4         0.0993
@<TRIPOS>BOND
     1    1    3 ar 
     2    5    1 ar 
     3    2    4 ar 
     4    5    2 ar 
     5    3    6 ar 
     6    4    6 ar 
     7   14    5 1  
     8    6   15 1  
     9    9    7 1  
    10    7   10 ar 
    11    7   12 ar 
    12    9    8 1  
    13    8   11 ar 
    14    8   13 ar 
    15    9   14 1  
    16    1   16 1  
    17    2   17 1  
    18    3   18 1  
    19    4   19 1  
    20    9   20 1  
@<TRIPOS>SUBSTRUCTURE
     1 2B4         1

