### 
### Created by X-TOOL on Mon Sep 10 21:13:08 2018
### 

@<TRIPOS>MOLECULE
4aji_ligand
   30    30     1     0     0
SMALL
GAST_HUCK


@<TRIPOS>ATOM
      1 C1         16.3310  -12.2350    6.6250 C.3       1 88R         0.0554
      2 O2         15.3780  -13.2870    6.5400 O.3       1 88R        -0.3294
      3 C3         14.8900  -13.8030    7.7110 C.ar      1 88R         0.1122
      4 C4         15.6690  -14.3640    8.7120 C.ar      1 88R        -0.0479
      5 C5         15.0680  -14.8800    9.8700 C.ar      1 88R        -0.0799
      6 C6         13.6880  -14.8220   10.0300 C.ar      1 88R        -0.0591
      7 C7         12.9170  -14.2750    9.0140 C.ar      1 88R        -0.0396
      8 C8         13.4940  -13.7570    7.8720 C.ar      1 88R         0.1132
      9 O9         12.7930  -13.1900    6.8520 O.3       1 88R        -0.3266
     10 C10        11.4660  -12.6830    7.1470 C.3       1 88R         0.0568
     11 C11        13.0080  -15.4020   11.2260 C.3       1 88R        -0.0007
     12 C12        12.3200  -16.7450   10.9320 C.3       1 88R         0.0719
     13 C13        13.3410  -17.8070   10.6100 C.2       1 88R         0.0528
     14 O14        14.3990  -17.8520   11.1690 O.co2     1 88R        -0.5665
     15 O15        12.9610  -18.6800    9.6960 O.co2     1 88R        -0.5665
     16 C16        11.4810  -17.2020   12.0950 C.2       1 88R         0.0528
     17 O17        11.8120  -18.1680   12.7680 O.co2     1 88R        -0.5665
     18 O18        10.3970  -16.4440   12.3270 O.co2     1 88R        -0.5665
     19 H1         16.6280  -11.9266    5.6117 H         1 88R         0.0570
     20 H2         17.2162  -12.5858    7.1757 H         1 88R         0.0570
     21 H3         15.8860  -11.3789    7.1532 H         1 88R         0.0570
     22 H4         16.7464  -14.4039    8.5992 H         1 88R         0.0493
     23 H5         15.6824  -15.3260   10.6437 H         1 88R         0.0436
     24 H6         11.8383  -14.2541    9.1195 H         1 88R         0.0450
     25 H7         11.0248  -12.2571    6.2338 H         1 88R         0.0573
     26 H8         11.5349  -11.9027    7.9192 H         1 88R         0.0573
     27 H9         10.8322  -13.5048    7.5116 H         1 88R         0.0573
     28 H10        12.2484  -14.6885   11.5780 H         1 88R         0.0442
     29 H11        13.7584  -15.5577   12.0150 H         1 88R         0.0442
     30 H12        11.6637  -16.6113   10.0594 H         1 88R         0.0651
@<TRIPOS>BOND
     1    1    2 1  
     2    2    3 1  
     3    3    4 ar 
     4    3    8 ar 
     5    4    5 ar 
     6    5    6 ar 
     7    6    7 ar 
     8    6   11 1  
     9    7    8 ar 
    10    8    9 1  
    11    9   10 1  
    12   11   12 1  
    13   12   13 1  
    14   12   16 1  
    15   13   14 ar 
    16   13   15 ar 
    17   16   17 ar 
    18   16   18 ar 
    19    1   19 1  
    20    1   20 1  
    21    1   21 1  
    22    4   22 1  
    23    5   23 1  
    24    7   24 1  
    25   10   25 1  
    26   10   26 1  
    27   10   27 1  
    28   11   28 1  
    29   11   29 1  
    30   12   30 1  
@<TRIPOS>SUBSTRUCTURE
     1 88R         1

