### 
### Created by X-TOOL on Mon Sep 10 21:13:08 2018
### 

@<TRIPOS>MOLECULE
4ajk_ligand
   33    34     1     0     0
SMALL
GAST_HUCK


@<TRIPOS>ATOM
      1 C5         21.9800   -5.3940    0.9900 C.ar      1 88S        -0.0688
      2 C6         20.7020   -5.3430    1.5300 C.ar      1 88S        -0.0494
      3 C8         19.8480   -6.7140   -0.2870 C.ar      1 88S        -0.0301
      4 C4         22.2060   -6.1070   -0.1950 C.ar      1 88S         0.0090
      5 C7         19.6340   -6.0060    0.9050 C.ar      1 88S         0.0572
      6 C9         21.1290   -6.7460   -0.8180 C.ar      1 88S         0.0395
      7 C2         23.2760   -6.9210   -1.9670 C.2       1 88S         0.0882
      8 C12        17.4330   -6.9550    1.5790 C.2       1 88S         0.2045
      9 C17        14.9630   -9.5250    3.7530 C.2       1 88S         0.2549
     10 C1         24.4100   -7.2100   -2.8850 C.3       1 88S         0.0079
     11 C14        16.2480   -6.6180    2.4630 C.3       1 88S         0.0629
     12 C15        15.0840   -7.5580    2.2680 C.3       1 88S         0.0484
     13 N3         23.4200   -6.2250   -0.8640 N.2       1 88S        -0.3185
     14 N19        15.1390  -10.8540    3.8190 N.am      1 88S        -0.2870
     15 N11        18.3380   -5.9540    1.4820 N.am      1 88S        -0.2377
     16 N16        15.4410   -8.9210    2.6590 N.am      1 88S        -0.2711
     17 O13        17.5550   -8.0590    1.0050 O.2       1 88S        -0.3853
     18 O18        14.3910   -8.8850    4.6580 O.2       1 88S        -0.4010
     19 S10        21.6700   -7.5160   -2.2740 S.3       1 88S        -0.0003
     20 H          22.8043   -4.8815    1.4858 H         1 88S         0.0532
     21 H          20.5261   -4.7827    2.4483 H         1 88S         0.0460
     22 H          19.0257   -7.2277   -0.7850 H         1 88S         0.0438
     23 H          24.8300   -6.2720   -3.2481 H         1 88S         0.0497
     24 H          25.1766   -7.7692   -2.3486 H         1 88S         0.0497
     25 H          24.0516   -7.7998   -3.7287 H         1 88S         0.0497
     26 H          15.9127   -5.6142    2.2020 H         1 88S         0.0527
     27 H          16.5724   -6.7004    3.5003 H         1 88S         0.0527
     28 H          14.8066   -7.5576    1.2139 H         1 88S         0.0542
     29 H          14.2544   -7.2215    2.8898 H         1 88S         0.0542
     30 H          14.8002  -11.3737    4.6286 H         1 88S         0.1808
     31 H          15.6116  -11.3442    3.0596 H         1 88S         0.1808
     32 H          18.0552   -5.0541    1.8700 H         1 88S         0.2244
     33 H          16.0892   -9.4391    2.0659 H         1 88S         0.1846
@<TRIPOS>BOND
     1    2    1 ar 
     2    1    4 ar 
     3    5    2 ar 
     4    5    3 ar 
     5    3    6 ar 
     6    6    4 ar 
     7    4   13 1  
     8   15    5 1  
     9    6   19 1  
    10    7   10 1  
    11    7   13 2  
    12   19    7 1  
    13   11    8 1  
    14    8   15 am 
    15    8   17 2  
    16    9   14 am 
    17   16    9 am 
    18    9   18 2  
    19   12   11 1  
    20   12   16 1  
    21    1   20 1  
    22    2   21 1  
    23    3   22 1  
    24   10   23 1  
    25   10   24 1  
    26   10   25 1  
    27   11   26 1  
    28   11   27 1  
    29   12   28 1  
    30   12   29 1  
    31   14   30 1  
    32   14   31 1  
    33   15   32 1  
    34   16   33 1  
@<TRIPOS>SUBSTRUCTURE
     1 88S         1

