### 
### Created by X-TOOL on Mon Sep 10 21:13:09 2018
### 

@<TRIPOS>MOLECULE
4ajn_ligand
   59    61     1     0     0
SMALL
GAST_HUCK


@<TRIPOS>ATOM
      1 C23        15.3590  -14.1690    8.4600 C.ar      1 88V        -0.0668
      2 C27        13.1920  -13.8880    7.5330 C.ar      1 88V        -0.0668
      3 C24        14.8040  -14.7640    9.5770 C.ar      1 88V        -0.0666
      4 C26        12.6360  -14.4760    8.6550 C.ar      1 88V        -0.0666
      5 C5         21.6850   -5.7460    1.1870 C.ar      1 88V        -0.0688
      6 C6         20.4150   -5.7470    1.7350 C.ar      1 88V        -0.0494
      7 C8         19.6120   -7.1540   -0.0470 C.ar      1 88V        -0.0301
      8 C22        14.5620  -13.7190    7.4220 C.ar      1 88V        -0.0478
      9 C25        13.4340  -14.9270    9.6920 C.ar      1 88V        -0.0462
     10 C4         21.9360   -6.4560    0.0130 C.ar      1 88V         0.0090
     11 C7         19.3790   -6.4410    1.1240 C.ar      1 88V         0.0572
     12 C9         20.8890   -7.1550   -0.5850 C.ar      1 88V         0.0395
     13 C2         23.0460   -7.2960   -1.7200 C.2       1 88V         0.0882
     14 C12        17.2990   -7.5250    1.9040 C.2       1 88V         0.2045
     15 C30        11.2270  -17.3010   11.8450 C.2       1 88V         0.0529
     16 C33        12.5010  -17.8210    9.7680 C.2       1 88V         0.0529
     17 C17        14.8860   -9.9040    4.3100 C.2       1 88V         0.2576
     18 C1         24.2130   -7.5670   -2.6070 C.3       1 88V         0.0079
     19 C21        15.1840  -13.0990    6.1900 C.3       1 88V        -0.0022
     20 C28        12.8380  -15.5820   10.9180 C.3       1 88V         0.0037
     21 C14        16.0770   -7.2790    2.7630 C.3       1 88V         0.0629
     22 C20        14.8340  -11.6450    6.0080 C.3       1 88V         0.0399
     23 C15        14.9550   -8.2560    2.4840 C.3       1 88V         0.0484
     24 C29        11.8470  -16.7170   10.5850 C.3       1 88V         0.0726
     25 N3         23.1580   -6.5480   -0.6490 N.2       1 88V        -0.3185
     26 N11        18.0850   -6.4400    1.6990 N.am      1 88V        -0.2377
     27 N19        15.0140  -11.2000    4.6320 N.am      1 88V        -0.2714
     28 N16        15.2060   -9.5780    3.0480 N.am      1 88V        -0.2709
     29 O13        17.5310   -8.6290    1.4160 O.2       1 88V        -0.3853
     30 O31        11.6780  -18.2910   12.3960 O.co2     1 88V        -0.5665
     31 O34        13.5150  -18.3700   10.1620 O.co2     1 88V        -0.5665
     32 O18        14.4540   -9.0810    5.1110 O.2       1 88V        -0.4008
     33 O32        10.1610  -16.6690   12.2470 O.co2     1 88V        -0.5665
     34 O35        11.9060  -18.1110    8.6410 O.co2     1 88V        -0.5665
     35 S10        21.4670   -7.9410   -2.0260 S.3       1 88V        -0.0003
     36 H          16.4408  -14.0524    8.3956 H         1 88V         0.0540
     37 H          12.5423  -13.5528    6.7245 H         1 88V         0.0540
     38 H          15.4549  -15.1103   10.3798 H         1 88V         0.0540
     39 H          11.5537  -14.5857    8.7234 H         1 88V         0.0540
     40 H          22.4883   -5.1913    1.6718 H         1 88V         0.0532
     41 H          20.2253   -5.1969    2.6567 H         1 88V         0.0460
     42 H          18.8048   -7.7021   -0.5328 H         1 88V         0.0438
     43 H          24.5954   -6.6250   -3.0002 H         1 88V         0.0497
     44 H          24.9943   -8.0672   -2.0347 H         1 88V         0.0497
     45 H          23.8997   -8.2063   -3.4324 H         1 88V         0.0497
     46 H          14.8030  -13.6390    5.3232 H         1 88V         0.0432
     47 H          16.2664  -13.1643    6.3009 H         1 88V         0.0432
     48 H          12.2888  -14.8162   11.4658 H         1 88V         0.0451
     49 H          13.6576  -16.0181   11.4890 H         1 88V         0.0451
     50 H          15.7095   -6.2773    2.5403 H         1 88V         0.0527
     51 H          16.3726   -7.4000    3.8051 H         1 88V         0.0527
     52 H          15.4960  -11.0561    6.6429 H         1 88V         0.0538
     53 H          13.7842  -11.5148    6.2706 H         1 88V         0.0538
     54 H          14.8670   -8.3646    1.4030 H         1 88V         0.0542
     55 H          14.0476   -7.8633    2.9427 H         1 88V         0.0542
     56 H          11.0562  -16.2716    9.9814 H         1 88V         0.0652
     57 H          17.7085   -5.5366    1.9863 H         1 88V         0.2244
     58 H          15.2395  -11.8807    3.9066 H         1 88V         0.1847
     59 H          15.6437  -10.2852    2.4575 H         1 88V         0.1847
@<TRIPOS>BOND
     1    1    3 ar 
     2    8    1 ar 
     3    2    4 ar 
     4    8    2 ar 
     5    3    9 ar 
     6    4    9 ar 
     7    6    5 ar 
     8    5   10 ar 
     9   11    6 ar 
    10   11    7 ar 
    11    7   12 ar 
    12   19    8 1  
    13    9   20 1  
    14   12   10 ar 
    15   10   25 1  
    16   26   11 1  
    17   12   35 1  
    18   13   18 1  
    19   13   25 2  
    20   35   13 1  
    21   21   14 1  
    22   14   26 am 
    23   14   29 2  
    24   24   15 1  
    25   15   30 ar 
    26   15   33 ar 
    27   24   16 1  
    28   16   31 ar 
    29   16   34 ar 
    30   17   27 am 
    31   28   17 am 
    32   17   32 2  
    33   22   19 1  
    34   20   24 1  
    35   23   21 1  
    36   27   22 1  
    37   23   28 1  
    38    1   36 1  
    39    2   37 1  
    40    3   38 1  
    41    4   39 1  
    42    5   40 1  
    43    6   41 1  
    44    7   42 1  
    45   18   43 1  
    46   18   44 1  
    47   18   45 1  
    48   19   46 1  
    49   19   47 1  
    50   20   48 1  
    51   20   49 1  
    52   21   50 1  
    53   21   51 1  
    54   22   52 1  
    55   22   53 1  
    56   23   54 1  
    57   23   55 1  
    58   24   56 1  
    59   26   57 1  
    60   27   58 1  
    61   28   59 1  
@<TRIPOS>SUBSTRUCTURE
     1 88V         1

