### 
### Created by X-TOOL on Mon Sep 10 21:13:08 2018
### 

@<TRIPOS>MOLECULE
4ajo_ligand
   60    62     1     0     0
SMALL
GAST_HUCK


@<TRIPOS>ATOM
      1 C23        15.3580  -14.2740    8.4560 C.ar      1 88N        -0.0668
      2 C27        13.2060  -13.9100    7.5280 C.ar      1 88N        -0.0668
      3 C24        14.7790  -14.8430    9.5740 C.ar      1 88N        -0.0666
      4 C26        12.6260  -14.4780    8.6470 C.ar      1 88N        -0.0666
      5 C5         21.7010   -5.7230    1.1620 C.ar      1 88N        -0.0688
      6 C6         20.4310   -5.7000    1.7080 C.ar      1 88N        -0.0494
      7 C8         19.6040   -7.0820   -0.0800 C.ar      1 88N        -0.0301
      8 C22        14.5800  -13.8050    7.4140 C.ar      1 88N        -0.0496
      9 C25        13.4050  -14.9540    9.6860 C.ar      1 88N        -0.0462
     10 C4         21.9390   -6.4250   -0.0200 C.ar      1 88N         0.0090
     11 C7         19.3810   -6.3650    1.0900 C.ar      1 88N         0.0572
     12 C9         20.8770   -7.0970   -0.6250 C.ar      1 88N         0.0395
     13 C2         23.0280   -7.2700   -1.7670 C.2       1 88N         0.0882
     14 C12        17.2660   -7.4210    1.8220 C.2       1 88N         0.2045
     15 C17        14.9260   -9.8850    4.2060 C.2       1 88N         0.1762
     16 C30        12.4210  -17.7980    9.6530 C.2       1 88N         0.0529
     17 C33        11.1010  -17.2890   11.7480 C.2       1 88N         0.0529
     18 C1         24.1820   -7.5520   -2.6740 C.3       1 88N         0.0079
     19 C21        15.2250  -13.1910    6.1940 C.3       1 88N        -0.0202
     20 C28        12.7810  -15.6040   10.8930 C.3       1 88N         0.0037
     21 C14        16.0660   -7.1840    2.7080 C.3       1 88N         0.0631
     22 C19        15.1300  -11.3500    4.4860 C.3       1 88N         0.0389
     23 C20        14.7670  -11.7820    5.8920 C.3       1 88N        -0.0272
     24 C15        14.9640   -8.1790    2.4470 C.3       1 88N         0.0481
     25 C29        11.7870  -16.7230   10.5220 C.3       1 88N         0.0726
     26 N3         23.1580   -6.5350   -0.6870 N.2       1 88N        -0.3185
     27 N11        18.0790   -6.3490    1.6570 N.am      1 88N        -0.2377
     28 N16        15.2960   -9.4880    2.9920 N.am      1 88N        -0.2847
     29 O13        17.4630   -8.5130    1.2930 O.2       1 88N        -0.3853
     30 O18        14.4220   -9.1320    5.0380 O.2       1 88N        -0.3971
     31 O31        11.9530  -18.0930    8.5640 O.co2     1 88N        -0.5665
     32 O34        10.1770  -16.6750   12.2530 O.co2     1 88N        -0.5665
     33 O32        13.4880  -18.3420   10.1480 O.co2     1 88N        -0.5665
     34 O35        11.5570  -18.4210   12.2040 O.co2     1 88N        -0.5665
     35 S10        21.4350   -7.8790   -2.0760 S.3       1 88N        -0.0003
     36 H          16.4433  -14.1938    8.3947 H         1 88N         0.0540
     37 H          12.5707  -13.5394    6.7236 H         1 88N         0.0540
     38 H          15.4147  -15.2099   10.3799 H         1 88N         0.0540
     39 H          11.5404  -14.5517    8.7113 H         1 88N         0.0540
     40 H          22.5160   -5.1929    1.6548 H         1 88N         0.0532
     41 H          20.2523   -5.1536    2.6341 H         1 88N         0.0460
     42 H          18.7896   -7.6239   -0.5609 H         1 88N         0.0438
     43 H          24.5750   -6.6125   -3.0627 H         1 88N         0.0497
     44 H          24.9620   -8.0708   -2.1168 H         1 88N         0.0497
     45 H          23.8476   -8.1776   -3.5016 H         1 88N         0.0497
     46 H          14.9486  -13.8086    5.3395 H         1 88N         0.0414
     47 H          16.2970  -13.1460    6.3858 H         1 88N         0.0414
     48 H          12.2316  -14.8369   11.4387 H         1 88N         0.0451
     49 H          13.5814  -16.0505   11.4830 H         1 88N         0.0451
     50 H          15.6802   -6.1863    2.4986 H         1 88N         0.0527
     51 H          16.3826   -7.2912    3.7455 H         1 88N         0.0527
     52 H          16.1930  -11.5529    4.3561 H         1 88N         0.0504
     53 H          14.4758  -11.8970    3.8071 H         1 88N         0.0504
     54 H          15.2612  -11.1079    6.5917 H         1 88N         0.0310
     55 H          13.6815  -11.7512    5.9862 H         1 88N         0.0310
     56 H          14.8298   -8.2747    1.3695 H         1 88N         0.0545
     57 H          14.0529   -7.8230    2.9278 H         1 88N         0.0545
     58 H          11.0082  -16.2688    9.9095 H         1 88N         0.0652
     59 H          17.7221   -5.4460    1.9694 H         1 88N         0.2244
     60 H          15.8382  -10.1310    2.4150 H         1 88N         0.1852
@<TRIPOS>BOND
     1    1    3 ar 
     2    8    1 ar 
     3    2    4 ar 
     4    8    2 ar 
     5    3    9 ar 
     6    4    9 ar 
     7    6    5 ar 
     8    5   10 ar 
     9   11    6 ar 
    10   11    7 ar 
    11    7   12 ar 
    12   19    8 1  
    13    9   20 1  
    14   12   10 ar 
    15   10   26 1  
    16   27   11 1  
    17   12   35 1  
    18   13   18 1  
    19   13   26 2  
    20   35   13 1  
    21   21   14 1  
    22   14   27 am 
    23   14   29 2  
    24   15   22 1  
    25   28   15 am 
    26   15   30 2  
    27   25   16 1  
    28   16   31 ar 
    29   16   33 ar 
    30   25   17 1  
    31   17   32 ar 
    32   17   34 ar 
    33   23   19 1  
    34   20   25 1  
    35   24   21 1  
    36   22   23 1  
    37   24   28 1  
    38    1   36 1  
    39    2   37 1  
    40    3   38 1  
    41    4   39 1  
    42    5   40 1  
    43    6   41 1  
    44    7   42 1  
    45   18   43 1  
    46   18   44 1  
    47   18   45 1  
    48   19   46 1  
    49   19   47 1  
    50   20   48 1  
    51   20   49 1  
    52   21   50 1  
    53   21   51 1  
    54   22   52 1  
    55   22   53 1  
    56   23   54 1  
    57   23   55 1  
    58   24   56 1  
    59   24   57 1  
    60   25   58 1  
    61   27   59 1  
    62   28   60 1  
@<TRIPOS>SUBSTRUCTURE
     1 88N         1

