### 
### Created by X-TOOL on Mon Sep 10 21:13:12 2018
### 

@<TRIPOS>MOLECULE
4ajw_ligand
   43    46     1     0     0
SMALL
GAST_HUCK


@<TRIPOS>ATOM
      1 C1         10.0720   -4.2050    8.7630 C.2       1 VWN         0.0775
      2 N2          9.5460   -3.3900    7.7280 N.pl3     1 VWN        -0.2909
      3 C3          8.6860   -2.2470    8.0620 C.3       1 VWN         0.0554
      4 C4          7.8220   -1.8920    6.8790 C.3       1 VWN         0.0683
      5 O5          8.6020   -1.6330    5.7170 O.3       1 VWN        -0.3757
      6 C6          9.3590   -2.7900    5.3750 C.3       1 VWN         0.0683
      7 C7         10.3000   -3.1830    6.4840 C.3       1 VWN         0.0554
      8 N8         11.1580   -4.9550    8.4310 N.2       1 VWN        -0.2702
      9 C9         11.6940   -5.7390    9.3690 C.2       1 VWN         0.1727
     10 N10        11.1950   -5.8280   10.6730 N.am      1 VWN        -0.1990
     11 C11        10.0940   -5.0920   11.0700 C.2       1 VWN         0.1812
     12 C12         9.5290   -4.2560   10.0560 C.2       1 VWN         0.0017
     13 O13         9.6800   -5.1950   12.2330 O.2       1 VWN        -0.4280
     14 C14        12.5470   -7.6900    8.0860 C.2       1 VWN         0.1469
     15 C15        12.9060   -6.5740    9.0080 C.3       1 VWN         0.1223
     16 N16        13.2910   -8.0030    6.9430 N.pl3     1 VWN        -0.2328
     17 N17        11.5160   -8.4820    8.2700 N.2       1 VWN        -0.3138
     18 C18        11.5640   -9.3780    7.2030 C.ar      1 VWN         0.0222
     19 C19        12.6490   -9.1000    6.3760 C.ar      1 VWN         0.0814
     20 C20        12.9270   -9.8550    5.2450 C.ar      1 VWN        -0.0418
     21 C21        12.0810  -10.9190    4.9510 C.ar      1 VWN        -0.0764
     22 C22        10.9910  -11.2100    5.7670 C.ar      1 VWN        -0.0784
     23 C23        10.7210  -10.4450    6.8970 C.ar      1 VWN        -0.0652
     24 C24        14.4910   -7.3780    6.3890 C.3       1 VWN         0.0463
     25 H           9.3097   -1.3915    8.3212 H         1 VWN         0.0548
     26 H           8.0489   -2.5110    8.9061 H         1 VWN         0.0548
     27 H           7.2589   -0.9911    7.1227 H         1 VWN         0.0580
     28 H           7.1629   -2.7346    6.6697 H         1 VWN         0.0580
     29 H           9.9483   -2.5662    4.4857 H         1 VWN         0.0580
     30 H           8.6683   -3.6149    5.2002 H         1 VWN         0.0580
     31 H          10.8090   -4.1081    6.2134 H         1 VWN         0.0548
     32 H          11.0312   -2.3887    6.6341 H         1 VWN         0.0548
     33 H          11.6517   -6.4470   11.3428 H         1 VWN         0.2563
     34 H           8.6578   -3.6453   10.2928 H         1 VWN         0.0162
     35 H          13.3158   -7.0010    9.9233 H         1 VWN         0.0833
     36 H          13.6304   -5.9320    8.5068 H         1 VWN         0.0833
     37 H          13.7803   -9.6217    4.6082 H         1 VWN         0.0542
     38 H          12.2736  -11.5326    4.0710 H         1 VWN         0.0529
     39 H          10.3407  -12.0483    5.5171 H         1 VWN         0.0516
     40 H           9.8655  -10.6758    7.5318 H         1 VWN         0.0537
     41 H          14.2809   -6.3341    6.1562 H         1 VWN         0.0566
     42 H          15.2982   -7.4334    7.1194 H         1 VWN         0.0566
     43 H          14.7854   -7.9022    5.4798 H         1 VWN         0.0566
@<TRIPOS>BOND
     1    1    2 1  
     2    1    8 1  
     3    1   12 2  
     4    2    3 1  
     5    2    7 1  
     6    3    4 1  
     7    4    5 1  
     8    5    6 1  
     9    6    7 1  
    10    8    9 2  
    11    9   10 1  
    12    9   15 1  
    13   10   11 am 
    14   11   12 1  
    15   11   13 2  
    16   15   14 1  
    17   14   16 1  
    18   14   17 2  
    19   16   19 1  
    20   16   24 1  
    21   17   18 1  
    22   18   19 ar 
    23   18   23 ar 
    24   19   20 ar 
    25   20   21 ar 
    26   21   22 ar 
    27   22   23 ar 
    28    3   25 1  
    29    3   26 1  
    30    4   27 1  
    31    4   28 1  
    32    6   29 1  
    33    6   30 1  
    34    7   31 1  
    35    7   32 1  
    36   10   33 1  
    37   12   34 1  
    38   15   35 1  
    39   15   36 1  
    40   20   37 1  
    41   21   38 1  
    42   22   39 1  
    43   23   40 1  
    44   24   41 1  
    45   24   42 1  
    46   24   43 1  
@<TRIPOS>SUBSTRUCTURE
     1 VWN         1

