### 
### Created by X-TOOL on Mon Sep 10 21:13:09 2018
### 

@<TRIPOS>MOLECULE
4akn_ligand
   55    58     1     0     0
SMALL
GAST_HUCK


@<TRIPOS>ATOM
      1 C01        18.8960    9.4190   -6.5500 C.3       1 S5B        -0.0266
      2 C02        19.8440    8.9080   -7.5830 C.2       1 S5B         0.0250
      3 N01        20.8020    8.0960   -7.2310 N.2       1 S5B        -0.1661
      4 O01        21.5210    7.7910   -8.4190 O.3       1 S5B        -0.1716
      5 C03        20.9470    8.4460   -9.4300 C.2       1 S5B         0.1494
      6 C04        21.5550    8.2550  -10.7680 C.3       1 S5B         0.0144
      7 C05        19.8920    9.1590   -8.9690 C.2       1 S5B         0.0245
      8 C06        19.0120   10.0240   -9.7890 C.ar      1 S5B        -0.0359
      9 C07        19.5580   11.0850  -10.5020 C.ar      1 S5B        -0.0585
     10 C08        18.7770   11.8840  -11.2770 C.ar      1 S5B        -0.0484
     11 C09        17.3810   11.6650  -11.3830 C.ar      1 S5B         0.0366
     12 C10        16.4990   12.4770  -12.1780 C.ar      1 S5B         0.1145
     13 N02        16.9790   13.5580  -12.8890 N.pl3     1 S5B        -0.2371
     14 C11        17.8750   14.5090  -12.2780 C.ar      1 S5B         0.0961
     15 C12        17.7640   14.8130  -10.9200 C.ar      1 S5B        -0.0053
     16 C13        18.6440   15.7040  -10.3310 C.ar      1 S5B        -0.0431
     17 C14        19.6380   16.2940  -11.0770 C.ar      1 S5B        -0.0443
     18 C15        19.7700   16.0050  -12.4240 C.ar      1 S5B        -0.0494
     19 C16        18.9080   15.1100  -13.0530 C.ar      1 S5B        -0.0278
     20 C17        19.1110   14.8270  -14.5600 C.3       1 S5B        -0.0570
     21 C18        19.1730   13.3220  -14.8290 C.3       1 S5B        -0.0926
     22 C19        17.9580   15.4140  -15.3740 C.3       1 S5B        -0.0926
     23 C20        20.4140   15.4410  -15.0840 C.3       1 S5B        -0.0926
     24 C21        15.1240   12.1300  -12.1880 C.ar      1 S5B         0.0603
     25 C22        14.7160   11.0310  -11.4310 C.ar      1 S5B         0.0051
     26 N1         15.4830   10.2770  -10.6840 N.ar      1 S5B        -0.3180
     27 C23        16.8180   10.5810  -10.6560 C.ar      1 S5B         0.0275
     28 C24        17.6620    9.7700   -9.8630 C.ar      1 S5B        -0.0502
     29 C1         14.0850   12.8400  -12.9910 C.2       1 S5B         0.0601
     30 O02        14.5200   13.8350  -13.7050 O.co2     1 S5B        -0.5650
     31 O1         12.9260   12.4520  -13.0260 O.co2     1 S5B        -0.5650
     32 H1         18.1608   10.0855   -7.0247 H         1 S5B         0.0380
     33 H2         19.4545    9.9760   -5.7833 H         1 S5B         0.0380
     34 H3         18.3738    8.5723   -6.0806 H         1 S5B         0.0380
     35 H4         20.9965    8.8423  -11.5117 H         1 S5B         0.0474
     36 H5         21.5177    7.1896  -11.0390 H         1 S5B         0.0474
     37 H6         22.6020    8.5915  -10.7464 H         1 S5B         0.0474
     38 H7         20.6228   11.2784  -10.4392 H         1 S5B         0.0583
     39 H8         19.2304   12.7031  -11.8235 H         1 S5B         0.0655
     40 H9         16.6933   13.6876  -13.8701 H         1 S5B         0.2342
     41 H10        16.9857   14.3494  -10.3247 H         1 S5B         0.0625
     42 H11        18.5496   15.9381   -9.2768 H         1 S5B         0.0812
     43 H12        20.3227   16.9902  -10.6064 H         1 S5B         0.0620
     44 H13        20.5560   16.4823  -12.9980 H         1 S5B         0.0789
     45 H14        19.3175   13.1476  -15.9054 H         1 S5B         0.0110
     46 H15        18.2327   12.8524  -14.5045 H         1 S5B         0.0110
     47 H16        20.0134   12.8840  -14.2706 H         1 S5B         0.0110
     48 H17        17.8965   16.4974  -15.1941 H         1 S5B         0.0110
     49 H18        17.0144   14.9377  -15.0695 H         1 S5B         0.0110
     50 H19        18.1334   15.2294  -16.4441 H         1 S5B         0.0110
     51 H20        21.2645   15.0364  -14.5157 H         1 S5B         0.0110
     52 H21        20.3790   16.5338  -14.9633 H         1 S5B         0.0110
     53 H22        20.5337   15.1934  -16.1490 H         1 S5B         0.0110
     54 H23        13.6627   10.7770  -11.4646 H         1 S5B         0.0833
     55 H24        17.2411    8.9396   -9.3077 H         1 S5B         0.0523
@<TRIPOS>BOND
     1    1    2 1  
     2    2    3 2  
     3    2    7 1  
     4    3    4 1  
     5    4    5 1  
     6    5    6 1  
     7    5    7 2  
     8    7    8 1  
     9    8    9 ar 
    10    8   28 ar 
    11    9   10 ar 
    12   10   11 ar 
    13   11   12 ar 
    14   11   27 ar 
    15   12   13 1  
    16   12   24 ar 
    17   13   14 1  
    18   14   15 ar 
    19   14   19 ar 
    20   15   16 ar 
    21   16   17 ar 
    22   17   18 ar 
    23   18   19 ar 
    24   19   20 1  
    25   20   21 1  
    26   20   22 1  
    27   20   23 1  
    28   24   25 ar 
    29   24   29 1  
    30   25   26 ar 
    31   26   27 ar 
    32   27   28 ar 
    33   29   30 ar 
    34   29   31 ar 
    35    1   32 1  
    36    1   33 1  
    37    1   34 1  
    38    6   35 1  
    39    6   36 1  
    40    6   37 1  
    41    9   38 1  
    42   10   39 1  
    43   13   40 1  
    44   15   41 1  
    45   16   42 1  
    46   17   43 1  
    47   18   44 1  
    48   21   45 1  
    49   21   46 1  
    50   21   47 1  
    51   22   48 1  
    52   22   49 1  
    53   22   50 1  
    54   23   51 1  
    55   23   52 1  
    56   23   53 1  
    57   25   54 1  
    58   28   55 1  
@<TRIPOS>SUBSTRUCTURE
     1 S5B         1

