### 
### Created by X-TOOL on Mon Sep 10 21:13:10 2018
### 

@<TRIPOS>MOLECULE
4al4_ligand
   60    62     1     0     0
SMALL
GAST_HUCK


@<TRIPOS>ATOM
      1 C28        13.2890  -13.9930    8.0910 C.ar      1 W7E        -0.0396
      2 C24        15.3080  -14.6270    9.2130 C.ar      1 W7E        -0.0396
      3 C27        12.5500  -14.5410    9.1230 C.ar      1 W7E        -0.0685
      4 C25        14.5550  -15.2040   10.2190 C.ar      1 W7E        -0.0685
      5 C5         21.5940   -5.8440    1.2450 C.ar      1 W7E        -0.0688
      6 C6         20.3280   -5.8080    1.8020 C.ar      1 W7E        -0.0494
      7 C8         19.4780   -7.2060    0.0350 C.ar      1 W7E        -0.0301
      8 C26        13.1740  -15.1450   10.2030 C.ar      1 W7E        -0.0502
      9 C4         21.8220   -6.5650    0.0720 C.ar      1 W7E         0.0090
     10 C23        14.6700  -14.0120    8.1550 C.ar      1 W7E         0.0841
     11 C7         19.2730   -6.4960    1.2130 C.ar      1 W7E         0.0572
     12 C9         20.7490   -7.2360   -0.5160 C.ar      1 W7E         0.0395
     13 C2         22.8890   -7.4550   -1.6700 C.2       1 W7E         0.0882
     14 C12        17.1260   -7.4910    1.9730 C.2       1 W7E         0.2045
     15 C31        12.0150  -17.8170    9.7670 C.2       1 W7E         0.0528
     16 C34        10.6980  -17.6120   11.8710 C.2       1 W7E         0.0528
     17 C17        14.8770   -9.9600    4.0980 C.2       1 W7E         0.2576
     18 C1         24.0140   -7.8010   -2.5850 C.3       1 W7E         0.0079
     19 C21        14.7510  -12.8410    6.0490 C.3       1 W7E         0.0887
     20 C29        12.3710  -15.8170   11.2870 C.3       1 W7E         0.0017
     21 C14        15.9420   -7.1680    2.8490 C.3       1 W7E         0.0629
     22 C20        15.6850  -11.8200    5.4780 C.3       1 W7E         0.0587
     23 C15        14.7550   -8.0540    2.5580 C.3       1 W7E         0.0484
     24 C30        11.3670  -16.8560   10.7470 C.3       1 W7E         0.0721
     25 N3         23.0330   -6.6950   -0.6090 N.2       1 W7E        -0.3185
     26 N11        17.9810   -6.4600    1.7880 N.am      1 W7E        -0.2377
     27 N19        15.1920  -11.2600    4.2260 N.am      1 W7E        -0.2706
     28 N16        15.0320   -9.4510    2.8650 N.am      1 W7E        -0.2709
     29 O13        17.2760   -8.6020    1.4720 O.2       1 W7E        -0.3853
     30 O32        11.4980  -18.0690    8.6900 O.co2     1 W7E        -0.5665
     31 O35        11.1170  -18.6760   12.2980 O.co2     1 W7E        -0.5665
     32 O18        14.4290   -9.2970    5.0330 O.2       1 W7E        -0.4008
     33 O33        13.1370  -18.3330   10.1620 O.co2     1 W7E        -0.5665
     34 O36         9.6620  -16.9890   12.3430 O.co2     1 W7E        -0.5665
     35 O22        15.4260  -13.4670    7.1460 O.3       1 W7E        -0.3205
     36 S10        21.2820   -8.0300   -1.9680 S.3       1 W7E        -0.0003
     37 H          12.7860  -13.5487    7.2321 H         1 W7E         0.0525
     38 H          16.3967  -14.6576    9.2553 H         1 W7E         0.0525
     39 H          11.4615  -14.4974    9.0867 H         1 W7E         0.0530
     40 H          15.0594  -15.7145   11.0394 H         1 W7E         0.0530
     41 H          22.4144   -5.3086    1.7229 H         1 W7E         0.0532
     42 H          20.1558   -5.2340    2.7125 H         1 W7E         0.0460
     43 H          18.6527   -7.7301   -0.4468 H         1 W7E         0.0438
     44 H          24.4300   -6.8871   -3.0091 H         1 W7E         0.0497
     45 H          24.7868   -8.3279   -2.0254 H         1 W7E         0.0497
     46 H          23.6448   -8.4401   -3.3871 H         1 W7E         0.0497
     47 H          14.4809  -13.5788    5.2935 H         1 W7E         0.0631
     48 H          13.8273  -12.3702    6.3854 H         1 W7E         0.0631
     49 H          11.8004  -15.0440   11.8017 H         1 W7E         0.0443
     50 H          13.0703  -16.3418   11.9379 H         1 W7E         0.0443
     51 H          15.6493   -6.1361    2.6548 H         1 W7E         0.0527
     52 H          16.2359   -7.3266    3.8866 H         1 W7E         0.0527
     53 H          16.6390  -12.3079    5.2783 H         1 W7E         0.0543
     54 H          15.7798  -11.0074    6.1983 H         1 W7E         0.0543
     55 H          14.5231   -7.9769    1.4958 H         1 W7E         0.0542
     56 H          13.9226   -7.7257    3.1804 H         1 W7E         0.0542
     57 H          10.6007  -16.3010   10.2059 H         1 W7E         0.0651
     58 H          17.6549   -5.5456    2.1009 H         1 W7E         0.2244
     59 H          15.0824  -11.8755    3.4200 H         1 W7E         0.1846
     60 H          15.3552  -10.0643    2.1168 H         1 W7E         0.1847
@<TRIPOS>BOND
     1    1    3 ar 
     2   10    1 ar 
     3    2    4 ar 
     4   10    2 ar 
     5    3    8 ar 
     6    4    8 ar 
     7    6    5 ar 
     8    5    9 ar 
     9   11    6 ar 
    10   11    7 ar 
    11    7   12 ar 
    12    8   20 1  
    13   12    9 ar 
    14    9   25 1  
    15   35   10 1  
    16   26   11 1  
    17   12   36 1  
    18   13   18 1  
    19   13   25 2  
    20   36   13 1  
    21   21   14 1  
    22   14   26 am 
    23   14   29 2  
    24   24   15 1  
    25   15   30 ar 
    26   15   33 ar 
    27   24   16 1  
    28   16   31 ar 
    29   16   34 ar 
    30   17   27 am 
    31   28   17 am 
    32   17   32 2  
    33   22   19 1  
    34   19   35 1  
    35   20   24 1  
    36   23   21 1  
    37   27   22 1  
    38   23   28 1  
    39    1   37 1  
    40    2   38 1  
    41    3   39 1  
    42    4   40 1  
    43    5   41 1  
    44    6   42 1  
    45    7   43 1  
    46   18   44 1  
    47   18   45 1  
    48   18   46 1  
    49   19   47 1  
    50   19   48 1  
    51   20   49 1  
    52   20   50 1  
    53   21   51 1  
    54   21   52 1  
    55   22   53 1  
    56   22   54 1  
    57   23   55 1  
    58   23   56 1  
    59   24   57 1  
    60   26   58 1  
    61   27   59 1  
    62   28   60 1  
@<TRIPOS>SUBSTRUCTURE
     1 W7E         1

