### 
### Created by X-TOOL on Mon Sep 10 21:13:09 2018
### 

@<TRIPOS>MOLECULE
4alg_ligand
   52    56     1     0     0
SMALL
GAST_HUCK


@<TRIPOS>ATOM
      1 O2          7.8980   -7.8790   17.0070 O.2       1 1GH        -0.3948
      2 C13         8.7570   -7.0500   17.2640 C.2       1 1GH         0.3170
      3 N1          9.5310   -7.0130   18.4160 N.am      1 1GH        -0.1798
      4 C6          9.4610   -8.0180   19.5040 C.3       1 1GH         0.1161
      5 C8         10.7960   -8.7350   19.6440 C.ar      1 1GH         0.0598
      6 N2         11.1040   -9.2440   20.8470 N.ar      1 1GH        -0.2951
      7 C12        12.2880   -9.8800   20.9690 C.ar      1 1GH         0.0029
      8 C11        13.1900  -10.0160   19.9410 C.ar      1 1GH        -0.0410
      9 C10        12.8600   -9.4860   18.7160 C.ar      1 1GH        -0.0488
     10 C9         11.6500   -8.8370   18.5550 C.ar      1 1GH        -0.0295
     11 C7          8.9190   -7.4290   20.8030 C.3       1 1GH        -0.0232
     12 N3          9.1380   -5.9870   16.5010 N.am      1 1GH        -0.2178
     13 C14        10.1510   -5.2830   17.1310 C.ar      1 1GH         0.1129
     14 C5         10.4290   -5.9030   18.3540 C.ar      1 1GH         0.1198
     15 C15        10.8330   -4.1410   16.7250 C.ar      1 1GH         0.0074
     16 N4         11.7840   -3.5730   17.4270 N.ar      1 1GH        -0.3403
     17 C16        12.0940   -4.1360   18.6410 C.ar      1 1GH         0.0035
     18 C4         11.4530   -5.2920   19.1450 C.ar      1 1GH         0.0071
     19 C3         11.8600   -5.7950   20.4050 C.ar      1 1GH        -0.0324
     20 C17        13.1080   -3.5250   19.4080 C.ar      1 1GH        -0.0602
     21 C18        13.4730   -4.0170   20.6360 C.ar      1 1GH        -0.0069
     22 C2         12.8450   -5.1770   21.1220 C.ar      1 1GH         0.0898
     23 O1         13.2900   -5.6010   22.3490 O.3       1 1GH        -0.3235
     24 C1         12.4260   -6.4350   23.1120 C.3       1 1GH         0.0588
     25 C19        14.5580   -3.3570   21.3910 C.2       1 1GH         0.0202
     26 C22        14.5280   -2.9050   22.6620 C.2       1 1GH         0.1448
     27 C23        13.4810   -2.8460   23.7090 C.3       1 1GH         0.0123
     28 O3         15.7230   -2.3890   22.9840 O.3       1 1GH        -0.1746
     29 N5         16.5820   -2.5330   21.8600 N.2       1 1GH        -0.1678
     30 C20        15.8700   -3.1100   20.9340 C.2       1 1GH         0.0226
     31 C21        16.4930   -3.4040   19.6110 C.3       1 1GH        -0.0271
     32 H1          8.7316   -8.7786   19.1887 H         1 1GH         0.0827
     33 H2         12.5419  -10.3077   21.9321 H         1 1GH         0.0803
     34 H3         14.1344  -10.5264   20.0916 H         1 1GH         0.0652
     35 H4         13.5450   -9.5766   17.8808 H         1 1GH         0.0719
     36 H5         11.3733   -8.4154   17.5954 H         1 1GH         0.0652
     37 H6          8.8871   -8.2117   21.5752 H         1 1GH         0.0283
     38 H7          7.9043   -7.0394   20.6337 H         1 1GH         0.0283
     39 H8          9.5748   -6.6113   21.1366 H         1 1GH         0.0283
     40 H9          8.7429   -5.7493   15.6136 H         1 1GH         0.2246
     41 H10        10.5632   -3.6951   15.7745 H         1 1GH         0.0689
     42 H11        11.3834   -6.6823   20.8058 H         1 1GH         0.0484
     43 H12        13.6103   -2.6469   19.0186 H         1 1GH         0.0493
     44 H13        12.9125   -6.6934   24.0641 H         1 1GH         0.0577
     45 H14        12.2121   -7.3549   22.5481 H         1 1GH         0.0577
     46 H15        11.4854   -5.9015   23.3138 H         1 1GH         0.0577
     47 H16        13.8974   -2.3884   24.6185 H         1 1GH         0.0466
     48 H17        13.1329   -3.8642   23.9373 H         1 1GH         0.0466
     49 H18        12.6356   -2.2416   23.3485 H         1 1GH         0.0466
     50 H19        17.5407   -3.0690   19.6166 H         1 1GH         0.0379
     51 H20        15.9425   -2.8731   18.8204 H         1 1GH         0.0379
     52 H21        16.4553   -4.4867   19.4204 H         1 1GH         0.0379
@<TRIPOS>BOND
     1    1    2 2  
     2    2    3 am 
     3    2   12 am 
     4    3    4 1  
     5    3   14 1  
     6    4    5 1  
     7    4   11 1  
     8    5    6 ar 
     9    5   10 ar 
    10    6    7 ar 
    11    7    8 ar 
    12    8    9 ar 
    13    9   10 ar 
    14   12   13 1  
    15   13   14 ar 
    16   13   15 ar 
    17   14   18 ar 
    18   15   16 ar 
    19   16   17 ar 
    20   17   18 ar 
    21   17   20 ar 
    22   18   19 ar 
    23   19   22 ar 
    24   20   21 ar 
    25   21   22 ar 
    26   21   25 1  
    27   22   23 1  
    28   23   24 1  
    29   25   26 2  
    30   25   30 1  
    31   26   27 1  
    32   26   28 1  
    33   28   29 1  
    34   29   30 2  
    35   30   31 1  
    36    4   32 1  
    37    7   33 1  
    38    8   34 1  
    39    9   35 1  
    40   10   36 1  
    41   11   37 1  
    42   11   38 1  
    43   11   39 1  
    44   12   40 1  
    45   15   41 1  
    46   19   42 1  
    47   20   43 1  
    48   24   44 1  
    49   24   45 1  
    50   24   46 1  
    51   27   47 1  
    52   27   48 1  
    53   27   49 1  
    54   31   50 1  
    55   31   51 1  
    56   31   52 1  
@<TRIPOS>SUBSTRUCTURE
     1 1GH         1

