### 
### Created by X-TOOL on Mon Sep 10 21:13:13 2018
### 

@<TRIPOS>MOLECULE
4alu_ligand
   30    33     1     0     0
SMALL
GAST_HUCK


@<TRIPOS>ATOM
      1 CL1        18.5720   32.1740   -3.5430 Cl        1 79O        -0.0639
      2 C9         19.8820   31.4710   -4.4220 C.ar      1 79O         0.0601
      3 C8         19.6580   30.9920   -5.7130 C.ar      1 79O        -0.0419
      4 C7         20.7010   30.4190   -6.4390 C.ar      1 79O        -0.0567
      5 C6         21.9700   30.3230   -5.8730 C.ar      1 79O        -0.0557
      6 C5         22.1940   30.7990   -4.5820 C.ar      1 79O        -0.0422
      7 C4         21.1530   31.3750   -3.8520 C.ar      1 79O         0.0537
      8 C3         21.4250   31.8480   -2.5380 C.2       1 79O         0.1547
      9 N2         21.8040   33.1440   -2.2960 N.2       1 79O        -0.3057
     10 C10        22.0750   33.6080   -1.0290 C.2       1 79O         0.0510
     11 C11        22.4790   34.8430   -0.5160 C.ar      1 79O         0.0186
     12 C12        22.7350   36.0550   -1.1400 C.ar      1 79O        -0.0544
     13 C13        23.1260   37.1340   -0.3680 C.ar      1 79O         0.0014
     14 BR1        23.5050   38.8280   -1.2090 Br        1 79O        -0.0588
     15 C14        23.2590   37.0080    1.0220 C.ar      1 79O        -0.0612
     16 C15        22.9990   35.8060    1.6440 C.ar      1 79O        -0.0258
     17 C16        22.6180   34.7340    0.8730 C.ar      1 79O         0.1296
     18 O2         22.3060   33.4830    1.2390 O.3       1 79O        -0.2463
     19 C1         21.9800   32.7920    0.1040 C.2       1 79O         0.2030
     20 C2         21.5990   31.4750   -0.0440 C.2       1 79O         0.2567
     21 O1         21.5430   30.8260    1.0110 O.2       1 79O        -0.3979
     22 N1         21.3160   30.9750   -1.3940 N.am      1 79O        -0.2038
     23 H1         18.6700   31.0656   -6.1529 H         1 79O         0.0636
     24 H2         20.5247   30.0487   -7.4424 H         1 79O         0.0656
     25 H3         22.7828   29.8785   -6.4359 H         1 79O         0.0631
     26 H4         23.1820   30.7214   -4.1427 H         1 79O         0.0672
     27 H5         22.6304   36.1549   -2.2143 H         1 79O         0.0615
     28 H6         23.5688   37.8629    1.6122 H         1 79O         0.0593
     29 H7         23.0931   35.7081    2.7195 H         1 79O         0.0572
     30 H8         21.0452   30.0210   -1.5226 H         1 79O         0.2480
@<TRIPOS>BOND
     1    1    2 1  
     2    2    3 ar 
     3    2    7 ar 
     4    3    4 ar 
     5    4    5 ar 
     6    5    6 ar 
     7    6    7 ar 
     8    7    8 1  
     9    8    9 2  
    10    8   22 1  
    11    9   10 1  
    12   10   11 1  
    13   10   19 2  
    14   11   12 ar 
    15   11   17 ar 
    16   12   13 ar 
    17   13   14 1  
    18   13   15 ar 
    19   15   16 ar 
    20   16   17 ar 
    21   17   18 1  
    22   18   19 1  
    23   19   20 1  
    24   20   21 2  
    25   20   22 am 
    26    3   23 1  
    27    4   24 1  
    28    5   25 1  
    29    6   26 1  
    30   12   27 1  
    31   15   28 1  
    32   16   29 1  
    33   22   30 1  
@<TRIPOS>SUBSTRUCTURE
     1 79O         1

