### 
### Created by X-TOOL on Mon Sep 10 21:13:14 2018
### 

@<TRIPOS>MOLECULE
4alv_ligand
   51    55     1     0     0
SMALL
GAST_HUCK


@<TRIPOS>ATOM
      1 C13       -22.6560   32.9190    7.8150 C.3       1 R9P        -0.0078
      2 C14       -23.5230   34.1250    8.2010 C.3       1 R9P        -0.0334
      3 N3        -24.6380   33.7640    9.1220 N.4       1 R9P         0.2270
      4 C15       -24.1900   32.9490   10.2940 C.3       1 R9P        -0.0334
      5 C16       -23.3770   31.7100    9.8510 C.3       1 R9P        -0.0078
      6 C12       -23.3690   31.6700    8.3250 C.3       1 R9P        -0.0117
      7 C11       -22.8380   30.3360    7.7870 C.3       1 R9P         0.0286
      8 N2        -21.8250   30.4560    6.7380 N.pl3     1 R9P        -0.3184
      9 C10       -21.9180   30.8070    5.4430 C.ar      1 R9P         0.0459
     10 C17       -21.1080   31.8570    5.0520 C.ar      1 R9P        -0.0226
     11 C18       -21.0420   32.3250    3.7580 C.ar      1 R9P         0.0502
     12 CL1       -19.9860   33.6170    3.4440 Cl        1 R9P        -0.0667
     13 C9        -22.6500   30.1740    4.4490 C.ar      1 R9P        -0.0363
     14 C8        -22.5710   30.6560    3.1330 C.ar      1 R9P        -0.0523
     15 C7        -21.7490   31.7320    2.7620 C.ar      1 R9P         0.0415
     16 C6        -21.7410   32.1500    1.4360 C.2       1 R9P         0.1451
     17 N4        -22.0430   33.4070    1.1070 N.2       1 R9P        -0.3130
     18 C19       -22.0840   33.7350   -0.1850 C.2       1 R9P         0.0464
     19 C20       -22.3710   34.8900   -0.8350 C.ar      1 R9P         0.0175
     20 C21       -22.6980   36.0970   -0.3640 C.ar      1 R9P        -0.0545
     21 C22       -22.9380   37.1520   -1.2480 C.ar      1 R9P         0.0014
     22 BR1       -23.3850   38.8560   -0.4400 Br        1 R9P        -0.0589
     23 C1        -22.8550   36.9890   -2.6270 C.ar      1 R9P        -0.0613
     24 C2        -22.5200   35.7360   -3.0800 C.ar      1 R9P        -0.0260
     25 C3        -22.2840   34.7120   -2.1900 C.ar      1 R9P         0.1289
     26 O1        -21.9550   33.4360   -2.3980 O.3       1 R9P        -0.2478
     27 C4        -21.8400   32.8340   -1.2020 C.2       1 R9P         0.2003
     28 C5        -21.5280   31.5540   -0.9200 C.2       1 R9P         0.2549
     29 O2        -21.3120   30.8070   -1.8700 O.2       1 R9P        -0.3985
     30 N1        -21.4740   31.2010    0.4290 N.am      1 R9P        -0.2059
     31 H1        -21.6634   33.0034    8.2816 H         1 R9P         0.0320
     32 H2        -22.5443   32.8694    6.7218 H         1 R9P         0.0320
     33 H3        -23.9504   34.5582    7.2847 H         1 R9P         0.0814
     34 H4        -22.8855   34.8718    8.6969 H         1 R9P         0.0814
     35 H5        -25.3222   33.2339    8.6053 H         1 R9P         0.2013
     36 H6        -25.0594   34.6134    9.4641 H         1 R9P         0.2013
     37 H7        -25.0752   32.6131   10.8540 H         1 R9P         0.0814
     38 H8        -23.5606   33.5748   10.9438 H         1 R9P         0.0814
     39 H9        -23.8451   30.7961   10.2456 H         1 R9P         0.0320
     40 H10       -22.3463   31.7860   10.2275 H         1 R9P         0.0320
     41 H11       -24.4134   31.7404    7.9869 H         1 R9P         0.0324
     42 H12       -23.6877   29.7693    7.3786 H         1 R9P         0.0518
     43 H13       -22.3962   29.7799    8.6270 H         1 R9P         0.0518
     44 H14       -20.8685   30.2312    7.0469 H         1 R9P         0.1785
     45 H15       -20.4921   32.3375    5.8036 H         1 R9P         0.0542
     46 H16       -23.2739   29.3196    4.6851 H         1 R9P         0.0539
     47 H17       -23.1716   30.1759    2.3689 H         1 R9P         0.0645
     48 H18       -22.7771   36.2578    0.7051 H         1 R9P         0.0615
     49 H19       -23.0451   37.8093   -3.3097 H         1 R9P         0.0592
     50 H20       -22.4409   35.5521   -4.1454 H         1 R9P         0.0571
     51 H21       -21.2428   30.2622    0.6845 H         1 R9P         0.2472
@<TRIPOS>BOND
     1    1    2 1  
     2    1    6 1  
     3    2    3 1  
     4    3    4 1  
     5    4    5 1  
     6    5    6 1  
     7    6    7 1  
     8    7    8 1  
     9    8    9 1  
    10    9   10 ar 
    11    9   13 ar 
    12   10   11 ar 
    13   11   12 1  
    14   11   15 ar 
    15   13   14 ar 
    16   14   15 ar 
    17   15   16 1  
    18   16   17 2  
    19   16   30 1  
    20   17   18 1  
    21   18   19 1  
    22   18   27 2  
    23   19   20 ar 
    24   19   25 ar 
    25   20   21 ar 
    26   21   22 1  
    27   21   23 ar 
    28   23   24 ar 
    29   24   25 ar 
    30   25   26 1  
    31   26   27 1  
    32   27   28 1  
    33   28   29 2  
    34   28   30 am 
    35    1   31 1  
    36    1   32 1  
    37    2   33 1  
    38    2   34 1  
    39    3   35 1  
    40    3   36 1  
    41    4   37 1  
    42    4   38 1  
    43    5   39 1  
    44    5   40 1  
    45    6   41 1  
    46    7   42 1  
    47    7   43 1  
    48    8   44 1  
    49   10   45 1  
    50   13   46 1  
    51   14   47 1  
    52   20   48 1  
    53   23   49 1  
    54   24   50 1  
    55   30   51 1  
@<TRIPOS>SUBSTRUCTURE
     1 R9P         1

