### 
### Created by X-TOOL on Mon Sep 10 21:13:12 2018
### 

@<TRIPOS>MOLECULE
4alw_ligand
   42    45     1     0     0
SMALL
GAST_HUCK


@<TRIPOS>ATOM
      1 C5         21.0110  -29.2470    2.3750 C.3       1 HY7         0.0118
      2 C6         21.5020  -27.9320    3.0820 C.3       1 HY7         0.0092
      3 N3         22.9420  -28.1280    3.4290 N.4       1 HY7         0.2405
      4 C7         23.4870  -26.9970    4.2520 C.3       1 HY7        -0.0427
      5 C8         23.2480  -29.3180    4.2800 C.3       1 HY7         0.0092
      6 C9         22.8760  -30.5710    3.4580 C.3       1 HY7         0.0118
      7 N2         21.4060  -30.4220    3.1590 N.4       1 HY7         0.2629
      8 C4         20.8310  -31.6580    2.6000 C.3       1 HY7         0.0558
      9 C3         21.4500  -32.2870    1.3920 C.2       1 HY7         0.1824
     10 N4         21.8170  -33.5270    1.4230 N.2       1 HY7        -0.3149
     11 C10        22.3040  -34.1560    0.3070 C.2       1 HY7         0.0377
     12 C11        22.7940  -35.4320    0.0410 C.ar      1 HY7         0.0150
     13 C12        22.8930  -36.5780    0.8170 C.ar      1 HY7        -0.0549
     14 C13        23.4350  -37.6350    0.1230 C.ar      1 HY7         0.0012
     15 BR1        23.7320  -39.2550    1.0850 Br        1 HY7        -0.0590
     16 C14        23.8410  -37.6730   -1.2440 C.ar      1 HY7        -0.0615
     17 C15        23.7130  -36.5100   -2.0020 C.ar      1 HY7        -0.0264
     18 C16        23.1720  -35.4570   -1.3010 C.ar      1 HY7         0.1271
     19 O2         22.9490  -34.2080   -1.7630 O.3       1 HY7        -0.2514
     20 C1         22.3730  -33.4340   -0.8660 C.2       1 HY7         0.1949
     21 C2         22.0120  -32.0730   -0.9000 C.2       1 HY7         0.2551
     22 O1         22.1090  -31.3530   -1.9060 O.2       1 HY7        -0.3991
     23 N1         21.4560  -31.5810    0.2370 N.am      1 HY7        -0.1940
     24 H1         21.4611  -29.3107    1.3733 H         1 HY7         0.0868
     25 H2         19.9151  -29.2229    2.2838 H         1 HY7         0.0868
     26 H3         20.9153  -27.7535    3.9952 H         1 HY7         0.0868
     27 H4         21.3917  -27.0746    2.4018 H         1 HY7         0.0868
     28 H5         23.4523  -28.1998    2.5627 H         1 HY7         0.2035
     29 H6         24.5460  -27.1872    4.4808 H         1 HY7         0.0778
     30 H7         22.9177  -26.9184    5.1899 H         1 HY7         0.0778
     31 H8         23.3968  -26.0567    3.6884 H         1 HY7         0.0778
     32 H9         22.6537  -29.2834    5.2050 H         1 HY7         0.0868
     33 H10        24.3185  -29.3363    4.5323 H         1 HY7         0.0868
     34 H11        23.0606  -31.4848    4.0418 H         1 HY7         0.0868
     35 H12        23.4580  -30.6079    2.5253 H         1 HY7         0.0868
     36 H13        20.9694  -30.2951    4.0586 H         1 HY7         0.2062
     37 H14        19.7854  -31.4343    2.3419 H         1 HY7         0.1109
     38 H15        20.8578  -32.4120    3.4005 H         1 HY7         0.1109
     39 H16        22.5788  -36.6341    1.8530 H         1 HY7         0.0615
     40 H17        24.2383  -38.5817   -1.6816 H         1 HY7         0.0592
     41 H18        24.0107  -36.4420   -3.0421 H         1 HY7         0.0570
     42 H19        21.0395  -30.6720    0.2206 H         1 HY7         0.2523
@<TRIPOS>BOND
     1    1    2 1  
     2    1    7 1  
     3    2    3 1  
     4    3    4 1  
     5    3    5 1  
     6    5    6 1  
     7    6    7 1  
     8    7    8 1  
     9    8    9 1  
    10    9   10 2  
    11    9   23 1  
    12   10   11 1  
    13   11   12 1  
    14   11   20 2  
    15   12   13 ar 
    16   12   18 ar 
    17   13   14 ar 
    18   14   15 1  
    19   14   16 ar 
    20   16   17 ar 
    21   17   18 ar 
    22   18   19 1  
    23   19   20 1  
    24   20   21 1  
    25   21   22 2  
    26   21   23 am 
    27    1   24 1  
    28    1   25 1  
    29    2   26 1  
    30    2   27 1  
    31    3   28 1  
    32    4   29 1  
    33    4   30 1  
    34    4   31 1  
    35    5   32 1  
    36    5   33 1  
    37    6   34 1  
    38    6   35 1  
    39    7   36 1  
    40    8   37 1  
    41    8   38 1  
    42   13   39 1  
    43   16   40 1  
    44   17   41 1  
    45   23   42 1  
@<TRIPOS>SUBSTRUCTURE
     1 HY7         1

