### 
### Created by X-TOOL on Mon Sep 10 21:13:10 2018
### 

@<TRIPOS>MOLECULE
4alx_ligand
   42    45     1     0     0
SMALL
GAST_HUCK


@<TRIPOS>ATOM
      1 N1         -5.1980  -34.1850  -25.6690 N.4       1 IZN         0.1248
      2 C1         -5.8320  -35.5220  -25.6690 C.3       1 IZN        -0.0200
      3 C2         -5.1880  -36.4030  -26.7500 C.3       1 IZN         0.0572
      4 C3         -4.6330  -31.0410  -26.7580 C.2       1 IZN        -0.0521
      5 C4         -5.4410  -33.4380  -26.9310 C.3       1 IZN        -0.0566
      6 C5         -6.8630  -32.8260  -27.0000 C.3       1 IZN        -0.0420
      7 C6         -6.9350  -31.4590  -27.7380 C.3       1 IZN         0.0627
      8 C7         -5.9680  -30.4270  -27.1310 C.3       1 IZN         0.0209
      9 C8         -4.4160  -32.3720  -26.6890 C.2       1 IZN        -0.0742
     10 C9         -3.1570  -33.1010  -26.3160 C.3       1 IZN         0.0023
     11 C10        -3.7330  -34.1620  -25.3670 C.3       1 IZN        -0.0354
     12 C11        -5.0600  -34.3120  -28.1510 C.2       1 IZN        -0.0409
     13 C12        -4.9430  -35.6520  -28.0440 C.2       1 IZN         0.0249
     14 C13        -4.5620  -36.5350  -29.2130 C.3       1 IZN         0.1434
     15 C14        -4.0690  -34.5200  -30.5240 C.2       1 IZN         0.2446
     16 C15        -4.7940  -33.6440  -29.4930 C.3       1 IZN         0.0638
     17 O1         -3.4180  -34.0270  -31.4390 O.2       1 IZN        -0.3678
     18 O2         -4.1800  -35.8610  -30.4070 O.3       1 IZN        -0.2468
     19 O3         -8.2580  -30.9580  -27.6470 O.3       1 IZN        -0.3777
     20 C16        -8.4210  -29.6220  -28.0760 C.3       1 IZN         0.0371
     21 H1         -5.6490  -33.6695  -24.9295 H         1 IZN         0.1948
     22 H2         -6.9070  -35.4164  -25.8766 H         1 IZN         0.0865
     23 H3         -5.6931  -35.9921  -24.6843 H         1 IZN         0.0865
     24 H4         -5.8559  -37.2522  -26.9565 H         1 IZN         0.0664
     25 H5         -4.2251  -36.7772  -26.3721 H         1 IZN         0.0664
     26 H6         -3.8036  -30.3720  -26.5334 H         1 IZN         0.1022
     27 H7         -7.2267  -32.6822  -25.9719 H         1 IZN         0.0116
     28 H8         -7.5188  -33.5361  -27.5250 H         1 IZN         0.0116
     29 H9         -6.6733  -31.6119  -28.7954 H         1 IZN         0.0620
     30 H10        -5.7966  -29.6272  -27.8665 H         1 IZN         0.0577
     31 H11        -6.4269  -30.0013  -26.2265 H         1 IZN         0.0577
     32 H12        -2.4402  -32.4419  -25.8043 H         1 IZN         0.0432
     33 H13        -2.6744  -33.5570  -27.1930 H         1 IZN         0.0432
     34 H14        -3.2807  -35.1452  -25.5638 H         1 IZN         0.0837
     35 H15        -3.5573  -33.8809  -24.3182 H         1 IZN         0.0837
     36 H16        -5.4268  -37.1726  -29.4488 H         1 IZN         0.0967
     37 H17        -3.7172  -37.1648  -28.8974 H         1 IZN         0.0967
     38 H18        -4.1789  -32.7501  -29.3127 H         1 IZN         0.0621
     39 H19        -5.7613  -33.3432  -29.9216 H         1 IZN         0.0621
     40 H20        -9.4754  -29.3280  -27.9671 H         1 IZN         0.0524
     41 H21        -8.1238  -29.5370  -29.1317 H         1 IZN         0.0524
     42 H22        -7.7908  -28.9606  -27.4633 H         1 IZN         0.0524
@<TRIPOS>BOND
     1    1    2 1  
     2    5    1 1  
     3    1   11 1  
     4    2    3 1  
     5    3   13 1  
     6    4    8 1  
     7    9    4 2  
     8    5    6 1  
     9    5    9 1  
    10    5   12 1  
    11    6    7 1  
    12    7    8 1  
    13    7   19 1  
    14    9   10 1  
    15   10   11 1  
    16   12   13 2  
    17   12   16 1  
    18   13   14 1  
    19   14   18 1  
    20   16   15 1  
    21   15   17 2  
    22   15   18 1  
    23   19   20 1  
    24    1   21 1  
    25    2   22 1  
    26    2   23 1  
    27    3   24 1  
    28    3   25 1  
    29    4   26 1  
    30    6   27 1  
    31    6   28 1  
    32    7   29 1  
    33    8   30 1  
    34    8   31 1  
    35   10   32 1  
    36   10   33 1  
    37   11   34 1  
    38   11   35 1  
    39   14   36 1  
    40   14   37 1  
    41   16   38 1  
    42   16   39 1  
    43   20   40 1  
    44   20   41 1  
    45   20   42 1  
@<TRIPOS>SUBSTRUCTURE
     1 IZN         1

