### 
### Created by X-TOOL on Mon Sep 10 21:13:10 2018
### 

@<TRIPOS>MOLECULE
4aml_ligand
   43    43     1     0     0
SMALL
GAST_HUCK


@<TRIPOS>ATOM
      1 C1         -6.1140   42.9680    5.0490 C.2       1 GYU         0.3221
      2 O1A        -6.5730   44.0800    5.2990 O.2       1 GYU        -0.3775
      3 O1B        -7.1390   41.8820    5.0090 O.3       1 GYU        -0.2293
      4 C12        -3.8200   43.4560    4.6210 C.3       1 GYU         0.0326
      5 C13        -3.2050   43.6130    5.9940 C.3       1 GYU        -0.0356
      6 C14        -2.5210   42.3370    6.4600 C.3       1 GYU        -0.0635
      7 C5         -8.4400   40.5440    6.3690 C.3       1 GYU         0.1251
      8 N5         -7.2390   40.0190    6.8640 N.am      1 GYU        -0.2763
      9 C10        -7.0020   39.6840    8.2060 C.2       1 GYU         0.1734
     10 O10        -7.9550   39.8300    8.9500 O.2       1 GYU        -0.3974
     11 C11        -5.6330   39.2050    8.6190 C.3       1 GYU         0.0257
     12 C6         -8.7870   39.7270    5.1160 C.3       1 GYU         0.1114
     13 O6         -9.0600   38.3270    5.6070 O.3       1 GYU        -0.3867
     14 C7        -10.0070   40.2310    4.5270 C.3       1 GYU         0.1117
     15 O7        -10.2710   39.4510    3.3160 O.3       1 GYU        -0.3865
     16 C15        -8.3010   42.0310    5.8530 C.3       1 GYU         0.2127
     17 O8         -9.4310   42.4380    5.2200 O.3       1 GYU        -0.3373
     18 NAC        -4.9430   42.5030    4.8310 N.am      1 GYU        -0.2625
     19 C8         -9.8020   41.7010    4.0420 C.3       1 GYU         0.1133
     20 C9        -11.1220   42.3050    3.6830 C.3       1 GYU         0.0730
     21 O9        -11.0580   43.7250    3.2410 O.3       1 GYU        -0.3924
     22 H1         -3.0878   43.0455    3.9101 H         1 GYU         0.0519
     23 H2         -4.1923   44.4214    4.2475 H         1 GYU         0.0519
     24 H3         -3.9977   43.8733    6.7108 H         1 GYU         0.0282
     25 H4         -2.4612   44.4227    5.9598 H         1 GYU         0.0282
     26 H5         -2.0895   42.4962    7.4592 H         1 GYU         0.0230
     27 H6         -1.7211   42.0706    5.7534 H         1 GYU         0.0230
     28 H7         -3.2576   41.5213    6.5045 H         1 GYU         0.0230
     29 H8         -9.2273   40.4746    7.1340 H         1 GYU         0.0637
     30 H9         -6.4950   39.8720    6.2122 H         1 GYU         0.1857
     31 H10        -5.6298   38.9900    9.6978 H         1 GYU         0.0467
     32 H11        -4.8896   39.9851    8.3984 H         1 GYU         0.0467
     33 H12        -5.3811   38.2904    8.0622 H         1 GYU         0.0467
     34 H13        -7.9637   39.7477    4.3868 H         1 GYU         0.0645
     35 H14        -9.2820   37.7715    4.8691 H         1 GYU         0.2100
     36 H15       -10.8402   40.1629    5.2419 H         1 GYU         0.0647
     37 H16        -9.5452   39.5516    2.7114 H         1 GYU         0.2100
     38 H17        -8.0945   42.7280    6.6786 H         1 GYU         0.0986
     39 H18        -4.7848   41.5160    4.8022 H         1 GYU         0.1867
     40 H19        -9.0669   41.7711    3.2267 H         1 GYU         0.0647
     41 H20       -11.7751   42.2505    4.5664 H         1 GYU         0.0584
     42 H21       -11.5593   41.7117    2.8665 H         1 GYU         0.0584
     43 H22       -10.6933   44.2565    3.9388 H         1 GYU         0.2095
@<TRIPOS>BOND
     1    1    2 2  
     2    3    1 1  
     3    1   18 am 
     4   16    3 1  
     5    4    5 1  
     6   18    4 1  
     7    5    6 1  
     8    7    8 1  
     9    7   12 1  
    10    7   16 1  
    11    8    9 am 
    12    9   10 2  
    13    9   11 1  
    14   12   13 1  
    15   12   14 1  
    16   14   15 1  
    17   14   19 1  
    18   16   17 1  
    19   17   19 1  
    20   19   20 1  
    21   20   21 1  
    22    4   22 1  
    23    4   23 1  
    24    5   24 1  
    25    5   25 1  
    26    6   26 1  
    27    6   27 1  
    28    6   28 1  
    29    7   29 1  
    30    8   30 1  
    31   11   31 1  
    32   11   32 1  
    33   11   33 1  
    34   12   34 1  
    35   13   35 1  
    36   14   36 1  
    37   15   37 1  
    38   16   38 1  
    39   18   39 1  
    40   19   40 1  
    41   20   41 1  
    42   20   42 1  
    43   21   43 1  
@<TRIPOS>SUBSTRUCTURE
     1 GYU         1

