### 
### Created by X-TOOL on Tue Oct 16 15:17:36 2018
### 

@<TRIPOS>MOLECULE
4amw_ligand
   21    21     1     0     0
SMALL
GAST_HUCK


@<TRIPOS>ATOM
      1 C1         52.9570   25.4270   42.1520 C.2       1 MOL         0.0485
      2 C2         53.3670   24.7670   41.0580 C.2       1 MOL         0.0985
      3 O2         53.3090   25.3540   39.8610 O.3       1 MOL        -0.3478
      4 C3         53.8670   23.3630   41.2140 C.3       1 MOL         0.1360
      5 O3         54.6720   23.0160   40.0800 O.3       1 MOL        -0.3770
      6 C4         54.6610   23.2310   42.5150 C.3       1 MOL         0.1539
      7 O4         55.0650   21.8670   42.5990 O.3       1 MOL        -0.3813
      8 C5         53.8620   23.6950   43.7520 C.3       1 MOL         0.2730
      9 O5         53.2450   24.9520   43.5030 O.3       1 MOL        -0.3219
     10 C6         52.7750   22.7270   44.2070 C.3       1 MOL         0.1086
     11 O6         51.6710   22.6250   43.2920 O.3       1 MOL        -0.3890
     12 F1         54.6410   23.8720   44.7980 F         1 MOL        -0.2016
     13 H1         52.3900   26.3485   42.0284 H         1 MOL         0.0542
     14 H2         53.6344   24.7547   39.1996 H         1 MOL         0.2418
     15 H3         53.0058   22.6801   41.2579 H         1 MOL         0.0776
     16 H4         54.1487   23.0812   39.2897 H         1 MOL         0.2128
     17 H5         55.5593   23.8621   42.4465 H         1 MOL         0.0701
     18 H6         55.5648   21.7344   43.3960 H         1 MOL         0.2104
     19 H7         52.3898   23.0694   45.1788 H         1 MOL         0.0618
     20 H8         53.2242   21.7295   44.3214 H         1 MOL         0.0618
     21 H9         51.2658   23.4782   43.1901 H         1 MOL         0.2097
@<TRIPOS>BOND
     1    1    2 2  
     2    1    9 1  
     3    2    3 1  
     4    2    4 1  
     5    4    5 1  
     6    4    6 1  
     7    6    7 1  
     8    6    8 1  
     9    8    9 1  
    10    8   10 1  
    11    8   12 1  
    12   10   11 1  
    13    1   13 1  
    14    3   14 1  
    15    4   15 1  
    16    5   16 1  
    17    6   17 1  
    18    7   18 1  
    19   10   19 1  
    20   10   20 1  
    21   11   21 1  
@<TRIPOS>SUBSTRUCTURE
     1 MOL         1

