### 
### Created by X-TOOL on Mon Sep 10 21:13:15 2018
### 

@<TRIPOS>MOLECULE
4amx_ligand
   23    23     1     0     0
SMALL
GAST_HUCK


@<TRIPOS>ATOM
      1 O5         -0.9100  -22.3080  -22.0380 O.3       1 5GF        -0.3384
      2 C1         -0.1420  -23.0950  -21.0930 C.3       1 5GF         0.0798
      3 F          -1.5630  -20.1530  -21.9200 F         1 5GF        -0.2055
      4 C2         -0.0370  -22.4280  -19.6940 C.3       1 5GF         0.1070
      5 O2         -1.1090  -22.7940  -18.8010 O.3       1 5GF        -0.3869
      6 C3          0.0760  -20.9100  -19.8000 C.3       1 5GF         0.1144
      7 O3          0.9620  -20.4190  -18.7850 O.3       1 5GF        -0.3864
      8 C4          0.5680  -20.5420  -21.1960 C.3       1 5GF         0.1440
      9 O4          0.8690  -19.1440  -21.2870 O.3       1 5GF        -0.3834
     10 C6         -0.0720  -20.6440  -23.6250 C.3       1 5GF         0.1055
     11 O6          0.9140  -21.5820  -24.0610 O.3       1 5GF        -0.3893
     12 C5         -0.5190  -20.9250  -22.1910 C.3       1 5GF         0.2622
     13 H1          0.8733  -23.2316  -21.4936 H         1 5GF         0.0588
     14 H2         -0.6260  -24.0761  -20.9784 H         1 5GF         0.0588
     15 H3          0.8959  -22.7933  -19.2398 H         1 5GF         0.0643
     16 H4         -0.9883  -22.3559  -17.9668 H         1 5GF         0.2100
     17 H5         -0.9173  -20.4632  -19.6459 H         1 5GF         0.0648
     18 H6          0.6208  -20.6509  -17.9292 H         1 5GF         0.2100
     19 H7          1.4814  -21.1129  -21.4191 H         1 5GF         0.0678
     20 H8          1.1723  -18.9430  -22.1645 H         1 5GF         0.2101
     21 H9         -0.9455  -20.7086  -24.2905 H         1 5GF         0.0615
     22 H10         0.3526  -19.6305  -23.6746 H         1 5GF         0.0615
     23 H11         1.6737  -21.5281  -23.4931 H         1 5GF         0.2096
@<TRIPOS>BOND
     1    1    2 1  
     2   12    1 1  
     3    2    4 1  
     4   12    3 1  
     5    4    5 1  
     6    6    4 1  
     7    6    7 1  
     8    8    6 1  
     9    8    9 1  
    10   12    8 1  
    11   10   11 1  
    12   10   12 1  
    13    2   13 1  
    14    2   14 1  
    15    4   15 1  
    16    5   16 1  
    17    6   17 1  
    18    7   18 1  
    19    8   19 1  
    20    9   20 1  
    21   10   21 1  
    22   10   22 1  
    23   11   23 1  
@<TRIPOS>SUBSTRUCTURE
     1 5GF         1

