### 
### Created by X-TOOL on Mon Sep 10 21:13:10 2018
### 

@<TRIPOS>MOLECULE
4amy_ligand
   69    71     1     0     0
SMALL
GAST_HUCK


@<TRIPOS>ATOM
      1 C23        42.9140   37.7210   86.5560 C.3       1 2P2         0.0393
      2 C24        44.3120   37.9110   85.9890 C.3       1 2P2        -0.0263
      3 C25        45.4370   37.8610   87.0280 C.3       1 2P2        -0.0171
      4 C26        45.4360   36.5620   87.7900 C.ar      1 2P2        -0.0429
      5 C27        45.8150   35.3850   87.1580 C.ar      1 2P2        -0.0603
      6 C31        45.0450   36.5570   89.1310 C.ar      1 2P2        -0.0603
      7 C28        45.7970   34.1940   87.8840 C.ar      1 2P2        -0.0686
      8 C20        45.0270   35.3640   89.8600 C.ar      1 2P2        -0.0686
      9 C29        45.4020   34.1830   89.2250 C.ar      1 2P2        -0.0687
     10 C21        41.8950   37.4990   85.4450 C.2       1 2P2         0.1811
     11 O22        42.2130   37.7030   84.2860 O.2       1 2P2        -0.3967
     12 C10        39.3280   38.0190   83.8010 C.2       1 2P2         0.2047
     13 O11        39.5160   39.2010   84.1410 O.2       1 2P2        -0.3943
     14 C12        39.7340   36.8600   84.6510 C.3       1 2P2         0.1341
     15 C13        38.5480   36.1740   85.3480 C.3       1 2P2        -0.0101
     16 C14        39.0750   35.7480   86.7250 C.3       1 2P2        -0.0248
     17 C15        40.1590   36.7950   87.0860 C.3       1 2P2         0.0528
     18 C16        39.6670   37.9700   87.9940 C.3       1 2P2        -0.0143
     19 C17        39.4340   37.3620   89.3840 C.3       1 2P2        -0.0580
     20 C18        38.3980   38.7200   87.5170 C.3       1 2P2        -0.0580
     21 C19        40.7390   39.0270   88.2190 C.3       1 2P2        -0.0580
     22 N20        40.6530   37.1170   85.7470 N.am      1 2P2        -0.2482
     23 C1         36.8170   39.0660   82.0680 C.3       1 2P2         0.1012
     24 O2         35.8990   37.9780   81.9630 O.3       1 2P2        -0.3872
     25 C3         36.5730   39.5570   83.5050 C.3       1 2P2         0.0723
     26 O4         37.1850   40.8160   83.7490 O.3       1 2P2        -0.3924
     27 C5         38.2520   38.6210   81.6880 C.3       1 2P2         0.0731
     28 C6         38.2550   37.8250   80.3770 C.3       1 2P2        -0.0253
     29 C7         38.2950   36.3520   80.7040 C.3       1 2P2        -0.0303
     30 C8         38.5630   36.2480   82.2090 C.3       1 2P2         0.0344
     31 N9         38.7540   37.6370   82.6550 N.am      1 2P2        -0.2657
     32 H          42.6371   38.6192   87.1080 H         1 2P2         0.0504
     33 H          42.9176   36.8454   87.2052 H         1 2P2         0.0504
     34 H          44.3396   38.9035   85.5392 H         1 2P2         0.0312
     35 H          44.4862   37.0903   85.2932 H         1 2P2         0.0312
     36 H          45.2853   38.6747   87.7372 H         1 2P2         0.0427
     37 H          46.3898   37.9519   86.5064 H         1 2P2         0.0427
     38 H          46.1215   35.3917   86.1120 H         1 2P2         0.0557
     39 H          44.7518   37.4898   89.6126 H         1 2P2         0.0557
     40 H          46.0938   33.2630   87.4011 H         1 2P2         0.0599
     41 H          44.7247   35.3586   90.9072 H         1 2P2         0.0599
     42 H          45.3875   33.2434   89.7773 H         1 2P2         0.0559
     43 H          40.2248   36.2551   83.8886 H         1 2P2         0.0802
     44 H          38.1873   35.3194   84.7756 H         1 2P2         0.0313
     45 H          37.6934   36.8448   85.4366 H         1 2P2         0.0313
     46 H          39.4827   34.7373   86.7048 H         1 2P2         0.0290
     47 H          38.2792   35.7197   87.4693 H         1 2P2         0.0290
     48 H          40.9507   36.4490   87.7505 H         1 2P2         0.0565
     49 H          38.6818   36.5762   89.3140 H         1 2P2         0.0236
     50 H          40.3679   36.9407   89.7561 H         1 2P2         0.0236
     51 H          39.0874   38.1389   90.0655 H         1 2P2         0.0236
     52 H          38.5826   39.1557   86.5350 H         1 2P2         0.0236
     53 H          37.5654   38.0193   87.4544 H         1 2P2         0.0236
     54 H          38.1564   39.5108   88.2272 H         1 2P2         0.0236
     55 H          41.6025   38.5698   88.7022 H         1 2P2         0.0236
     56 H          41.0388   39.4486   87.2596 H         1 2P2         0.0236
     57 H          40.3406   39.8169   88.8558 H         1 2P2         0.0236
     58 H          36.6764   39.8924   81.3713 H         1 2P2         0.0639
     59 H          36.1103   37.3173   82.6267 H         1 2P2         0.2100
     60 H          37.0054   38.8293   84.1917 H         1 2P2         0.0584
     61 H          35.4982   39.6670   83.6495 H         1 2P2         0.0584
     62 H          36.8248   41.4683   83.1437 H         1 2P2         0.2095
     63 H          38.8424   39.5359   81.6382 H         1 2P2         0.0585
     64 H          39.1273   38.0956   79.7820 H         1 2P2         0.0289
     65 H          37.3560   38.0524   79.8042 H         1 2P2         0.0289
     66 H          39.0736   35.8463   80.1329 H         1 2P2         0.0285
     67 H          37.3546   35.8679   80.4406 H         1 2P2         0.0285
     68 H          39.4348   35.6299   82.4236 H         1 2P2         0.0522
     69 H          37.7404   35.7631   82.7346 H         1 2P2         0.0522
@<TRIPOS>BOND
     1    1    2 1  
     2   10    1 1  
     3    2    3 1  
     4    3    4 1  
     5    4    5 ar 
     6    4    6 ar 
     7    5    7 ar 
     8    6    8 ar 
     9    7    9 ar 
    10    8    9 ar 
    11   10   11 2  
    12   22   10 am 
    13   12   13 2  
    14   12   14 1  
    15   31   12 am 
    16   14   15 1  
    17   14   22 1  
    18   15   16 1  
    19   17   16 1  
    20   17   18 1  
    21   22   17 1  
    22   18   19 1  
    23   18   20 1  
    24   18   21 1  
    25   23   24 1  
    26   23   25 1  
    27   27   23 1  
    28   25   26 1  
    29   27   28 1  
    30   27   31 1  
    31   28   29 1  
    32   29   30 1  
    33   30   31 1  
    34    1   32 1  
    35    1   33 1  
    36    2   34 1  
    37    2   35 1  
    38    3   36 1  
    39    3   37 1  
    40    5   38 1  
    41    6   39 1  
    42    7   40 1  
    43    8   41 1  
    44    9   42 1  
    45   14   43 1  
    46   15   44 1  
    47   15   45 1  
    48   16   46 1  
    49   16   47 1  
    50   17   48 1  
    51   19   49 1  
    52   19   50 1  
    53   19   51 1  
    54   20   52 1  
    55   20   53 1  
    56   20   54 1  
    57   21   55 1  
    58   21   56 1  
    59   21   57 1  
    60   23   58 1  
    61   24   59 1  
    62   25   60 1  
    63   25   61 1  
    64   26   62 1  
    65   27   63 1  
    66   28   64 1  
    67   28   65 1  
    68   29   66 1  
    69   29   67 1  
    70   30   68 1  
    71   30   69 1  
@<TRIPOS>SUBSTRUCTURE
     1 2P2         1

