### 
### Created by X-TOOL on Mon Sep 10 21:13:08 2018
### 

@<TRIPOS>MOLECULE
4amz_ligand
   52    54     1     0     0
SMALL
GAST_HUCK


@<TRIPOS>ATOM
      1 C10        39.4020   37.9120   83.7150 C.2       1 2P4         0.1900
      2 O11        39.6990   39.0820   84.0270 O.2       1 2P4        -0.3944
      3 C12        39.7440   36.7740   84.6320 C.3       1 2P4         0.0818
      4 C13        38.4720   36.4110   85.4040 C.3       1 2P4        -0.0167
      5 C14        38.8220   36.4050   86.8960 C.3       1 2P4        -0.0212
      6 C15        40.2190   37.0000   86.9390 C.2       1 2P4        -0.0646
      7 C16        40.7110   37.1480   85.7090 C.2       1 2P4         0.0364
      8 C1         36.8590   39.0330   81.9650 C.3       1 2P4         0.1012
      9 O2         35.9260   37.9610   81.8940 O.3       1 2P4        -0.3872
     10 C3         36.6560   39.6750   83.3670 C.3       1 2P4         0.0723
     11 O4         37.5900   40.7300   83.5660 O.3       1 2P4        -0.3924
     12 C5         38.2810   38.5220   81.6210 C.3       1 2P4         0.0731
     13 C6         38.3060   37.7290   80.3110 C.3       1 2P4        -0.0253
     14 C7         38.2490   36.2540   80.6900 C.3       1 2P4        -0.0303
     15 C8         38.3870   36.1640   82.2060 C.3       1 2P4         0.0344
     16 N9         38.7310   37.5370   82.6030 N.am      1 2P4        -0.2662
     17 C17        42.0870   37.5750   85.4200 C.2       1 2P4         0.1910
     18 O18        42.5200   37.4280   84.2940 O.2       1 2P4        -0.3961
     19 N19        42.8160   38.1070   86.4180 N.am      1 2P4        -0.2784
     20 C20        44.2150   38.5190   86.3620 C.3       1 2P4         0.0633
     21 C21        44.9110   37.4070   87.1130 C.ar      1 2P4        -0.0212
     22 C22        44.9680   36.1120   86.5920 C.ar      1 2P4        -0.0584
     23 C23        45.5920   35.0920   87.3260 C.ar      1 2P4        -0.0685
     24 C24        46.1460   35.3380   88.5890 C.ar      1 2P4        -0.0687
     25 C25        46.0710   36.6240   89.1190 C.ar      1 2P4        -0.0685
     26 C26        45.4600   37.6500   88.3840 C.ar      1 2P4        -0.0584
     27 H          40.1640   35.9868   84.0059 H         1 2P4         0.0654
     28 H          38.1059   35.4318   85.0952 H         1 2P4         0.0335
     29 H          37.6839   37.1361   85.2011 H         1 2P4         0.0335
     30 H          38.7816   35.4056   87.3291 H         1 2P4         0.0442
     31 H          38.1089   36.9732   87.4932 H         1 2P4         0.0442
     32 H          40.7481   37.2697   87.8530 H         1 2P4         0.0649
     33 H          36.7048   39.8196   81.2263 H         1 2P4         0.0639
     34 H          36.1085   37.3324   82.5962 H         1 2P4         0.2100
     35 H          36.8093   38.9144   84.1326 H         1 2P4         0.0584
     36 H          35.6450   40.0774   83.4315 H         1 2P4         0.0584
     37 H          37.4538   41.1169   84.4339 H         1 2P4         0.2095
     38 H          38.8988   39.4191   81.5811 H         1 2P4         0.0585
     39 H          39.2090   37.9488   79.7414 H         1 2P4         0.0289
     40 H          37.4616   37.9998   79.6772 H         1 2P4         0.0289
     41 H          39.0528   35.7037   80.2009 H         1 2P4         0.0285
     42 H          37.3058   35.8137   80.3665 H         1 2P4         0.0285
     43 H          39.1408   35.4394   82.5140 H         1 2P4         0.0522
     44 H          37.4768   35.8062   82.6873 H         1 2P4         0.0522
     45 H          42.3392   38.2364   87.3104 H         1 2P4         0.1861
     46 H          44.3891   39.5033   86.7966 H         1 2P4         0.0682
     47 H          44.5839   38.6442   85.3440 H         1 2P4         0.0682
     48 H          44.5290   35.8947   85.6182 H         1 2P4         0.0557
     49 H          45.6468   34.0880   86.9051 H         1 2P4         0.0599
     50 H          46.6280   34.5359   89.1480 H         1 2P4         0.0559
     51 H          46.4871   36.8327   90.1046 H         1 2P4         0.0599
     52 H          45.4099   38.6539   88.8057 H         1 2P4         0.0557
@<TRIPOS>BOND
     1    1    2 2  
     2    1    3 1  
     3   16    1 am 
     4    3    4 1  
     5    3    7 1  
     6    4    5 1  
     7    6    5 1  
     8    7    6 2  
     9    7   17 1  
    10    8    9 1  
    11    8   10 1  
    12   12    8 1  
    13   10   11 1  
    14   12   13 1  
    15   12   16 1  
    16   13   14 1  
    17   14   15 1  
    18   15   16 1  
    19   17   18 2  
    20   17   19 am 
    21   19   20 1  
    22   20   21 1  
    23   21   22 ar 
    24   21   26 ar 
    25   22   23 ar 
    26   23   24 ar 
    27   24   25 ar 
    28   25   26 ar 
    29    3   27 1  
    30    4   28 1  
    31    4   29 1  
    32    5   30 1  
    33    5   31 1  
    34    6   32 1  
    35    8   33 1  
    36    9   34 1  
    37   10   35 1  
    38   10   36 1  
    39   11   37 1  
    40   12   38 1  
    41   13   39 1  
    42   13   40 1  
    43   14   41 1  
    44   14   42 1  
    45   15   43 1  
    46   15   44 1  
    47   19   45 1  
    48   20   46 1  
    49   20   47 1  
    50   22   48 1  
    51   23   49 1  
    52   24   50 1  
    53   25   51 1  
    54   26   52 1  
@<TRIPOS>SUBSTRUCTURE
     1 2P4         1

