### 
### Created by X-TOOL on Mon Sep 10 21:13:09 2018
### 

@<TRIPOS>MOLECULE
4an0_ligand
   50    52     1     0     0
SMALL
GAST_HUCK


@<TRIPOS>ATOM
      1 C17        42.9310   38.1090   86.8570 C.3       1 2P6         0.0393
      2 C18        44.3610   38.3830   86.3900 C.3       1 2P6        -0.0263
      3 C19        45.3990   38.2620   87.4900 C.3       1 2P6        -0.0171
      4 C20        45.4920   36.8800   88.1150 C.ar      1 2P6        -0.0429
      5 C21        45.7350   35.7390   87.3410 C.ar      1 2P6        -0.0603
      6 C25        45.3720   36.7460   89.5040 C.ar      1 2P6        -0.0603
      7 C22        45.8610   34.4840   87.9490 C.ar      1 2P6        -0.0686
      8 C24        45.4750   35.4900   90.1060 C.ar      1 2P6        -0.0686
      9 C23        45.7220   34.3580   89.3290 C.ar      1 2P6        -0.0687
     10 C15        42.0190   37.7570   85.6860 C.2       1 2P6         0.1809
     11 O16        42.4480   37.7940   84.5460 O.2       1 2P6        -0.3967
     12 N14        40.7490   37.4070   85.9830 N.am      1 2P6        -0.2517
     13 C10        39.8150   37.0390   84.9270 C.3       1 2P6         0.1338
     14 C8         39.5100   38.1620   83.9550 C.2       1 2P6         0.2062
     15 O9         39.6000   39.3320   84.2960 O.2       1 2P6        -0.3943
     16 C11        38.5330   36.6200   85.6330 C.3       1 2P6        -0.0104
     17 C12        38.8860   36.5000   87.0910 C.3       1 2P6        -0.0281
     18 C13        40.1550   37.3130   87.3230 C.3       1 2P6         0.0369
     19 C1         37.3420   38.8350   81.9800 C.1       1 2P6         0.1184
     20 N2         36.2260   38.6500   82.3030 N.1       1 2P6        -0.3011
     21 C3         38.7780   38.7510   81.6930 C.3       1 2P6         0.1684
     22 C4         38.9580   37.9000   80.4410 C.3       1 2P6        -0.0031
     23 C5         38.5730   36.4940   80.8440 C.3       1 2P6        -0.0283
     24 C6         38.9910   36.3850   82.2940 C.3       1 2P6         0.0364
     25 N7         39.1380   37.7810   82.7290 N.am      1 2P6        -0.2446
     26 H          42.5458   39.0088   87.3366 H         1 2P6         0.0504
     27 H          42.9485   37.2654   87.5470 H         1 2P6         0.0504
     28 H          44.3924   39.4097   86.0253 H         1 2P6         0.0312
     29 H          44.6032   37.6386   85.6316 H         1 2P6         0.0312
     30 H          45.1084   38.9525   88.2817 H         1 2P6         0.0427
     31 H          46.3686   38.4758   87.0402 H         1 2P6         0.0427
     32 H          45.8267   35.8282   86.2585 H         1 2P6         0.0557
     33 H          45.1970   37.6283   90.1196 H         1 2P6         0.0557
     34 H          46.0684   33.6036   87.3408 H         1 2P6         0.0599
     35 H          45.3621   35.3940   91.1859 H         1 2P6         0.0599
     36 H          45.8059   33.3787   89.8002 H         1 2P6         0.0559
     37 H          40.2586   36.2472   84.3233 H         1 2P6         0.0802
     38 H          38.1539   35.6772   85.2386 H         1 2P6         0.0313
     39 H          37.7385   37.3497   85.4769 H         1 2P6         0.0313
     40 H          39.0473   35.4560   87.3597 H         1 2P6         0.0287
     41 H          38.0732   36.8759   87.7124 H         1 2P6         0.0287
     42 H          39.9518   38.2905   87.7604 H         1 2P6         0.0524
     43 H          40.8245   36.8469   88.0459 H         1 2P6         0.0524
     44 H          39.2864   39.7128   81.6252 H         1 2P6         0.0863
     45 H          39.9840   37.9422   80.0754 H         1 2P6         0.0310
     46 H          38.3382   38.2626   79.6210 H         1 2P6         0.0310
     47 H          39.0606   35.7436   80.2217 H         1 2P6         0.0286
     48 H          37.5068   36.3096   80.7121 H         1 2P6         0.0286
     49 H          39.9124   35.8155   82.4161 H         1 2P6         0.0523
     50 H          38.2618   35.8405   82.8938 H         1 2P6         0.0523
@<TRIPOS>BOND
     1    1    2 1  
     2   10    1 1  
     3    2    3 1  
     4    3    4 1  
     5    4    5 ar 
     6    4    6 ar 
     7    5    7 ar 
     8    6    8 ar 
     9    7    9 ar 
    10    8    9 ar 
    11   10   11 2  
    12   12   10 am 
    13   13   12 1  
    14   12   18 1  
    15   14   13 1  
    16   13   16 1  
    17   14   15 2  
    18   25   14 am 
    19   16   17 1  
    20   17   18 1  
    21   19   20 3  
    22   21   19 1  
    23   21   22 1  
    24   21   25 1  
    25   22   23 1  
    26   23   24 1  
    27   24   25 1  
    28    1   26 1  
    29    1   27 1  
    30    2   28 1  
    31    2   29 1  
    32    3   30 1  
    33    3   31 1  
    34    5   32 1  
    35    6   33 1  
    36    7   34 1  
    37    8   35 1  
    38    9   36 1  
    39   13   37 1  
    40   16   38 1  
    41   16   39 1  
    42   17   40 1  
    43   17   41 1  
    44   18   42 1  
    45   18   43 1  
    46   21   44 1  
    47   22   45 1  
    48   22   46 1  
    49   23   47 1  
    50   23   48 1  
    51   24   49 1  
    52   24   50 1  
@<TRIPOS>SUBSTRUCTURE
     1 2P6         1

