### 
### Created by X-TOOL on Mon Sep 10 21:13:09 2018
### 

@<TRIPOS>MOLECULE
4an1_ligand
   53    55     1     0     0
SMALL
GAST_HUCK


@<TRIPOS>ATOM
      1 C17        41.5700   37.3330   84.0260 C.2       1 2P8         0.2641
      2 O18        42.0590   37.2190   82.9040 O.2       1 2P8        -0.4004
      3 N19        42.3300   37.7920   85.0220 N.am      1 2P8        -0.2616
      4 C20        43.7400   38.1700   84.8820 C.3       1 2P8         0.0648
      5 C21        44.4990   37.0790   85.6130 C.ar      1 2P8        -0.0212
      6 C22        44.5420   35.7940   85.0980 C.ar      1 2P8        -0.0584
      7 C23        45.2020   34.7700   85.7710 C.ar      1 2P8        -0.0685
      8 C24        45.8590   35.0330   86.9740 C.ar      1 2P8        -0.0687
      9 C25        45.8250   36.3340   87.4910 C.ar      1 2P8        -0.0685
     10 C26        45.1340   37.3520   86.8130 C.ar      1 2P8        -0.0584
     11 N16        40.2940   37.0370   84.3010 N.am      1 2P8        -0.2379
     12 C12        39.3660   36.5370   83.3020 C.3       1 2P8         0.1342
     13 C10        38.9330   37.6280   82.3770 C.2       1 2P8         0.2044
     14 O11        39.1650   38.8120   82.6170 O.2       1 2P8        -0.3943
     15 C13        38.1470   36.0420   84.0860 C.3       1 2P8        -0.0106
     16 C14        38.1860   36.9390   85.3080 C.3       1 2P8        -0.0284
     17 C15        39.6530   37.1960   85.6030 C.3       1 2P8         0.0372
     18 C1         36.3810   38.7230   80.6760 C.3       1 2P8         0.1012
     19 O2         35.4990   37.6270   80.7380 O.3       1 2P8        -0.3872
     20 C3         36.2080   39.2360   82.1050 C.3       1 2P8         0.0723
     21 O4         37.0250   40.3630   82.3300 O.3       1 2P8        -0.3924
     22 C5         37.8040   38.2200   80.3200 C.3       1 2P8         0.0731
     23 C6         37.7730   37.3800   79.0330 C.3       1 2P8        -0.0253
     24 C7         37.6430   35.9200   79.4250 C.3       1 2P8        -0.0303
     25 C8         37.9840   35.8450   80.9140 C.3       1 2P8         0.0344
     26 N9         38.2630   37.2320   81.3020 N.am      1 2P8        -0.2657
     27 H          41.9014   37.8863   85.9428 H         1 2P8         0.1872
     28 H          43.9419   39.1573   85.2974 H         1 2P8         0.0680
     29 H          44.0407   38.2477   83.8372 H         1 2P8         0.0680
     30 H          44.0503   35.5809   84.1489 H         1 2P8         0.0557
     31 H          45.2058   33.7613   85.3580 H         1 2P8         0.0599
     32 H          46.3890   34.2400   87.5016 H         1 2P8         0.0559
     33 H          46.3383   36.5584   88.4260 H         1 2P8         0.0599
     34 H          45.0976   38.3577   87.2318 H         1 2P8         0.0557
     35 H          39.8300   35.7568   82.6987 H         1 2P8         0.0799
     36 H          38.1848   34.9791   84.3246 H         1 2P8         0.0313
     37 H          37.2136   36.1078   83.5270 H         1 2P8         0.0313
     38 H          37.6929   36.4656   86.1571 H         1 2P8         0.0287
     39 H          37.6539   37.8726   85.1255 H         1 2P8         0.0287
     40 H          39.8261   38.1808   86.0370 H         1 2P8         0.0521
     41 H          40.0545   36.5144   86.3529 H         1 2P8         0.0521
     42 H          36.2024   39.4920   79.9244 H         1 2P8         0.0639
     43 H          35.7936   37.0188   81.4198 H         1 2P8         0.2100
     44 H          36.4948   38.4473   82.8005 H         1 2P8         0.0584
     45 H          35.1662   39.5194   82.2548 H         1 2P8         0.0584
     46 H          36.9030   40.6705   83.2312 H         1 2P8         0.2095
     47 H          38.4266   39.1125   80.2584 H         1 2P8         0.0585
     48 H          38.6880   37.5351   78.4614 H         1 2P8         0.0289
     49 H          36.9294   37.6781   78.4104 H         1 2P8         0.0289
     50 H          38.3140   35.2942   78.8366 H         1 2P8         0.0285
     51 H          36.6356   35.5504   79.2338 H         1 2P8         0.0285
     52 H          38.8346   35.1904   81.1041 H         1 2P8         0.0522
     53 H          37.1691   35.4156   81.4968 H         1 2P8         0.0522
@<TRIPOS>BOND
     1    1    2 2  
     2    1    3 am 
     3   11    1 am 
     4    3    4 1  
     5    4    5 1  
     6    5    6 ar 
     7    5   10 ar 
     8    6    7 ar 
     9    7    8 ar 
    10    9    8 ar 
    11   10    9 ar 
    12   12   11 1  
    13   11   17 1  
    14   13   12 1  
    15   12   15 1  
    16   13   14 2  
    17   26   13 am 
    18   15   16 1  
    19   16   17 1  
    20   18   19 1  
    21   18   20 1  
    22   22   18 1  
    23   20   21 1  
    24   22   23 1  
    25   22   26 1  
    26   23   24 1  
    27   24   25 1  
    28   25   26 1  
    29    3   27 1  
    30    4   28 1  
    31    4   29 1  
    32    6   30 1  
    33    7   31 1  
    34    8   32 1  
    35    9   33 1  
    36   10   34 1  
    37   12   35 1  
    38   15   36 1  
    39   15   37 1  
    40   16   38 1  
    41   16   39 1  
    42   17   40 1  
    43   17   41 1  
    44   18   42 1  
    45   19   43 1  
    46   20   44 1  
    47   20   45 1  
    48   21   46 1  
    49   22   47 1  
    50   23   48 1  
    51   23   49 1  
    52   24   50 1  
    53   24   51 1  
    54   25   52 1  
    55   25   53 1  
@<TRIPOS>SUBSTRUCTURE
     1 2P8         1

