### 
### Created by X-TOOL on Mon Sep 10 21:13:11 2018
### 

@<TRIPOS>MOLECULE
4an2_ligand
   52    55     1     0     0
SMALL
GAST_HUCK


@<TRIPOS>ATOM
      1 O20       -31.1580   12.8710   -6.2920 O.2       1 EUI        -0.3933
      2 C18       -30.6740   12.7290   -5.1760 C.2       1 EUI         0.1965
      3 C15       -31.1960   11.7010   -4.2240 C.ar      1 EUI         0.0661
      4 C14       -30.2890   11.0380   -3.3310 C.ar      1 EUI        -0.0575
      5 C13       -30.7470   10.0440   -2.4520 C.ar      1 EUI        -0.0361
      6 C12       -32.1190    9.7390   -2.5130 C.ar      1 EUI         0.1606
      7 F17       -32.7780    8.8720   -1.7900 F         1 EUI        -0.1839
      8 C11       -32.9780   10.3550   -3.3910 C.ar      1 EUI         0.1914
      9 F16       -34.2420   10.0390   -3.3390 F         1 EUI        -0.1912
     10 C10       -32.5580   11.3320   -4.2630 C.ar      1 EUI         0.1118
     11 N9        -33.5470   11.8970   -5.0440 N.pl3     1 EUI        -0.2701
     12 C5        -34.8100   12.4390   -4.7530 C.ar      1 EUI         0.0959
     13 C4        -35.3320   12.4230   -3.4350 C.ar      1 EUI        -0.0381
     14 C3        -36.6090   12.9830   -3.1520 C.ar      1 EUI        -0.0653
     15 C2        -37.3470   13.5770   -4.1780 C.ar      1 EUI        -0.0049
     16 I8        -39.3310   14.4550   -3.8890 I         1 EUI        -0.0608
     17 C6        -35.5700   13.0360   -5.7550 C.ar      1 EUI         0.1560
     18 F7        -35.1060   13.0620   -7.0100 F         1 EUI        -0.1906
     19 C1        -36.8320   13.5950   -5.4590 C.ar      1 EUI        -0.0275
     20 N19       -29.6500   13.5370   -4.8420 N.am      1 EUI        -0.2691
     21 C23       -28.9250   13.6760   -3.5900 C.3       1 EUI         0.0691
     22 C22       -28.2250   14.8240   -4.4330 C.3       1 EUI         0.1481
     23 C21       -29.0660   14.5390   -5.7280 C.3       1 EUI         0.0691
     24 O24       -28.5980   16.1420   -4.0240 O.3       1 EUI        -0.3791
     25 C25       -26.7130   14.7600   -4.6300 C.3       1 EUI         0.0106
     26 C30       -26.1890   13.3010   -4.7850 C.3       1 EUI        -0.0067
     27 C29       -24.6570   13.3010   -4.6250 C.3       1 EUI        -0.0431
     28 C28       -24.2860   13.7990   -3.2030 C.3       1 EUI        -0.0124
     29 C27       -24.8170   15.2450   -3.0510 C.3       1 EUI        -0.0333
     30 N26       -26.2470   15.4030   -3.3920 N.4       1 EUI         0.2313
     31 H         -29.2333   11.3092   -3.3354 H         1 EUI         0.0594
     32 H         -30.0758    9.5359   -1.7596 H         1 EUI         0.0506
     33 H         -33.3121   11.9269   -6.0361 H         1 EUI         0.2092
     34 H         -34.7486   11.9768   -2.6296 H         1 EUI         0.0524
     35 H         -37.0095   12.9485   -2.1388 H         1 EUI         0.0579
     36 H         -37.4133   14.0514   -6.2602 H         1 EUI         0.0598
     37 H         -28.4130   12.8740   -3.0582 H         1 EUI         0.0552
     38 H         -29.3741   13.7937   -2.6038 H         1 EUI         0.0552
     39 H         -29.6235   15.2827   -6.2973 H         1 EUI         0.0552
     40 H         -28.6561   14.3458   -6.7193 H         1 EUI         0.0552
     41 H         -28.1139   16.3783   -3.2294 H         1 EUI         0.2106
     42 H         -26.3593   15.2392   -5.5429 H         1 EUI         0.0880
     43 H         -26.4565   12.9161   -5.7691 H         1 EUI         0.0321
     44 H         -26.6390   12.6651   -4.0226 H         1 EUI         0.0321
     45 H         -24.2138   13.9628   -5.3691 H         1 EUI         0.0269
     46 H         -24.2767   12.2894   -4.7666 H         1 EUI         0.0269
     47 H         -23.2049   13.7778   -3.0660 H         1 EUI         0.0317
     48 H         -24.7326   13.1518   -2.4482 H         1 EUI         0.0317
     49 H         -24.2503   15.8704   -3.7408 H         1 EUI         0.0814
     50 H         -24.7034   15.5214   -2.0028 H         1 EUI         0.0814
     51 H         -26.7648   14.9573   -2.6347 H         1 EUI         0.2017
     52 H         -26.3925   16.4036   -3.5260 H         1 EUI         0.2017
@<TRIPOS>BOND
     1    1    2 2  
     2    2    3 1  
     3    2   20 am 
     4    3    4 ar 
     5    3   10 ar 
     6    4    5 ar 
     7    5    6 ar 
     8    6    7 1  
     9    6    8 ar 
    10    8    9 1  
    11    8   10 ar 
    12   10   11 1  
    13   11   12 1  
    14   12   13 ar 
    15   12   17 ar 
    16   13   14 ar 
    17   14   15 ar 
    18   15   16 1  
    19   15   19 ar 
    20   17   18 1  
    21   17   19 ar 
    22   20   21 1  
    23   20   23 1  
    24   21   22 1  
    25   22   23 1  
    26   22   24 1  
    27   22   25 1  
    28   25   26 1  
    29   25   30 1  
    30   26   27 1  
    31   27   28 1  
    32   28   29 1  
    33   29   30 1  
    34    4   31 1  
    35    5   32 1  
    36   11   33 1  
    37   13   34 1  
    38   14   35 1  
    39   19   36 1  
    40   21   37 1  
    41   21   38 1  
    42   23   39 1  
    43   23   40 1  
    44   24   41 1  
    45   25   42 1  
    46   26   43 1  
    47   26   44 1  
    48   27   45 1  
    49   27   46 1  
    50   28   47 1  
    51   28   48 1  
    52   29   49 1  
    53   29   50 1  
    54   30   51 1  
    55   30   52 1  
@<TRIPOS>SUBSTRUCTURE
     1 EUI         1

