### 
### Created by X-TOOL on Mon Sep 10 21:13:11 2018
### 

@<TRIPOS>MOLECULE
4an3_ligand
   40    41     1     0     0
SMALL
GAST_HUCK


@<TRIPOS>ATOM
      1 C13         6.2150   36.5940    4.7370 C.ar      1 5Y0         0.0959
      2 C14         6.4510   37.0640    3.4270 C.ar      1 5Y0        -0.0381
      3 C15         6.5590   38.4070    3.2160 C.ar      1 5Y0        -0.0653
      4 C16         6.4600   39.3620    4.2380 C.ar      1 5Y0        -0.0049
      5 C17         6.1990   38.8580    5.5300 C.ar      1 5Y0        -0.0275
      6 C18         6.0880   37.5050    5.7620 C.ar      1 5Y0         0.1560
      7 N9          6.0590   35.2600    5.0130 N.pl3     1 5Y0        -0.2701
      8 C5          5.8600   34.2170    4.1450 C.ar      1 5Y0         0.1118
      9 C6          4.8150   33.2800    4.2300 C.ar      1 5Y0         0.0675
     10 C1          4.7280   32.2340    3.2850 C.ar      1 5Y0        -0.0576
     11 C2          5.7040   32.1040    2.2720 C.ar      1 5Y0        -0.0361
     12 C3          6.7610   33.0200    2.2270 C.ar      1 5Y0         0.1605
     13 C4          6.8030   34.0550    3.1290 C.ar      1 5Y0         0.1913
     14 C10         3.7900   33.3490    5.2940 C.2       1 5Y0         0.2168
     15 N12         2.6720   32.6270    5.2340 N.am      1 5Y0        -0.1632
     16 O11         4.1460   33.8080    6.3810 O.2       1 5Y0        -0.3937
     17 O21         1.9310   32.4310    6.4200 O.3       1 5Y0        -0.2546
     18 C22         0.7310   31.6420    6.5050 C.3       1 5Y0         0.1072
     19 C24         1.8890   31.0650    8.6560 C.3       1 5Y0         0.0724
     20 O26         0.0600   29.6710    7.8380 O.3       1 5Y0        -0.3871
     21 O23         1.8540   32.4070    9.1130 O.3       1 5Y0        -0.3924
     22 C25         0.5740   31.0130    7.9020 C.3       1 5Y0         0.1042
     23 I20         6.6610   41.4760    3.9960 I         1 5Y0        -0.0608
     24 F19         5.8470   37.0860    7.0340 F         1 5Y0        -0.1906
     25 F7          7.8250   34.9090    3.0170 F         1 5Y0        -0.1912
     26 F8          7.7560   32.9830    1.3060 F         1 5Y0        -0.1839
     27 H           6.5455   36.3641    2.5967 H         1 5Y0         0.0524
     28 H           6.7316   38.7569    2.1982 H         1 5Y0         0.0579
     29 H           6.0829   39.5536    6.3611 H         1 5Y0         0.0598
     30 H           6.0961   35.0085    6.0008 H         1 5Y0         0.2092
     31 H           3.9033   31.5232    3.3376 H         1 5Y0         0.0594
     32 H           5.6348   31.3024    1.5366 H         1 5Y0         0.0506
     33 H           2.3582   32.2246    4.3508 H         1 5Y0         0.2208
     34 H           0.7889   30.8411    5.7679 H         1 5Y0         0.0616
     35 H          -0.1250   32.2903    6.3177 H         1 5Y0         0.0616
     36 H           1.9860   30.3210    9.4467 H         1 5Y0         0.0584
     37 H           2.7639   30.8149    8.0559 H         1 5Y0         0.0584
     38 H          -0.7703   29.6702    7.3563 H         1 5Y0         0.2100
     39 H           1.8114   32.9996    8.3590 H         1 5Y0         0.2095
     40 H          -0.1618   31.6027    8.4487 H         1 5Y0         0.0640
@<TRIPOS>BOND
     1    1    2 ar 
     2    1    6 ar 
     3    7    1 1  
     4    2    3 ar 
     5    3    4 ar 
     6    5    4 ar 
     7    4   23 1  
     8    6    5 ar 
     9    6   24 1  
    10    8    7 1  
    11    9    8 ar 
    12    8   13 ar 
    13    9   10 ar 
    14   14    9 1  
    15   10   11 ar 
    16   11   12 ar 
    17   13   12 ar 
    18   12   26 1  
    19   13   25 1  
    20   15   14 am 
    21   14   16 2  
    22   17   15 1  
    23   18   17 1  
    24   22   18 1  
    25   19   21 1  
    26   19   22 1  
    27   22   20 1  
    28    2   27 1  
    29    3   28 1  
    30    5   29 1  
    31    7   30 1  
    32   10   31 1  
    33   11   32 1  
    34   15   33 1  
    35   18   34 1  
    36   18   35 1  
    37   19   36 1  
    38   19   37 1  
    39   20   38 1  
    40   21   39 1  
    41   22   40 1  
@<TRIPOS>SUBSTRUCTURE
     1 5Y0         1

