### 
### Created by X-TOOL on Mon Sep 10 21:13:10 2018
### 

@<TRIPOS>MOLECULE
4an9_ligand
   36    38     1     0     0
SMALL
GAST_HUCK


@<TRIPOS>ATOM
      1 C5        -28.5530  -23.6340   -4.7120 C.ar      1 2P7         0.0959
      2 C6        -28.8730  -24.1170   -3.4410 C.ar      1 2P7        -0.0381
      3 C7        -30.0030  -24.9200   -3.2360 C.ar      1 2P7        -0.0653
      4 C2        -30.8630  -25.2500   -4.2830 C.ar      1 2P7        -0.0049
      5 C3        -30.5400  -24.7650   -5.5340 C.ar      1 2P7        -0.0275
      6 C4        -29.4220  -23.9850   -5.7520 C.ar      1 2P7         0.1560
      7 N8        -27.4480  -22.8360   -4.9540 N.pl3     1 2P7        -0.2701
      8 C9        -26.5130  -22.3670   -4.0490 C.ar      1 2P7         0.1118
      9 C14       -26.0710  -21.0150   -3.9730 C.ar      1 2P7         0.0661
     10 C13       -25.1240  -20.6250   -3.0460 C.ar      1 2P7        -0.0575
     11 C12       -24.5690  -21.5800   -2.1970 C.ar      1 2P7        -0.0361
     12 C11       -24.9640  -22.9190   -2.2700 C.ar      1 2P7         0.1606
     13 C10       -25.9400  -23.2880   -3.2080 C.ar      1 2P7         0.1914
     14 C15       -26.6580  -19.9610   -4.8690 C.2       1 2P7         0.1965
     15 N17       -26.8150  -18.6340   -4.4610 N.am      1 2P7        -0.2701
     16 O16       -26.9960  -20.4310   -5.9670 O.2       1 2P7        -0.3933
     17 C19       -27.0930  -16.7210   -3.8000 C.3       1 2P7         0.0955
     18 C20       -26.4820  -17.9860   -3.1910 C.3       1 2P7         0.0609
     19 O21       -28.2460  -16.3310   -3.0240 O.3       1 2P7        -0.3878
     20 I1        -32.5840  -26.4950   -4.0050 I         1 2P7        -0.0608
     21 C18       -27.3770  -17.4280   -5.1240 C.3       1 2P7         0.0609
     22 F24       -29.2080  -23.5650   -7.0140 F         1 2P7        -0.1906
     23 F23       -26.3620  -24.5510   -3.3450 F         1 2P7        -0.1912
     24 F22       -24.3930  -23.8240   -1.4250 F         1 2P7        -0.1839
     25 H         -28.2335  -23.8652   -2.5950 H         1 2P7         0.0524
     26 H         -30.2147  -25.2954   -2.2348 H         1 2P7         0.0579
     27 H         -31.1882  -25.0054   -6.3767 H         1 2P7         0.0598
     28 H         -27.3049  -22.5580   -5.9249 H         1 2P7         0.2092
     29 H         -24.8145  -19.5820   -2.9796 H         1 2P7         0.0594
     30 H         -23.8176  -21.2795   -1.4669 H         1 2P7         0.0506
     31 H         -26.5507  -15.7776   -3.8635 H         1 2P7         0.0634
     32 H         -25.4755  -18.0046   -2.7731 H         1 2P7         0.0547
     33 H         -26.8057  -18.3856   -2.2299 H         1 2P7         0.0547
     34 H         -28.6320  -15.5379   -3.4029 H         1 2P7         0.2100
     35 H         -28.3585  -17.4195   -5.5980 H         1 2P7         0.0547
     36 H         -27.0102  -17.0567   -6.0809 H         1 2P7         0.0547
@<TRIPOS>BOND
     1    1    2 ar 
     2    1    6 ar 
     3    1    7 1  
     4    2    3 ar 
     5    3    4 ar 
     6    4    5 ar 
     7    4   20 1  
     8    5    6 ar 
     9    6   22 1  
    10    7    8 1  
    11    8    9 ar 
    12    8   13 ar 
    13    9   10 ar 
    14    9   14 1  
    15   10   11 ar 
    16   11   12 ar 
    17   12   13 ar 
    18   12   24 1  
    19   13   23 1  
    20   14   15 am 
    21   14   16 2  
    22   15   18 1  
    23   15   21 1  
    24   18   17 1  
    25   17   19 1  
    26   17   21 1  
    27    2   25 1  
    28    3   26 1  
    29    5   27 1  
    30    7   28 1  
    31   10   29 1  
    32   11   30 1  
    33   17   31 1  
    34   18   32 1  
    35   18   33 1  
    36   19   34 1  
    37   21   35 1  
    38   21   36 1  
@<TRIPOS>SUBSTRUCTURE
     1 2P7         1

