### 
### Created by X-TOOL on Mon Sep 10 21:13:11 2018
### 

@<TRIPOS>MOLECULE
4anb_ligand
   42    44     1     0     0
SMALL
GAST_HUCK


@<TRIPOS>ATOM
      1 F26        25.9240  -24.9120    3.0570 F         1 YQY        -0.1912
      2 C9         25.5670  -23.6580    3.1750 C.ar      1 YQY         0.1914
      3 C10        24.6010  -23.2550    2.3170 C.ar      1 YQY         0.1606
      4 F22        24.1440  -24.2270    1.5340 F         1 YQY        -0.1839
      5 C11        24.1430  -21.9590    2.2960 C.ar      1 YQY        -0.0361
      6 C12        24.7190  -21.0650    3.1800 C.ar      1 YQY        -0.0575
      7 C13        25.7590  -21.4670    4.0170 C.ar      1 YQY         0.0661
      8 C16        26.3770  -20.4660    4.9290 C.2       1 YQY         0.1965
      9 O18        26.8510  -20.8090    6.0120 O.2       1 YQY        -0.3933
     10 N17        26.4560  -19.1860    4.5930 N.am      1 YQY        -0.2691
     11 C21        26.1120  -18.4460    3.3860 C.3       1 YQY         0.0688
     12 C20        26.7530  -17.2700    4.1280 C.3       1 YQY         0.1452
     13 O23        28.0590  -16.8460    3.7450 O.3       1 YQY        -0.3794
     14 C24        25.7760  -16.1110    4.1930 C.3       1 YQY        -0.0020
     15 N25        26.3380  -15.1750    5.1040 N.4       1 YQY         0.2207
     16 C19        27.0040  -18.0820    5.3670 C.3       1 YQY         0.0688
     17 C8         26.2210  -22.7860    3.9940 C.ar      1 YQY         0.1118
     18 N7         27.2400  -23.2140    4.7880 N.pl3     1 YQY        -0.2701
     19 C5         28.3340  -23.9950    4.3740 C.ar      1 YQY         0.0959
     20 C6         29.2540  -24.3680    5.3510 C.ar      1 YQY         0.1560
     21 F15        29.0240  -23.9200    6.5640 F         1 YQY        -0.1906
     22 C1         30.3990  -25.1570    5.1460 C.ar      1 YQY        -0.0275
     23 C4         28.5960  -24.4890    3.0870 C.ar      1 YQY        -0.0381
     24 C3         29.7490  -25.3080    2.8980 C.ar      1 YQY        -0.0653
     25 C2         30.6630  -25.6250    3.9020 C.ar      1 YQY        -0.0049
     26 I14        32.3900  -26.9130    3.6630 I         1 YQY        -0.0608
     27 H          23.3560  -21.6480    1.6089 H         1 YQY         0.0506
     28 H          24.3570  -20.0378    3.2227 H         1 YQY         0.0594
     29 H          25.1097  -18.4178    2.9586 H         1 YQY         0.0552
     30 H          26.4006  -18.7578    2.3822 H         1 YQY         0.0552
     31 H          28.0492  -16.5760    2.8238 H         1 YQY         0.2106
     32 H          24.7919  -16.4424    4.5245 H         1 YQY         0.0843
     33 H          25.6274  -15.6645    3.2098 H         1 YQY         0.0843
     34 H          25.7183  -14.3691    5.1871 H         1 YQY         0.1995
     35 H          26.4489  -15.6157    6.0172 H         1 YQY         0.1995
     36 H          27.2485  -14.8711    4.7589 H         1 YQY         0.1995
     37 H          27.9738  -18.1266    5.8627 H         1 YQY         0.0552
     38 H          26.6267  -17.7996    6.3499 H         1 YQY         0.0552
     39 H          27.2075  -22.9443    5.7712 H         1 YQY         0.2092
     40 H          31.0656  -25.3893    5.9765 H         1 YQY         0.0598
     41 H          27.9354  -24.2530    2.2527 H         1 YQY         0.0524
     42 H          29.9272  -25.7130    1.9019 H         1 YQY         0.0579
@<TRIPOS>BOND
     1    1    2 1  
     2    2    3 ar 
     3    2   17 ar 
     4    3    4 1  
     5    3    5 ar 
     6    5    6 ar 
     7    6    7 ar 
     8    7    8 1  
     9    7   17 ar 
    10    8    9 2  
    11    8   10 am 
    12   10   11 1  
    13   10   16 1  
    14   11   12 1  
    15   12   13 1  
    16   12   14 1  
    17   12   16 1  
    18   14   15 1  
    19   17   18 1  
    20   18   19 1  
    21   19   20 ar 
    22   19   23 ar 
    23   20   21 1  
    24   20   22 ar 
    25   22   25 ar 
    26   23   24 ar 
    27   24   25 ar 
    28   25   26 1  
    29    5   27 1  
    30    6   28 1  
    31   11   29 1  
    32   11   30 1  
    33   13   31 1  
    34   14   32 1  
    35   14   33 1  
    36   15   34 1  
    37   15   35 1  
    38   15   36 1  
    39   16   37 1  
    40   16   38 1  
    41   18   39 1  
    42   22   40 1  
    43   23   41 1  
    44   24   42 1  
@<TRIPOS>SUBSTRUCTURE
     1 YQY         1

