### 
### Created by X-TOOL on Mon Sep 10 21:13:09 2018
### 

@<TRIPOS>MOLECULE
4anm_ligand
   37    40     1     0     0
SMALL
GAST_HUCK


@<TRIPOS>ATOM
      1 C14        23.8270    2.1590   18.1400 C.3       1 WUL         0.0997
      2 N3         25.4080    3.6900   17.3710 N.4       1 WUL         0.2574
      3 O3         23.7550    1.0880   17.1040 O.3       1 WUL        -0.3863
      4 C13        25.2050    2.0350   18.7930 C.3       1 WUL         0.0185
      5 N1         24.3600    6.9000   18.0990 N.2       1 WUL        -0.3149
      6 O1         25.1430    7.8340   14.2830 O.2       1 WUL        -0.3991
      7 C12        26.1770    2.5200   17.6740 C.3       1 WUL        -0.0269
      8 N2         25.4760    6.4350   16.0690 N.am      1 WUL        -0.1940
      9 C5         25.8770    5.0060   17.9320 C.3       1 WUL         0.0555
     10 C3         25.2120    6.1570   17.3720 C.2       1 WUL         0.1824
     11 C2         23.8170    8.0200   17.5800 C.2       1 WUL         0.0377
     12 C7         22.9430    8.9530   18.0930 C.ar      1 WUL         0.0150
     13 BR1        20.3350   10.4990   20.9780 Br        1 WUL        -0.0590
     14 C11        22.2490    9.1280   19.3100 C.ar      1 WUL        -0.0549
     15 C10        21.3610   10.2100   19.3180 C.ar      1 WUL         0.0012
     16 C9         21.1560   11.1410   18.3700 C.ar      1 WUL        -0.0615
     17 C8         21.8680   10.9090   17.1740 C.ar      1 WUL        -0.0264
     18 O2         23.4500    9.4480   15.9870 O.3       1 WUL        -0.2514
     19 C6         22.6920    9.8500   17.0780 C.ar      1 WUL         0.1271
     20 C1         24.1020    8.3590   16.2650 C.2       1 WUL         0.1949
     21 C4         24.9570    7.5630   15.5010 C.2       1 WUL         0.2551
     22 C15        23.9520    3.4820   17.4500 C.3       1 WUL        -0.0028
     23 H1         22.9893    2.1126   18.8514 H         1 WUL         0.0649
     24 H2         25.5698    3.8066   16.3829 H         1 WUL         0.2059
     25 H3         22.9113    1.1260   16.6689 H         1 WUL         0.2100
     26 H4         25.4158    0.9925   19.0734 H         1 WUL         0.0344
     27 H5         25.2782    2.6763   19.6837 H         1 WUL         0.0344
     28 H6         27.1860    2.7498   18.0469 H         1 WUL         0.0816
     29 H7         26.2491    1.8188   16.8296 H         1 WUL         0.0816
     30 H8         26.0472    5.8171   15.5287 H         1 WUL         0.2523
     31 H9         26.9551    5.1006   17.7351 H         1 WUL         0.1109
     32 H10        25.7016    5.0005   19.0179 H         1 WUL         0.1109
     33 H11        22.3919    8.4789   20.1663 H         1 WUL         0.0615
     34 H12        20.5021   11.9938   18.5118 H         1 WUL         0.0592
     35 H13        21.7511   11.5834   16.3334 H         1 WUL         0.0570
     36 H14        23.4719    4.2789   18.0369 H         1 WUL         0.0840
     37 H15        23.5046    3.4459   16.4458 H         1 WUL         0.0840
@<TRIPOS>BOND
     1    1    3 1  
     2    1    4 1  
     3   22    1 1  
     4    2    7 1  
     5    9    2 1  
     6    2   22 1  
     7    7    4 1  
     8    5   10 2  
     9   11    5 1  
    10   21    6 2  
    11   10    8 1  
    12    8   21 am 
    13   10    9 1  
    14   12   11 1  
    15   11   20 2  
    16   14   12 ar 
    17   12   19 ar 
    18   15   13 1  
    19   14   15 ar 
    20   15   16 ar 
    21   16   17 ar 
    22   17   19 ar 
    23   19   18 1  
    24   18   20 1  
    25   20   21 1  
    26    1   23 1  
    27    2   24 1  
    28    3   25 1  
    29    4   26 1  
    30    4   27 1  
    31    7   28 1  
    32    7   29 1  
    33    8   30 1  
    34    9   31 1  
    35    9   32 1  
    36   14   33 1  
    37   16   34 1  
    38   17   35 1  
    39   22   36 1  
    40   22   37 1  
@<TRIPOS>SUBSTRUCTURE
     1 WUL         1

