### 
### Created by X-TOOL on Mon Sep 10 21:13:14 2018
### 

@<TRIPOS>MOLECULE
4anq_ligand
   53    56     1     0     0
SMALL
GAST_HUCK


@<TRIPOS>ATOM
      1 CL         32.8060   46.6850    6.3050 Cl        1 VGH        -0.0808
      2 C13        33.3360   46.3750    7.9310 C.ar      1 VGH         0.0403
      3 C3         34.1910   47.3580    8.5080 C.ar      1 VGH        -0.0561
      4 C2         34.6890   47.2140    9.8270 C.ar      1 VGH        -0.0339
      5 C12        34.3460   46.0790   10.6060 C.ar      1 VGH         0.1404
      6 F          34.8430   45.9840   11.8460 F         1 VGH        -0.1842
      7 C17        32.9550   45.1900    8.6970 C.ar      1 VGH         0.0160
      8 C18        33.4820   45.0580   10.0660 C.ar      1 VGH         0.0774
      9 CL2        33.1130   43.6910   11.1070 Cl        1 VGH        -0.0787
     10 C21        32.0120   44.1040    8.0520 C.3       1 VGH         0.1115
     11 C1         32.6930   42.7270    8.0510 C.3       1 VGH        -0.0242
     12 O27        30.7290   43.9080    8.7500 O.3       1 VGH        -0.3010
     13 C15        29.7160   44.8670    8.9150 C.ar      1 VGH         0.1362
     14 C4         29.6140   46.1010    8.1850 C.ar      1 VGH        -0.0252
     15 C19        28.6680   44.6140    9.8630 C.ar      1 VGH         0.1368
     16 N22        28.7010   43.4220   10.6120 N.pl3     1 VGH        -0.3267
     17 N23        27.6250   45.4550   10.0940 N.ar      1 VGH        -0.3009
     18 C5         27.5560   46.6220    9.3830 C.ar      1 VGH        -0.0161
     19 C14        28.5290   47.0060    8.4080 C.ar      1 VGH        -0.0311
     20 C16        28.4480   48.3040    7.6260 C.2       1 VGH        -0.0030
     21 C6         29.5150   48.9180    6.8340 C.2       1 VGH         0.0048
     22 C7         27.3650   49.1720    7.4960 C.2       1 VGH         0.0622
     23 N26        27.8630   50.2020    6.6630 N.pl3     1 VGH        -0.2005
     24 N24        29.0840   50.0060    6.3190 N.2       1 VGH        -0.2139
     25 C20        27.1190   51.3970    6.2000 C.3       1 VGH         0.0923
     26 C8         26.7240   52.2900    7.3970 C.3       1 VGH         0.0204
     27 C10        25.9550   53.5300    6.8830 C.3       1 VGH        -0.0306
     28 N25        24.7760   53.1610    6.0450 N.4       1 VGH         0.2271
     29 C11        25.1290   52.2570    4.9120 C.3       1 VGH        -0.0306
     30 C9         25.8750   50.9870    5.3810 C.3       1 VGH         0.0204
     31 H1         34.4654   48.2315    7.9278 H         1 VGH         0.0597
     32 H2         35.3368   47.9767   10.2437 H         1 VGH         0.0547
     33 H3         31.8060   44.4129    7.0166 H         1 VGH         0.0813
     34 H4         32.0193   41.9851    7.5975 H         1 VGH         0.0281
     35 H5         32.9220   42.4304    9.0852 H         1 VGH         0.0281
     36 H6         33.6253   42.7794    7.4695 H         1 VGH         0.0281
     37 H7         30.3730   46.3503    7.4523 H         1 VGH         0.0567
     38 H8         27.9577   43.2233   11.2968 H         1 VGH         0.1727
     39 H9         29.4684   42.7488   10.4750 H         1 VGH         0.1727
     40 H10        26.7218   47.2890    9.5681 H         1 VGH         0.0640
     41 H11        30.5172   48.5123    6.7040 H         1 VGH         0.0670
     42 H12        26.3714   49.0795    7.9320 H         1 VGH         0.1021
     43 H13        27.7821   51.9796    5.5436 H         1 VGH         0.0683
     44 H14        27.6313   52.6150    7.9273 H         1 VGH         0.0349
     45 H15        26.0821   51.7193    8.0843 H         1 VGH         0.0349
     46 H16        26.6389   54.1448    6.2794 H         1 VGH         0.0815
     47 H17        25.6051   54.1124    7.7481 H         1 VGH         0.0815
     48 H18        24.3717   54.0045    5.6694 H         1 VGH         0.2013
     49 H19        24.0993   52.6953    6.6292 H         1 VGH         0.2013
     50 H20        25.7735   52.8060    4.2098 H         1 VGH         0.0815
     51 H21        24.2036   51.9542    4.4003 H         1 VGH         0.0815
     52 H22        25.2064   50.3791    6.0082 H         1 VGH         0.0349
     53 H23        26.1891   50.4010    4.5047 H         1 VGH         0.0349
@<TRIPOS>BOND
     1    1    2 1  
     2    2    3 ar 
     3    2    7 ar 
     4    3    4 ar 
     5    4    5 ar 
     6    5    6 1  
     7    5    8 ar 
     8    7    8 ar 
     9    7   10 1  
    10    8    9 1  
    11   10   11 1  
    12   10   12 1  
    13   12   13 1  
    14   13   14 ar 
    15   13   15 ar 
    16   14   19 ar 
    17   15   16 1  
    18   15   17 ar 
    19   17   18 ar 
    20   18   19 ar 
    21   19   20 1  
    22   20   21 1  
    23   20   22 2  
    24   21   24 2  
    25   22   23 1  
    26   23   24 1  
    27   23   25 1  
    28   25   26 1  
    29   25   30 1  
    30   26   27 1  
    31   27   28 1  
    32   28   29 1  
    33   29   30 1  
    34    3   31 1  
    35    4   32 1  
    36   10   33 1  
    37   11   34 1  
    38   11   35 1  
    39   11   36 1  
    40   14   37 1  
    41   16   38 1  
    42   16   39 1  
    43   18   40 1  
    44   21   41 1  
    45   22   42 1  
    46   25   43 1  
    47   26   44 1  
    48   26   45 1  
    49   27   46 1  
    50   27   47 1  
    51   28   48 1  
    52   28   49 1  
    53   29   50 1  
    54   29   51 1  
    55   30   52 1  
    56   30   53 1  
@<TRIPOS>SUBSTRUCTURE
     1 VGH         1

