### 
### Created by X-TOOL on Mon Sep 10 21:13:12 2018
### 

@<TRIPOS>MOLECULE
4anu_ligand
   34    36     1     0     0
SMALL
GAST_HUCK


@<TRIPOS>ATOM
      1 C13        47.8750   16.1040   31.9600 C.3       1 EM7         0.0191
      2 N7         47.3160   14.8270   31.4760 N.am      1 EM7        -0.2882
      3 C12        48.1410   13.9380   30.8980 C.2       1 EM7         0.2243
      4 O1         49.3480   14.1330   30.7780 O.2       1 EM7        -0.3826
      5 C5         47.4870   12.6110   30.4190 C.ar      1 EM7         0.1689
      6 N6         46.2040   12.4270   30.7160 N.ar      1 EM7        -0.2603
      7 C4         48.1530   11.5820   29.7280 C.ar      1 EM7         0.1610
      8 N8         49.4310   11.6870   29.4010 N.pl3     1 EM7        -0.3112
      9 N5         47.5040   10.4640   29.3620 N.ar      1 EM7        -0.2533
     10 C3         46.2280   10.3130   29.6670 C.ar      1 EM7         0.0380
     11 C2         45.5470   11.3230   30.3580 C.ar      1 EM7         0.0748
     12 C7         44.2070   11.2430   30.7340 C.ar      1 EM7         0.0046
     13 C8         43.7840   11.9900   31.8330 C.ar      1 EM7        -0.0342
     14 C6         43.2800   10.4360   30.0860 C.ar      1 EM7        -0.0485
     15 C11        41.9510   10.4040   30.5430 C.ar      1 EM7        -0.0557
     16 C10        41.5260   11.1610   31.6370 C.ar      1 EM7        -0.0433
     17 C9         42.4620   11.9580   32.2830 C.ar      1 EM7         0.0417
     18 C1         42.1050   12.7500   33.3700 C.2       1 EM7         0.1860
     19 N2         41.7130   12.3730   34.5770 N.pl3     1 EM7        -0.1507
     20 N3         41.5140   13.4070   35.2280 N.2       1 EM7        -0.0637
     21 N4         41.7400   14.4210   34.5480 N.2       1 EM7        -0.1384
     22 N1         42.1000   14.0800   33.4200 N.2       1 EM7        -0.2072
     23 H          48.6368   15.9034   32.7133 H         1 EM7         0.0483
     24 H          48.3214   16.6435   31.1247 H         1 EM7         0.0483
     25 H          47.0783   16.7050   32.3982 H         1 EM7         0.0483
     26 H          46.3219   14.6230   31.5783 H         1 EM7         0.1841
     27 H          49.8898   10.9339   28.8884 H         1 EM7         0.1819
     28 H          49.9572   12.5210   29.6615 H         1 EM7         0.1819
     29 H          45.7041    9.4011   29.3806 H         1 EM7         0.0922
     30 H          44.5060   12.6171   32.3561 H         1 EM7         0.0676
     31 H          43.5810    9.8323   29.2298 H         1 EM7         0.0659
     32 H          41.2302    9.7690   30.0278 H         1 EM7         0.0629
     33 H          40.4899   11.1272   31.9739 H         1 EM7         0.0666
     34 H          41.5972   11.4149   34.9071 H         1 EM7         0.2707
@<TRIPOS>BOND
     1    1    2 1  
     2    2    3 am 
     3    3    4 2  
     4    3    5 1  
     5    5    6 ar 
     6    5    7 ar 
     7    6   11 ar 
     8    7    8 1  
     9    7    9 ar 
    10    9   10 ar 
    11   10   11 ar 
    12   11   12 1  
    13   12   13 ar 
    14   12   14 ar 
    15   13   17 ar 
    16   14   15 ar 
    17   15   16 ar 
    18   16   17 ar 
    19   17   18 1  
    20   18   19 1  
    21   18   22 2  
    22   19   20 1  
    23   20   21 2  
    24   21   22 1  
    25    1   23 1  
    26    1   24 1  
    27    1   25 1  
    28    2   26 1  
    29    8   27 1  
    30    8   28 1  
    31   10   29 1  
    32   13   30 1  
    33   14   31 1  
    34   15   32 1  
    35   16   33 1  
    36   19   34 1  
@<TRIPOS>SUBSTRUCTURE
     1 EM7         1

