### 
### Created by X-TOOL on Mon Sep 10 21:13:11 2018
### 

@<TRIPOS>MOLECULE
4anv_ligand
   65    69     1     0     0
SMALL
GAST_HUCK


@<TRIPOS>ATOM
      1 C28        49.5190   12.1530   30.1190 C.3       1 751         0.0599
      2 O4         48.6320   11.5740   29.1460 O.3       1 751        -0.3200
      3 C25        47.3540   11.5160   29.6160 C.ar      1 751         0.0926
      4 C26        46.5100   10.4490   29.2310 C.ar      1 751        -0.0312
      5 C27        45.2180   10.4000   29.7400 C.ar      1 751        -0.0616
      6 C24        46.8770   12.5090   30.4980 C.ar      1 751        -0.0312
      7 C23        45.5610   12.4730   30.9750 C.ar      1 751        -0.0616
      8 C22        44.7180   11.4050   30.5940 C.ar      1 751        -0.0279
      9 C18        43.4200   11.3460   31.1240 C.ar      1 751        -0.0229
     10 C17        43.1930   11.8060   32.4350 C.ar      1 751        -0.0300
     11 C19        42.3650   10.8010   30.4100 C.ar      1 751        -0.0566
     12 C20        41.1000   10.7390   30.9710 C.ar      1 751        -0.0611
     13 C21        40.8930   11.2090   32.2630 C.ar      1 751        -0.0366
     14 C16        41.9320   11.7330   33.0370 C.ar      1 751         0.1072
     15 S1         41.7110   12.4400   34.7730 S.o2      1 751         0.0704
     16 O1         42.6970   11.7930   35.6320 O.2       1 751        -0.1501
     17 O2         40.2820   12.4020   35.2090 O.2       1 751        -0.1501
     18 N1         42.0880   14.0350   34.4430 N.am      1 751        -0.2302
     19 C4         43.1260   14.5740   35.3020 C.3       1 751         0.0502
     20 C3         43.4560   15.9750   34.8710 C.3       1 751         0.0489
     21 C1         40.8420   14.7960   34.3690 C.3       1 751         0.0502
     22 C2         41.1060   16.1100   33.6750 C.3       1 751         0.0489
     23 N2         42.3590   16.7140   34.1910 N.pl3     1 751        -0.2833
     24 C5         42.5560   18.1130   34.0580 C.ar      1 751         0.1511
     25 N3         41.5610   18.9590   34.4080 N.ar      1 751        -0.2627
     26 C6         41.7120   20.2770   34.3450 C.ar      1 751         0.0224
     27 C7         42.9210   20.8030   33.9160 C.ar      1 751         0.0221
     28 N4         43.9000   19.9750   33.5460 N.ar      1 751        -0.2846
     29 C8         43.7810   18.6310   33.6330 C.ar      1 751         0.0946
     30 C9         44.8840   17.8540   33.2020 C.ar      1 751        -0.0079
     31 C10        46.1760   18.1110   33.6710 C.ar      1 751        -0.0595
     32 C11        47.2700   17.3900   33.1860 C.ar      1 751        -0.0302
     33 C12        47.0880   16.4110   32.2030 C.ar      1 751         0.0935
     34 O3         48.1160   15.6710   31.7130 O.3       1 751        -0.3194
     35 C15        49.4740   16.1460   31.6710 C.3       1 751         0.0601
     36 C13        45.8090   16.1550   31.7130 C.ar      1 751        -0.0302
     37 C14        44.7220   16.8910   32.1830 C.ar      1 751        -0.0595
     38 H1         50.5399   12.1858   29.7108 H         1 751         0.0579
     39 H2         49.5093   11.5419   31.0336 H         1 751         0.0579
     40 H3         49.1863   13.1742   30.3567 H         1 751         0.0579
     41 H4         46.8645    9.6829   28.5509 H         1 751         0.0548
     42 H5         44.5773    9.5672   29.4736 H         1 751         0.0601
     43 H6         47.5377   13.3097   30.8102 H         1 751         0.0548
     44 H7         45.1932   13.2554   31.6290 H         1 751         0.0601
     45 H8         44.0194   12.2292   32.9945 H         1 751         0.0628
     46 H9         42.5303   10.4215   29.4081 H         1 751         0.0609
     47 H10        40.2738   10.3252   30.4043 H         1 751         0.0614
     48 H11        39.8946   11.1677   32.6831 H         1 751         0.0624
     49 H12        44.0261   13.9461   35.2277 H         1 751         0.0498
     50 H13        42.7713   14.5848   36.3432 H         1 751         0.0498
     51 H14        44.3093   15.9239   34.1787 H         1 751         0.0540
     52 H15        43.7439   16.5455   35.7664 H         1 751         0.0540
     53 H16        40.4652   14.9853   35.3849 H         1 751         0.0498
     54 H17        40.0939   14.2234   33.8012 H         1 751         0.0498
     55 H18        40.2669   16.7960   33.8626 H         1 751         0.0540
     56 H19        41.2036   15.9373   32.5930 H         1 751         0.0540
     57 H20        40.8979   20.9352   34.6263 H         1 751         0.0854
     58 H21        43.0695   21.8762   33.8815 H         1 751         0.0794
     59 H22        46.3307   18.8791   34.4201 H         1 751         0.0607
     60 H23        48.2629   17.5896   33.5724 H         1 751         0.0551
     61 H24        50.1203   15.3707   31.2337 H         1 751         0.0579
     62 H25        49.8144   16.3742   32.6918 H         1 751         0.0579
     63 H26        49.5253   17.0561   31.0553 H         1 751         0.0579
     64 H27        45.6590   15.3836   30.9663 H         1 751         0.0551
     65 H28        43.7386   16.7212   31.7598 H         1 751         0.0607
@<TRIPOS>BOND
     1    1    2 1  
     2    2    3 1  
     3    3    4 ar 
     4    3    6 ar 
     5    4    5 ar 
     6    5    8 ar 
     7    6    7 ar 
     8    7    8 ar 
     9    8    9 1  
    10    9   10 ar 
    11    9   11 ar 
    12   10   14 ar 
    13   11   12 ar 
    14   12   13 ar 
    15   13   14 ar 
    16   14   15 1  
    17   15   16 2  
    18   15   17 2  
    19   15   18 am 
    20   18   19 1  
    21   18   21 1  
    22   19   20 1  
    23   20   23 1  
    24   21   22 1  
    25   22   23 1  
    26   23   24 1  
    27   24   25 ar 
    28   24   29 ar 
    29   25   26 ar 
    30   26   27 ar 
    31   27   28 ar 
    32   28   29 ar 
    33   29   30 1  
    34   30   31 ar 
    35   30   37 ar 
    36   31   32 ar 
    37   32   33 ar 
    38   33   34 1  
    39   33   36 ar 
    40   34   35 1  
    41   36   37 ar 
    42    1   38 1  
    43    1   39 1  
    44    1   40 1  
    45    4   41 1  
    46    5   42 1  
    47    6   43 1  
    48    7   44 1  
    49   10   45 1  
    50   11   46 1  
    51   12   47 1  
    52   13   48 1  
    53   19   49 1  
    54   19   50 1  
    55   20   51 1  
    56   20   52 1  
    57   21   53 1  
    58   21   54 1  
    59   22   55 1  
    60   22   56 1  
    61   26   57 1  
    62   27   58 1  
    63   31   59 1  
    64   32   60 1  
    65   35   61 1  
    66   35   62 1  
    67   35   63 1  
    68   36   64 1  
    69   37   65 1  
@<TRIPOS>SUBSTRUCTURE
     1 751         1

