### 
### Created by X-TOOL on Mon Sep 10 21:13:11 2018
### 

@<TRIPOS>MOLECULE
4anw_ligand
   44    46     1     0     0
SMALL
GAST_HUCK


@<TRIPOS>ATOM
      1 C12        47.5780   17.6520   32.5630 C.3       1 O92         0.0191
      2 N3         47.2490   16.3180   32.0220 N.am      1 O92        -0.2882
      3 C6         48.1620   15.6060   31.3230 C.2       1 O92         0.2243
      4 O1         49.3120   15.9660   31.0550 O.2       1 O92        -0.3826
      5 C4         47.6430   14.2350   30.8340 C.ar      1 O92         0.1689
      6 N2         46.3420   13.9730   31.0110 N.ar      1 O92        -0.2604
      7 C3         48.4500   13.2700   30.2020 C.ar      1 O92         0.1611
      8 N4         49.7520   13.4990   30.0030 N.pl3     1 O92        -0.3112
      9 N1         47.8990   12.0940   29.8050 N.ar      1 O92        -0.2533
     10 C2         46.6120   11.8420   29.9970 C.ar      1 O92         0.0380
     11 C1         45.8010   12.8090   30.6170 C.ar      1 O92         0.0740
     12 C5         44.4360   12.6380   30.8690 C.ar      1 O92         0.0016
     13 C11        43.8750   13.2050   32.0260 C.ar      1 O92        -0.0245
     14 C7         43.6370   11.9230   29.9850 C.ar      1 O92        -0.0516
     15 C8         42.2880   11.7840   30.2720 C.ar      1 O92        -0.0447
     16 C9         41.7290   12.3420   31.4240 C.ar      1 O92         0.0682
     17 CL1        40.0550   12.1140   31.6980 Cl        1 O92        -0.0677
     18 C10        42.5150   13.0730   32.3320 C.ar      1 O92         0.1291
     19 S1         41.8480   13.8400   33.8570 S.o2      1 O92         0.0893
     20 O2         40.8990   14.9740   33.5160 O.2       1 O92        -0.1447
     21 O3         41.1050   12.8370   34.6690 O.2       1 O92        -0.1447
     22 N5         43.1300   14.3940   34.6740 N.am      1 O92        -0.1874
     23 C14        43.5160   15.6840   34.6300 C.ar      1 O92         0.0946
     24 C17        44.0870   16.2100   35.8310 C.ar      1 O92        -0.0508
     25 C18        44.5750   17.5880   35.9520 C.ar      1 O92        -0.0834
     26 C15        44.4260   18.3890   34.8260 C.ar      1 O92        -0.0472
     27 C16        43.8560   17.8860   33.6480 C.ar      1 O92         0.1498
     28 F2         43.7160   18.6900   32.5670 F         1 O92        -0.1893
     29 C13        43.4180   16.5690   33.5460 C.ar      1 O92         0.1790
     30 F1         42.8760   16.2120   32.3700 F         1 O92        -0.1972
     31 H1         46.7045   18.0577   33.0944 H         1 O92         0.0483
     32 H2         47.8502   18.3257   31.7372 H         1 O92         0.0483
     33 H3         48.4243   17.5663   33.2605 H         1 O92         0.0483
     34 H4         46.3378   15.9354   32.1747 H         1 O92         0.1841
     35 H5         50.3351   12.7875   29.5398 H         1 O92         0.1819
     36 H6         50.1720   14.3870   30.3129 H         1 O92         0.1819
     37 H7         46.1875   10.8969   29.6782 H         1 O92         0.0922
     38 H8         44.5143   13.7613   32.7019 H         1 O92         0.0649
     39 H9         44.0600   11.4829   29.0892 H         1 O92         0.0629
     40 H10        41.6540   11.2310   29.5885 H         1 O92         0.0625
     41 H11        43.6564   13.7538   35.2335 H         1 O92         0.2148
     42 H12        44.1629   15.5586   36.6941 H         1 O92         0.0437
     43 H13        45.0251   17.9596   36.8654 H         1 O92         0.0530
     44 H14        44.7563   19.4209   34.8592 H         1 O92         0.0451
@<TRIPOS>BOND
     1    1    2 1  
     2    2    3 am 
     3    3    4 2  
     4    3    5 1  
     5    5    6 ar 
     6    5    7 ar 
     7    6   11 ar 
     8    7    8 1  
     9    7    9 ar 
    10    9   10 ar 
    11   10   11 ar 
    12   11   12 1  
    13   12   13 ar 
    14   12   14 ar 
    15   13   18 ar 
    16   14   15 ar 
    17   15   16 ar 
    18   16   17 1  
    19   16   18 ar 
    20   18   19 1  
    21   19   20 2  
    22   19   21 2  
    23   19   22 am 
    24   22   23 1  
    25   23   24 ar 
    26   23   29 ar 
    27   24   25 ar 
    28   25   26 ar 
    29   26   27 ar 
    30   27   28 1  
    31   27   29 ar 
    32   29   30 1  
    33    1   31 1  
    34    1   32 1  
    35    1   33 1  
    36    2   34 1  
    37    8   35 1  
    38    8   36 1  
    39   10   37 1  
    40   13   38 1  
    41   14   39 1  
    42   15   40 1  
    43   22   41 1  
    44   24   42 1  
    45   25   43 1  
    46   26   44 1  
@<TRIPOS>SUBSTRUCTURE
     1 O92         1

