### 
### Created by X-TOOL on Mon Sep 10 21:13:11 2018
### 

@<TRIPOS>MOLECULE
4anx_ligand
   66    70     1     0     0
SMALL
GAST_HUCK


@<TRIPOS>ATOM
      1 C26        48.4340   15.5520   32.9290 C.3       1 534        -0.0525
      2 C25        48.3990   17.0730   32.9090 C.3       1 534        -0.0122
      3 C27        49.0240   17.5860   31.6060 C.3       1 534        -0.0525
      4 C12        46.9310   17.5450   33.0540 C.ar      1 534        -0.0387
      5 C13        46.4980   18.2080   34.2010 C.ar      1 534        -0.0579
      6 C14        45.1750   18.6380   34.3320 C.ar      1 534        -0.0580
      7 C11        45.9890   17.3160   32.0450 C.ar      1 534        -0.0579
      8 C10        44.6560   17.7360   32.1800 C.ar      1 534        -0.0580
      9 C5         44.2470   18.3990   33.3280 C.ar      1 534        -0.0042
     10 C3         42.9560   18.8530   33.4950 C.ar      1 534         0.0973
     11 N1         42.7740   20.1700   33.3890 N.ar      1 534        -0.2832
     12 C2         41.5910   20.7320   33.5400 C.ar      1 534         0.0231
     13 C1         40.4860   19.9460   33.7970 C.ar      1 534         0.0232
     14 N2         40.6580   18.6370   33.9090 N.ar      1 534        -0.2618
     15 C4         41.8660   18.0390   33.7800 C.ar      1 534         0.1522
     16 N3         41.9550   16.6200   33.8840 N.pl3     1 534        -0.2830
     17 C9         43.0790   15.9580   34.6130 C.3       1 534         0.0490
     18 C8         42.7980   14.4990   34.9940 C.3       1 534         0.0502
     19 C6         40.8780   15.8350   33.1970 C.3       1 534         0.0490
     20 C7         40.6800   14.4770   33.8220 C.3       1 534         0.0502
     21 N4         42.0080   13.8620   33.9230 N.am      1 534        -0.2302
     22 S1         41.9230   12.2070   34.0420 S.o2      1 534         0.0706
     23 O1         42.8230   11.6730   35.1170 O.2       1 534        -0.1501
     24 O2         40.5000   11.7570   34.2630 O.2       1 534        -0.1501
     25 C15        42.5290   11.7630   32.4680 C.ar      1 534         0.1083
     26 C20        43.9060   11.9050   32.1880 C.ar      1 534        -0.0279
     27 C16        41.6340   11.3280   31.4850 C.ar      1 534        -0.0357
     28 C17        42.1400   10.9980   30.2290 C.ar      1 534        -0.0600
     29 C18        43.5170   11.1200   29.9410 C.ar      1 534        -0.0544
     30 C19        44.4080   11.5800   30.9220 C.ar      1 534        -0.0118
     31 C21        45.7700   11.6980   30.6360 C.ar      1 534         0.0212
     32 C22        46.4470   12.9010   30.8050 C.ar      1 534         0.0228
     33 N5         47.7380   13.0000   30.5190 N.ar      1 534        -0.2517
     34 C23        48.4150   11.9280   30.0670 C.ar      1 534         0.1916
     35 N7         49.7110   12.0330   29.7850 N.pl3     1 534        -0.3022
     36 N6         47.7880   10.7500   29.8860 N.ar      1 534        -0.2517
     37 C24        46.5010   10.6150   30.1600 C.ar      1 534         0.0228
     38 H          48.0230   15.1928   33.8725 H         1 534         0.0255
     39 H          47.8393   15.1653   32.1015 H         1 534         0.0255
     40 H          49.4647   15.2122   32.8273 H         1 534         0.0255
     41 H          48.9776   17.4761   33.7401 H         1 534         0.0461
     42 H          48.4529   17.2091   30.7576 H         1 534         0.0255
     43 H          49.0078   18.6759   31.6012 H         1 534         0.0255
     44 H          50.0541   17.2364   31.5363 H         1 534         0.0255
     45 H          47.2040   18.3944   35.0102 H         1 534         0.0563
     46 H          44.8680   19.1677   35.2338 H         1 534         0.0615
     47 H          46.2965   16.8007   31.1350 H         1 534         0.0563
     48 H          43.9408   17.5407   31.3809 H         1 534         0.0615
     49 H          41.4859   21.8141   33.4621 H         1 534         0.0797
     50 H          39.4968   20.3909   33.9051 H         1 534         0.0859
     51 H          43.2351   16.5109   35.5393 H         1 534         0.0541
     52 H          43.9424   15.9590   33.9477 H         1 534         0.0541
     53 H          42.2397   14.4661   35.9296 H         1 534         0.0498
     54 H          43.7402   13.9657   35.1204 H         1 534         0.0498
     55 H          41.1724   15.6913   32.1574 H         1 534         0.0541
     56 H          39.9438   16.3896   33.2854 H         1 534         0.0541
     57 H          40.0130   13.8639   33.2159 H         1 534         0.0498
     58 H          40.2171   14.5655   34.8048 H         1 534         0.0498
     59 H          44.5816   12.2696   32.9617 H         1 534         0.0637
     60 H          40.5675   11.2491   31.6960 H         1 534         0.0632
     61 H          41.4609   10.6395   29.4555 H         1 534         0.0617
     62 H          43.8895   10.8554   28.9514 H         1 534         0.0618
     63 H          45.9097   13.7733   31.1772 H         1 534         0.0908
     64 H          50.1898   12.9247   29.9114 H         1 534         0.1832
     65 H          50.2257   11.2218   29.4424 H         1 534         0.1832
     66 H          46.0120    9.6521   30.0123 H         1 534         0.0908
@<TRIPOS>BOND
     1    1    2 1  
     2    2    3 1  
     3    2    4 1  
     4    4    5 ar 
     5    4    7 ar 
     6    5    6 ar 
     7    6    9 ar 
     8    7    8 ar 
     9    8    9 ar 
    10    9   10 1  
    11   10   11 ar 
    12   10   15 ar 
    13   11   12 ar 
    14   12   13 ar 
    15   13   14 ar 
    16   14   15 ar 
    17   15   16 1  
    18   16   17 1  
    19   16   19 1  
    20   17   18 1  
    21   18   21 1  
    22   19   20 1  
    23   20   21 1  
    24   21   22 am 
    25   22   23 2  
    26   22   24 2  
    27   22   25 1  
    28   25   26 ar 
    29   25   27 ar 
    30   26   30 ar 
    31   27   28 ar 
    32   28   29 ar 
    33   29   30 ar 
    34   30   31 1  
    35   31   32 ar 
    36   31   37 ar 
    37   32   33 ar 
    38   33   34 ar 
    39   34   35 1  
    40   34   36 ar 
    41   36   37 ar 
    42    1   38 1  
    43    1   39 1  
    44    1   40 1  
    45    2   41 1  
    46    3   42 1  
    47    3   43 1  
    48    3   44 1  
    49    5   45 1  
    50    6   46 1  
    51    7   47 1  
    52    8   48 1  
    53   12   49 1  
    54   13   50 1  
    55   17   51 1  
    56   17   52 1  
    57   18   53 1  
    58   18   54 1  
    59   19   55 1  
    60   19   56 1  
    61   20   57 1  
    62   20   58 1  
    63   26   59 1  
    64   27   60 1  
    65   28   61 1  
    66   29   62 1  
    67   32   63 1  
    68   35   64 1  
    69   35   65 1  
    70   37   66 1  
@<TRIPOS>SUBSTRUCTURE
     1 534         1

