### 
### Created by X-TOOL on Mon Sep 10 21:13:11 2018
### 

@<TRIPOS>MOLECULE
4aof_ligand
   36    38     1     0     0
SMALL
GAST_HUCK


@<TRIPOS>ATOM
      1 CAV        52.1740   15.0530   29.3790 C.3       1 7L0         0.0318
      2 CAU        50.7570   14.8050   29.9150 C.2       1 7L0         0.2022
      3 OAW        50.3700   15.3630   30.9430 O.2       1 7L0        -0.3848
      4 NAT        50.0250   13.9550   29.1790 N.am      1 7L0        -0.2186
      5 CAN        48.7580   13.5680   29.4430 C.2       1 7L0         0.1677
      6 NAO        48.1440   12.5440   28.8470 N.2       1 7L0        -0.2939
      7 NAM        47.9390   14.1430   30.3290 N.2       1 7L0        -0.1811
      8 NAD        46.8580   13.5490   30.3250 N.pl3     1 7L0        -0.1432
      9 CAC        45.6750   13.7620   31.0660 C.2       1 7L0         0.1121
     10 CAE        46.9350   12.5100   29.3850 C.2       1 7L0         0.1547
     11 CAF        45.8410   11.6890   29.1830 C.2       1 7L0        -0.0110
     12 CAG        44.6780   11.8990   29.9180 C.2       1 7L0        -0.0472
     13 CAB        44.5760   12.9340   30.8550 C.2       1 7L0         0.0328
     14 CAA        43.3910   13.0740   31.5800 C.ar      1 7L0         0.0083
     15 CAL        43.3940   13.5910   32.8760 C.ar      1 7L0        -0.0143
     16 CAH        42.1880   12.6250   31.0330 C.ar      1 7L0         0.0145
     17 NAI        41.0560   12.7050   31.7110 N.ar      1 7L0        -0.2983
     18 CAJ        41.0220   13.2120   32.9310 C.ar      1 7L0         0.0325
     19 CAK        42.1800   13.6700   33.5560 C.ar      1 7L0         0.1121
     20 SAP        42.0620   14.3360   35.1870 S.o2      1 7L0        -0.0009
     21 CAQ        43.5170   13.9020   36.1110 C.3       1 7L0         0.0606
     22 OAS        40.8610   13.7790   35.8980 O.2       1 7L0        -0.1687
     23 OAR        41.8870   15.8310   35.1260 O.2       1 7L0        -0.1687
     24 H          52.2978   16.1136   29.1601 H         1 7L0         0.0472
     25 H          52.9034   14.7480   30.1293 H         1 7L0         0.0472
     26 H          52.3233   14.4729   28.4684 H         1 7L0         0.0472
     27 H          50.4648   13.5660   28.3450 H         1 7L0         0.2278
     28 H          45.6227   14.5684   31.7975 H         1 7L0         0.1306
     29 H          45.8891   10.8818   28.4521 H         1 7L0         0.0579
     30 H          43.8241   11.2402   29.7599 H         1 7L0         0.0683
     31 H          44.3205   13.9240   33.3438 H         1 7L0         0.0731
     32 H          42.1818   12.2008   30.0289 H         1 7L0         0.0803
     33 H          40.0700   13.2730   33.4583 H         1 7L0         0.0813
     34 H          43.4487   14.3244   37.1135 H         1 7L0         0.0469
     35 H          43.5936   12.8167   36.1771 H         1 7L0         0.0469
     36 H          44.3979   14.2996   35.6071 H         1 7L0         0.0469
@<TRIPOS>BOND
     1    1    2 1  
     2    2    3 2  
     3    2    4 am 
     4    4    5 1  
     5    5    6 1  
     6    5    7 2  
     7    6   10 2  
     8    7    8 1  
     9    8    9 1  
    10    8   10 1  
    11    9   13 2  
    12   10   11 1  
    13   11   12 2  
    14   12   13 1  
    15   13   14 1  
    16   14   15 ar 
    17   14   16 ar 
    18   15   19 ar 
    19   16   17 ar 
    20   17   18 ar 
    21   18   19 ar 
    22   19   20 1  
    23   20   21 1  
    24   20   22 2  
    25   20   23 2  
    26    1   24 1  
    27    1   25 1  
    28    1   26 1  
    29    4   27 1  
    30    9   28 1  
    31   11   29 1  
    32   12   30 1  
    33   15   31 1  
    34   16   32 1  
    35   18   33 1  
    36   21   34 1  
    37   21   35 1  
    38   21   36 1  
@<TRIPOS>SUBSTRUCTURE
     1 7L0         1

