### 
### Created by X-TOOL on Mon Sep 10 21:13:09 2018
### 

@<TRIPOS>MOLECULE
4aoi_ligand
   39    43     1     0     0
SMALL
GAST_HUCK


@<TRIPOS>ATOM
      1 N23        19.4290   80.5960   -1.7810 N.1       1 4K0        -0.3292
      2 C22        19.2430   80.8020   -0.6550 C.1       1 4K0         0.0998
      3 C19        19.0320   81.0490    0.7060 C.ar      1 4K0         0.0957
      4 C20        19.5030   82.2600    1.2980 C.ar      1 4K0        -0.0257
      5 C18        18.3460   80.0940    1.5260 C.ar      1 4K0        -0.0257
      6 C17        18.1380   80.3480    2.9210 C.ar      1 4K0        -0.0394
      7 C16        18.6110   81.5680    3.5270 C.ar      1 4K0         0.0216
      8 C21        19.2960   82.5180    2.6890 C.ar      1 4K0        -0.0394
      9 C12        18.4240   81.8770    4.9850 C.2       1 4K0         0.1410
     10 N15        18.8480   83.0920    5.4400 N.2       1 4K0        -0.1014
     11 N7         18.6770   83.3270    6.7090 N.pl3     1 4K0        -0.0722
     12 C8         18.1060   82.4450    7.6060 C.2       1 4K0         0.2514
     13 N14        17.6560   81.2180    7.2460 N.2       1 4K0        -0.2258
     14 C13        17.8240   80.9390    5.9090 C.2       1 4K0         0.0662
     15 C11        18.9860   84.4260    7.4700 C.2       1 4K0         0.1806
     16 N10        18.6230   84.1870    8.6910 N.2       1 4K0        -0.2665
     17 N9         18.0940   82.9970    8.7720 N.2       1 4K0        -0.2648
     18 C24        19.6400   85.7180    6.9930 C.3       1 4K0         0.0486
     19 C25        21.1620   85.6280    7.0510 C.2       1 4K0        -0.0205
     20 C26        21.9560   85.7590    8.1850 C.2       1 4K0         0.0252
     21 C1         22.0640   85.3980    5.9640 C.ar      1 4K0         0.0078
     22 C6         21.8560   85.1870    4.5650 C.ar      1 4K0        -0.0552
     23 C5         23.0260   84.9840    3.7510 C.ar      1 4K0        -0.0511
     24 C2         23.3590   85.3970    6.4730 C.ar      1 4K0         0.1323
     25 N27        23.2880   85.6170    7.8230 N.pl3     1 4K0        -0.2737
     26 N3         24.4910   85.2100    5.7330 N.ar      1 4K0        -0.2873
     27 C4         24.3150   85.0050    4.3800 C.ar      1 4K0        -0.0063
     28 H1         20.0220   82.9901    0.6875 H         1 4K0         0.0718
     29 H2         17.9816   79.1722    1.0873 H         1 4K0         0.0718
     30 H3         17.6191   79.6146    3.5276 H         1 4K0         0.0659
     31 H4         19.6605   83.4436    3.1197 H         1 4K0         0.0659
     32 H5         17.4919   79.9732    5.5311 H         1 4K0         0.1119
     33 H6         19.3061   86.5462    7.6354 H         1 4K0         0.0581
     34 H7         19.3327   85.9123    5.9548 H         1 4K0         0.0581
     35 H8         21.5913   85.9433    9.1944 H         1 4K0         0.0835
     36 H9         20.8605   85.1802    4.1360 H         1 4K0         0.0672
     37 H10        22.9346   84.8185    2.6836 H         1 4K0         0.0594
     38 H11        24.0920   85.6686    8.4647 H         1 4K0         0.2258
     39 H12        25.1929   84.8525    3.7627 H         1 4K0         0.0747
@<TRIPOS>BOND
     1    1    2 3  
     2    2    3 1  
     3    3    4 ar 
     4    3    5 ar 
     5    4    8 ar 
     6    5    6 ar 
     7    6    7 ar 
     8    7    8 ar 
     9    7    9 1  
    10    9   10 2  
    11    9   14 1  
    12   10   11 1  
    13   11   12 1  
    14   11   15 1  
    15   12   13 1  
    16   12   17 2  
    17   13   14 2  
    18   15   16 2  
    19   15   18 1  
    20   16   17 1  
    21   18   19 1  
    22   19   20 2  
    23   19   21 1  
    24   20   25 1  
    25   21   22 ar 
    26   21   24 ar 
    27   22   23 ar 
    28   23   27 ar 
    29   24   25 1  
    30   24   26 ar 
    31   26   27 ar 
    32    4   28 1  
    33    5   29 1  
    34    6   30 1  
    35    8   31 1  
    36   14   32 1  
    37   18   33 1  
    38   18   34 1  
    39   20   35 1  
    40   22   36 1  
    41   23   37 1  
    42   25   38 1  
    43   27   39 1  
@<TRIPOS>SUBSTRUCTURE
     1 4K0         1

