### 
### Created by X-TOOL on Mon Sep 10 21:13:10 2018
### 

@<TRIPOS>MOLECULE
4ap0_ligand
   62    65     1     0     0
SMALL
GAST_HUCK


@<TRIPOS>ATOM
      1 CAN        11.1670    2.5500   31.3440 C.ar      1 G7X        -0.0485
      2 CAO        12.1990    3.2930   30.7550 C.ar      1 G7X        -0.0547
      3 CAY        12.0670    4.6730   30.5990 C.ar      1 G7X        -0.0414
      4 CAZ        13.1960    5.5240   29.9680 C.3       1 G7X        -0.0289
      5 CAX        10.8970    5.3010   31.0220 C.ar      1 G7X        -0.0547
      6 CAW         9.8700    4.5640   31.6040 C.ar      1 G7X        -0.0485
      7 CAM         9.9940    3.1850   31.7530 C.ar      1 G7X         0.0431
      8 CAL         8.8530    2.4070   32.4250 C.2       1 G7X         0.2052
      9 OAV         8.7690    2.3920   33.6520 O.2       1 G7X        -0.3874
     10 NAK         7.9890    1.7490   31.6630 N.am      1 G7X        -0.2510
     11 CAU         6.8710    1.0090   32.2910 C.3       1 G7X         0.0257
     12 CAJ         8.0360    1.7540   30.1920 C.3       1 G7X         0.1365
     13 CAB         6.7340    2.3460   29.6480 C.3       1 G7X        -0.0028
     14 CAA         6.5130    3.7940   30.1200 C.3       1 G7X        -0.0576
     15 CAC         6.7400    2.2740   28.1300 C.3       1 G7X        -0.0576
     16 CAI         8.1480    0.3240   29.6630 C.2       1 G7X         0.1738
     17 NAH         7.0810   -0.4940   29.8640 N.2       1 G7X        -0.3060
     18 CAG         7.0880   -1.7800   29.4280 C.ar      1 G7X         0.0130
     19 CAF         5.9930   -2.6050   29.6570 C.ar      1 G7X        -0.0399
     20 CAE         5.9940   -3.9240   29.2110 C.ar      1 G7X         0.0361
     21 CLD         4.6160   -4.9300   29.4970 Cl        1 G7X        -0.0693
     22 CAP         7.0930   -4.4370   28.5290 C.ar      1 G7X        -0.0514
     23 CAQ         8.1930   -3.6200   28.2970 C.ar      1 G7X        -0.0499
     24 CAR         8.1900   -2.3030   28.7450 C.ar      1 G7X         0.0601
     25 CAS         9.2970   -1.4960   28.5160 C.2       1 G7X         0.2401
     26 OBA        10.2690   -1.9250   27.9080 O.2       1 G7X        -0.3854
     27 NAT         9.2890   -0.1800   28.9720 N.am      1 G7X        -0.1661
     28 CBB        10.4590    0.6520   28.6950 C.3       1 G7X         0.1044
     29 CBG        10.1760    1.5640   27.4870 C.ar      1 G7X        -0.0118
     30 CBH        10.4710    2.9280   27.5720 C.ar      1 G7X        -0.0576
     31 CBK        10.2300    3.7610   26.4720 C.ar      1 G7X        -0.0685
     32 CBJ         9.6940    3.2260   25.3020 C.ar      1 G7X        -0.0687
     33 CBI         9.4060    1.8660   25.2020 C.ar      1 G7X        -0.0685
     34 CBF         9.6620    1.0340   26.3020 C.ar      1 G7X        -0.0576
     35 H          11.2809    1.4749   31.4827 H         1 G7X         0.0652
     36 H          13.1064    2.7918   30.4182 H         1 G7X         0.0570
     37 H          12.8176    6.0232   29.0760 H         1 G7X         0.0401
     38 H          13.5328    6.2698   30.6881 H         1 G7X         0.0401
     39 H          14.0296    4.8760   29.6973 H         1 G7X         0.0401
     40 H          10.7854    6.3779   30.8960 H         1 G7X         0.0570
     41 H           8.9654    5.0679   31.9444 H         1 G7X         0.0652
     42 H           7.2715    0.2469   32.9595 H         1 G7X         0.0488
     43 H           6.2513    1.7029   32.8589 H         1 G7X         0.0488
     44 H           6.2700    0.5344   31.5154 H         1 G7X         0.0488
     45 H           8.8977    2.3414   29.8749 H         1 G7X         0.0867
     46 H           5.9057    1.7559   30.0401 H         1 G7X         0.0353
     47 H           6.4676    3.8169   31.2088 H         1 G7X         0.0235
     48 H           7.3389    4.4169   29.7763 H         1 G7X         0.0235
     49 H           5.5766    4.1702   29.7080 H         1 G7X         0.0235
     50 H           7.5869    2.8413   27.7440 H         1 G7X         0.0235
     51 H           6.8252    1.2333   27.8172 H         1 G7X         0.0235
     52 H           5.8121    2.6960   27.7439 H         1 G7X         0.0235
     53 H           5.1258   -2.2159   30.1905 H         1 G7X         0.0559
     54 H           7.0912   -5.4696   28.1801 H         1 G7X         0.0559
     55 H           9.0591   -4.0116   27.7634 H         1 G7X         0.0643
     56 H          11.3120    0.0114   28.4710 H         1 G7X         0.0792
     57 H          10.6786    1.2673   29.5676 H         1 G7X         0.0792
     58 H          10.8869    3.3416   28.4907 H         1 G7X         0.0558
     59 H          10.4610    4.8246   26.5309 H         1 G7X         0.0599
     60 H           9.4972    3.8806   24.4530 H         1 G7X         0.0559
     61 H           8.9882    1.4551   24.2829 H         1 G7X         0.0599
     62 H           9.4581   -0.0344   26.2311 H         1 G7X         0.0558
@<TRIPOS>BOND
     1    1    2 ar 
     2    1    7 ar 
     3    2    3 ar 
     4    3    4 1  
     5    3    5 ar 
     6    5    6 ar 
     7    6    7 ar 
     8    7    8 1  
     9    8    9 2  
    10    8   10 am 
    11   10   11 1  
    12   10   12 1  
    13   12   13 1  
    14   12   16 1  
    15   13   14 1  
    16   13   15 1  
    17   16   17 2  
    18   16   27 1  
    19   17   18 1  
    20   18   19 ar 
    21   18   24 ar 
    22   19   20 ar 
    23   20   21 1  
    24   20   22 ar 
    25   22   23 ar 
    26   23   24 ar 
    27   24   25 1  
    28   25   26 2  
    29   25   27 am 
    30   27   28 1  
    31   28   29 1  
    32   29   30 ar 
    33   29   34 ar 
    34   30   31 ar 
    35   31   32 ar 
    36   32   33 ar 
    37   33   34 ar 
    38    1   35 1  
    39    2   36 1  
    40    4   37 1  
    41    4   38 1  
    42    4   39 1  
    43    5   40 1  
    44    6   41 1  
    45   11   42 1  
    46   11   43 1  
    47   11   44 1  
    48   12   45 1  
    49   13   46 1  
    50   14   47 1  
    51   14   48 1  
    52   14   49 1  
    53   15   50 1  
    54   15   51 1  
    55   15   52 1  
    56   19   53 1  
    57   22   54 1  
    58   23   55 1  
    59   28   56 1  
    60   28   57 1  
    61   30   58 1  
    62   31   59 1  
    63   32   60 1  
    64   33   61 1  
    65   34   62 1  
@<TRIPOS>SUBSTRUCTURE
     1 G7X         1

