### 
### Created by X-TOOL on Mon Sep 10 21:13:10 2018
### 

@<TRIPOS>MOLECULE
4app_ligand
   79    84     1     0     0
SMALL
GAST_HUCK


@<TRIPOS>ATOM
      1 C1         43.2970   13.0820   16.4660 C.ar      1 N53         0.1161
      2 C2         42.4090   12.6690   15.4230 C.ar      1 N53        -0.0285
      3 C3         42.6410   11.4420   14.7340 C.ar      1 N53        -0.0697
      4 C4         43.7540   10.6280   15.1120 C.ar      1 N53        -0.0723
      5 C5         44.6330   11.0130   16.1680 C.ar      1 N53        -0.0697
      6 C6         44.4010   12.2400   16.8500 C.ar      1 N53        -0.0285
      7 C7         43.6170   16.7380   19.8680 C.ar      1 N53         0.0471
      8 C8         43.5660   16.1780   18.5600 C.ar      1 N53        -0.0084
      9 C9         43.1560   14.8210   18.3800 C.ar      1 N53         0.1214
     10 C10        42.8140   14.0180   19.5230 C.ar      1 N53        -0.0242
     11 C11        42.8880   14.5680   20.8330 C.ar      1 N53        -0.0640
     12 C12        43.2960   15.9270   21.0040 C.ar      1 N53        -0.0521
     13 C13        47.8650   24.8880   15.2130 C.ar      1 N53        -0.0407
     14 C14        47.3020   25.9770   14.4670 C.ar      1 N53        -0.0603
     15 C15        48.1540   26.8490   13.7240 C.ar      1 N53        -0.0686
     16 C16        49.5650   26.6190   13.7190 C.ar      1 N53        -0.0687
     17 C17        50.1350   25.5210   14.4440 C.ar      1 N53        -0.0686
     18 C18        49.2770   24.6490   15.1860 C.ar      1 N53        -0.0603
     19 N19        44.8420   23.1800   16.8690 N.am      1 N53        -0.2449
     20 C20        45.5400   23.8910   15.7840 C.3       1 N53         0.0946
     21 C21        45.1970   23.1900   14.4210 C.3       1 N53        -0.0067
     22 N22        43.7370   23.2920   14.2110 N.4       1 N53         0.2362
     23 C23        43.0240   22.5940   15.3160 C.3       1 N53        -0.0114
     24 C24        43.3730   23.2540   16.6460 C.3       1 N53         0.0748
     25 C25        44.6610   22.1890   21.4250 C.2       1 N53         0.0699
     26 C26        44.6420   21.4570   19.2190 C.3       1 N53         0.0727
     27 N27        44.9480   22.9280   19.2950 N.am      1 N53        -0.2869
     28 C28        45.0810   23.4450   20.6920 C.3       1 N53         0.0430
     29 N29        44.4170   21.9670   22.7200 N.pl3     1 N53        -0.2138
     30 N30        44.0530   20.6190   22.8170 N.2       1 N53        -0.1501
     31 C31        44.0800   20.0820   21.5780 C.2       1 N53         0.1907
     32 C32        46.5210   23.8950   21.0310 C.3       1 N53        -0.0779
     33 C33        44.0830   24.5670   21.0540 C.3       1 N53        -0.0779
     34 C34        45.0730   23.7350   18.2230 C.2       1 N53         0.2535
     35 O35        45.3930   24.9220   18.3540 O.2       1 N53        -0.4013
     36 C36        43.3480   22.8160   12.8740 C.3       1 N53        -0.0429
     37 C37        47.0550   24.0340   16.1100 C.3       1 N53         0.0090
     38 N38        43.7260   18.6760   21.2410 N.am      1 N53        -0.2216
     39 C39        44.0210   18.1340   20.0520 C.2       1 N53         0.2263
     40 O40        44.6070   18.7770   19.1880 O.2       1 N53        -0.3756
     41 O41        43.0400   14.4090   16.9850 O.3       1 N53        -0.2569
     42 C42        44.4610   21.0830   20.6400 C.2       1 N53         0.0711
     43 H1         41.5602   13.2884   15.1566 H         1 N53         0.0552
     44 H2         41.9809   11.1301   13.9327 H         1 N53         0.0590
     45 H3         43.9340    9.6981   14.5848 H         1 N53         0.0528
     46 H4         45.4667   10.3789   16.4470 H         1 N53         0.0590
     47 H5         45.0558   12.5416   17.6595 H         1 N53         0.0552
     48 H6         43.8381   16.7808   17.7011 H         1 N53         0.0602
     49 H7         42.4987   12.9900   19.3859 H         1 N53         0.0587
     50 H8         42.6368   13.9608   21.6951 H         1 N53         0.0602
     51 H9         43.3630   16.3471   22.0010 H         1 N53         0.0580
     52 H10        46.2299   26.1375   14.4676 H         1 N53         0.0557
     53 H11        47.7341   27.6793   13.1678 H         1 N53         0.0599
     54 H12        50.2129   27.2839   13.1594 H         1 N53         0.0559
     55 H13        51.2058   25.3532   14.4300 H         1 N53         0.0599
     56 H14        49.6952   23.8081   15.7273 H         1 N53         0.0557
     57 H15        45.1333   24.9116   15.7303 H         1 N53         0.0632
     58 H16        45.4958   22.1321   14.4595 H         1 N53         0.0839
     59 H17        45.7285   23.6915   13.5988 H         1 N53         0.0839
     60 H18        43.4873   24.2673   14.2604 H         1 N53         0.2032
     61 H19        43.3301   21.5377   15.3398 H         1 N53         0.0834
     62 H20        41.9386   22.6575   15.1493 H         1 N53         0.0834
     63 H21        43.0584   24.3078   16.6255 H         1 N53         0.0573
     64 H22        42.8520   22.7316   17.4618 H         1 N53         0.0573
     65 H23        45.4772   20.9019   18.7670 H         1 N53         0.0742
     66 H24        43.7241   21.2730   18.6414 H         1 N53         0.0742
     67 H25        44.4833   22.6485   23.4894 H         1 N53         0.2510
     68 H26        46.5557   24.2636   22.0668 H         1 N53         0.0103
     69 H27        46.8248   24.6996   20.3452 H         1 N53         0.0103
     70 H28        47.2069   23.0420   20.9223 H         1 N53         0.0103
     71 H29        44.2509   24.8857   22.0934 H         1 N53         0.0103
     72 H30        43.0546   24.1915   20.9472 H         1 N53         0.0103
     73 H31        44.2329   25.4228   20.3794 H         1 N53         0.0103
     74 H32        43.9103   23.3716   12.1091 H         1 N53         0.0778
     75 H33        42.2700   22.9778   12.7264 H         1 N53         0.0778
     76 H34        43.5730   21.7428   12.7870 H         1 N53         0.0778
     77 H35        47.1366   24.4502   17.1249 H         1 N53         0.0450
     78 H36        47.4936   23.0254   16.0909 H         1 N53         0.0450
     79 H37        43.2532   18.1186   21.9235 H         1 N53         0.2204
@<TRIPOS>BOND
     1    1    2 ar 
     2    1    6 ar 
     3   41    1 1  
     4    2    3 ar 
     5    3    4 ar 
     6    5    4 ar 
     7    6    5 ar 
     8    7    8 ar 
     9    7   12 ar 
    10   39    7 1  
    11    8    9 ar 
    12    9   10 ar 
    13    9   41 1  
    14   11   10 ar 
    15   12   11 ar 
    16   13   14 ar 
    17   13   18 ar 
    18   37   13 1  
    19   14   15 ar 
    20   15   16 ar 
    21   17   16 ar 
    22   18   17 ar 
    23   19   20 1  
    24   19   24 1  
    25   34   19 am 
    26   20   21 1  
    27   20   37 1  
    28   21   22 1  
    29   23   22 1  
    30   22   36 1  
    31   24   23 1  
    32   25   28 1  
    33   25   29 1  
    34   42   25 2  
    35   26   27 1  
    36   42   26 1  
    37   27   28 1  
    38   27   34 am 
    39   28   32 1  
    40   28   33 1  
    41   30   29 1  
    42   31   30 2  
    43   38   31 1  
    44   31   42 1  
    45   34   35 2  
    46   38   39 am 
    47   39   40 2  
    48    2   43 1  
    49    3   44 1  
    50    4   45 1  
    51    5   46 1  
    52    6   47 1  
    53    8   48 1  
    54   10   49 1  
    55   11   50 1  
    56   12   51 1  
    57   14   52 1  
    58   15   53 1  
    59   16   54 1  
    60   17   55 1  
    61   18   56 1  
    62   20   57 1  
    63   21   58 1  
    64   21   59 1  
    65   22   60 1  
    66   23   61 1  
    67   23   62 1  
    68   24   63 1  
    69   24   64 1  
    70   26   65 1  
    71   26   66 1  
    72   29   67 1  
    73   32   68 1  
    74   32   69 1  
    75   32   70 1  
    76   33   71 1  
    77   33   72 1  
    78   33   73 1  
    79   36   74 1  
    80   36   75 1  
    81   36   76 1  
    82   37   77 1  
    83   37   78 1  
    84   38   79 1  
@<TRIPOS>SUBSTRUCTURE
     1 N53         1

