### 
### Created by X-TOOL on Mon Sep 10 21:12:44 2018
### 

@<TRIPOS>MOLECULE
4apr_ligand
   99   101     1     0     0
SMALL
GAST_HUCK


@<TRIPOS>ATOM
      1 N          36.9510   72.2800  101.7050 N.4       1 PRO         0.2461
      2 CA         37.3920   71.0320  101.0490 C.3       1 PRO         0.0670
      3 C          38.5910   70.4070  101.7510 C.2       1 PRO         0.2269
      4 O          39.5280   71.1150  102.2000 O.2       1 PRO        -0.3907
      5 CB         37.6970   71.4280   99.6020 C.3       1 PRO         0.0127
      6 CG         38.0230   72.8840   99.6630 C.3       1 PRO        -0.0053
      7 CD         37.2270   73.4320  100.8490 C.3       1 PRO        -0.0313
      8 N          38.6040   69.0850  101.8220 N.am      1 PHE        -0.2592
      9 CA         39.7190   68.3490  102.4750 C.3       1 PHE         0.1406
     10 C          40.6060   67.7520  101.3930 C.2       1 PHE         0.2060
     11 O          40.1490   67.6740  100.2360 O.2       1 PHE        -0.3942
     12 CB         39.0810   67.3360  103.4210 C.3       1 PHE         0.0214
     13 CG         38.4240   67.8660  104.6520 C.ar      1 PHE        -0.0386
     14 CD1        38.6590   67.2000  105.8600 C.ar      1 PHE        -0.0601
     15 CD2        37.6110   68.9850  104.7100 C.ar      1 PHE        -0.0601
     16 CE1        38.1150   67.6310  107.0620 C.ar      1 PHE        -0.0686
     17 CE2        37.0350   69.4410  105.8940 C.ar      1 PHE        -0.0686
     18 CZ         37.2790   68.7510  107.0900 C.ar      1 PHE        -0.0687
     19 N          41.8070   67.3510  101.7190 N.am      1 HIS        -0.2623
     20 CA         42.7740   66.7050  100.7910 C.3       1 HIS         0.1368
     21 C          43.6640   65.9140  101.7730 C.2       1 HIS         0.2034
     22 O          44.7060   66.3910  102.2220 O.2       1 HIS        -0.3944
     23 CB         43.5410   67.5610   99.7990 C.3       1 HIS         0.0145
     24 CG         44.5530   66.8700   98.9400 C.2       1 HIS        -0.0027
     25 ND1        44.5080   65.5460   98.5790 N.2       1 HIS        -0.3252
     26 CD2        45.6800   67.3470   98.3450 C.2       1 HIS         0.0291
     27 CE1        45.5470   65.2180   97.8190 C.2       1 HIS         0.0907
     28 NE2        46.2630   66.3070   97.6560 N.pl3     1 HIS        -0.2752
     29 N          43.1470   64.7610  102.0880 N.am      1 STA        -0.2792
     30 CA         43.5790   63.7370  103.0370 C.3       1 STA         0.0703
     31 CB         42.4700   63.7080  104.0560 C.3       1 STA        -0.0250
     32 CG         42.5510   64.3940  105.4170 C.3       1 STA        -0.0446
     33 CD1        43.3140   65.7350  105.4240 C.3       1 STA        -0.0626
     34 CD2        41.0970   64.7170  105.8950 C.3       1 STA        -0.0626
     35 CH         44.0000   62.4350  102.3550 C.3       1 STA         0.0947
     36 OH         42.8490   61.7000  101.9220 O.3       1 STA        -0.3872
     37 CM         44.9070   62.6430  101.1580 C.3       1 STA         0.0655
     38 C          46.2820   63.1000  101.6630 C.2       1 STA         0.1808
     39 O          46.3700   64.0540  102.3940 O.2       1 STA        -0.3968
     40 N          47.1800   62.1510  101.5030 N.am      1 LEU        -0.2668
     41 CA         48.6240   62.2560  101.4150 C.3       1 LEU         0.1129
     42 C          49.1180   63.0180  100.1640 C.2       1 LEU         0.1245
     43 O          50.3280   63.3630  100.2430 O.2       1 LEU        -0.3725
     44 CB         49.2340   60.8460  101.4980 C.3       1 LEU        -0.0114
     45 CG         49.3060   60.0850  102.8000 C.3       1 LEU        -0.0425
     46 CD1        50.4320   59.0470  102.6870 C.3       1 LEU        -0.0624
     47 CD2        49.6190   61.0120  103.9770 C.3       1 LEU        -0.0624
     48 H1         37.4444   72.3888  102.5772 H         1 PRO         0.2035
     49 H2         35.9603   72.2290  101.8835 H         1 PRO         0.2035
     50 H3         36.5707   70.3004  101.0621 H         1 PRO         0.1099
     51 H4         36.8207   71.2542   98.9602 H         1 PRO         0.0347
     52 H5         38.5534   70.8555   99.2163 H         1 PRO         0.0347
     53 H6         37.7196   73.3852   98.7320 H         1 PRO         0.0320
     54 H7         39.1014   73.0301   99.8235 H         1 PRO         0.0320
     55 H8         36.2871   73.8868  100.5030 H         1 PRO         0.0814
     56 H9         37.8185   74.1822  101.3943 H         1 PRO         0.0814
     57 H10        37.8447   68.5683  101.4264 H         1 PHE         0.1886
     58 H11        40.3275   69.0461  103.0698 H         1 PHE         0.0823
     59 H12        39.8708   66.6408  103.7417 H         1 PHE         0.0474
     60 H13        38.3181   66.7863  102.8503 H         1 PHE         0.0474
     61 H14        39.2877   66.3169  105.8569 H         1 PHE         0.0557
     62 H15        37.4139   69.5304  103.7942 H         1 PHE         0.0557
     63 H16        38.3385   67.0988  107.9795 H         1 PHE         0.0599
     64 H17        36.4034   70.3220  105.8905 H         1 PHE         0.0599
     65 H18        36.8277   69.0800  108.0191 H         1 PHE         0.0559
     66 H19        42.0982   67.4892  102.6656 H         1 HIS         0.1885
     67 H20        42.2114   65.9883  100.1748 H         1 HIS         0.0817
     68 H21        44.0680   68.3389  100.3709 H         1 HIS         0.0420
     69 H22        42.8057   68.0323   99.1303 H         1 HIS         0.0420
     70 H23        46.0539   68.3682   98.4033 H         1 HIS         0.0729
     71 H24        45.7640   64.2328   97.4088 H         1 HIS         0.1199
     72 H25        47.1269   66.3729   97.0990 H         1 HIS         0.2361
     73 H26        42.3070   64.5370  101.5938 H         1 STA         0.1856
     74 H27        44.4807   64.1000  103.5520 H         1 STA         0.0583
     75 H28        42.2853   62.6444  104.2674 H         1 STA         0.0291
     76 H29        41.5914   64.1402  103.5547 H         1 STA         0.0291
     77 H30        43.0376   63.7057  106.1237 H         1 STA         0.0296
     78 H31        43.3180   66.1492  106.4430 H         1 STA         0.0232
     79 H32        42.8186   66.4423  104.7426 H         1 STA         0.0232
     80 H33        44.3494   65.5695  105.0915 H         1 STA         0.0232
     81 H34        40.5020   63.7919  105.9101 H         1 STA         0.0232
     82 H35        40.6357   65.4383  105.2044 H         1 STA         0.0232
     83 H36        41.1307   65.1478  106.9066 H         1 STA         0.0232
     84 H37        44.5453   61.8319  103.0959 H         1 STA         0.0642
     85 H38        42.2679   61.5599  102.6604 H         1 STA         0.2101
     86 H39        44.4797   63.4122  100.4978 H         1 STA         0.0529
     87 H40        45.0106   61.6993  100.6024 H         1 STA         0.0529
     88 H41        46.8136   61.2233  101.4318 H         1 LEU         0.1884
     89 H42        48.9671   62.8242  102.2921 H         1 LEU         0.0790
     90 H43        48.4863   63.2343   99.3037 H         1 LEU         0.1373
     91 H44        50.2685   60.9353  101.1350 H         1 LEU         0.0316
     92 H45        48.6551   60.2179  100.8049 H         1 LEU         0.0316
     93 H46        48.3457   59.5797  102.9804 H         1 LEU         0.0298
     94 H47        50.5030   58.4793  103.6265 H         1 LEU         0.0232
     95 H48        51.3860   59.5602  102.4958 H         1 LEU         0.0232
     96 H49        50.2136   58.3579  101.8579 H         1 LEU         0.0232
     97 H50        48.8218   61.7637  104.0737 H         1 LEU         0.0232
     98 H51        50.5799   61.5173  103.8003 H         1 LEU         0.0232
     99 H52        49.6801   60.4212  104.9029 H         1 LEU         0.0232
@<TRIPOS>BOND
     1    2    1 1  
     2    2    5 1  
     3    3    2 1  
     4    3    4 2  
     5    5    6 1  
     6    6    7 1  
     7    1    7 1  
     8   10    9 1  
     9    9   12 1  
    10    9    8 1  
    11   12   13 1  
    12   13   15 ar 
    13   13   14 ar 
    14   14   16 ar 
    15   16   18 ar 
    16   17   18 ar 
    17   15   17 ar 
    18   10   11 2  
    19   21   20 1  
    20   20   23 1  
    21   20   19 1  
    22   23   24 1  
    23   24   26 2  
    24   24   25 1  
    25   25   27 2  
    26   27   28 1  
    27   26   28 1  
    28   21   22 2  
    29   30   29 1  
    30   35   30 1  
    31   30   31 1  
    32   31   32 1  
    33   32   34 1  
    34   32   33 1  
    35   37   35 1  
    36   35   36 1  
    37   38   37 1  
    38   38   39 2  
    39   41   42 1  
    40   41   44 1  
    41   40   41 1  
    42   44   45 1  
    43   45   47 1  
    44   45   46 1  
    45   42   43 2  
    46    8    3 am 
    47   19   10 am 
    48   29   21 am 
    49   38   40 am 
    50    1   48 1  
    51    1   49 1  
    52    2   50 1  
    53    5   51 1  
    54    5   52 1  
    55    6   53 1  
    56    6   54 1  
    57    7   55 1  
    58    7   56 1  
    59    8   57 1  
    60    9   58 1  
    61   12   59 1  
    62   12   60 1  
    63   14   61 1  
    64   15   62 1  
    65   16   63 1  
    66   17   64 1  
    67   18   65 1  
    68   19   66 1  
    69   20   67 1  
    70   23   68 1  
    71   23   69 1  
    72   26   70 1  
    73   27   71 1  
    74   28   72 1  
    75   29   73 1  
    76   30   74 1  
    77   31   75 1  
    78   31   76 1  
    79   32   77 1  
    80   33   78 1  
    81   33   79 1  
    82   33   80 1  
    83   34   81 1  
    84   34   82 1  
    85   34   83 1  
    86   35   84 1  
    87   36   85 1  
    88   37   86 1  
    89   37   87 1  
    90   40   88 1  
    91   41   89 1  
    92   42   90 1  
    93   44   91 1  
    94   44   92 1  
    95   45   93 1  
    96   46   94 1  
    97   46   95 1  
    98   46   96 1  
    99   47   97 1  
   100   47   98 1  
   101   47   99 1  
@<TRIPOS>SUBSTRUCTURE
     1 PRO         1

