### 
### Created by X-TOOL on Mon Sep 10 21:13:10 2018
### 

@<TRIPOS>MOLECULE
4aq3_ligand
   94    99     1     0     0
SMALL
GAST_HUCK


@<TRIPOS>ATOM
      1 O53       -22.6270    1.5700   -9.9880 O.2       1 398        -0.3882
      2 C42       -22.5310    2.6470   -9.4610 C.2       1 398         0.2083
      3 N43       -22.2930    2.7670   -8.1400 N.am      1 398        -0.2616
      4 C48       -22.0550    4.0520   -7.4770 C.3       1 398         0.0646
      5 C47       -20.7410    3.8810   -6.7250 C.ar      1 398        -0.0188
      6 C49       -20.1460    4.9670   -6.0960 C.ar      1 398        -0.0649
      7 C50       -18.9350    4.7600   -5.4260 C.ar      1 398        -0.0754
      8 C51       -18.3090    3.4960   -5.3150 C.ar      1 398        -0.0755
      9 C52       -18.8830    2.3710   -5.9240 C.ar      1 398        -0.0667
     10 C46       -20.0830    2.5280   -6.6210 C.ar      1 398        -0.0372
     11 C45       -20.7580    1.3160   -7.2300 C.3       1 398        -0.0010
     12 C44       -22.2690    1.5770   -7.2460 C.3       1 398         0.0437
     13 C1        -22.7280    3.8120  -10.3790 C.ar      1 398         0.0921
     14 C6        -21.6290    4.1860  -11.2780 C.ar      1 398         0.1382
     15 N7        -20.5480    3.4220  -11.3250 N.pl3     1 398        -0.1471
     16 N11       -19.8030    3.1280  -10.1790 N.2       1 398        -0.1883
     17 C10       -18.8260    2.3050  -10.5670 C.2       1 398         0.1118
     18 C12       -17.7960    1.6280   -9.7380 C.2       1 398         0.2108
     19 O22       -18.0750    0.5030   -9.3420 O.2       1 398        -0.3848
     20 N13       -16.6370    2.1490   -9.3910 N.am      1 398        -0.2724
     21 C18       -16.4590    3.4660   -8.8080 C.3       1 398         0.0334
     22 C19       -16.6810    4.5510   -9.8430 C.3       1 398        -0.0328
     23 C20       -17.6320    5.5980   -9.2470 C.3       1 398        -0.0541
     24 C21       -16.9910    6.5890   -8.2890 C.3       1 398        -0.0652
     25 C14       -15.4370    1.3180   -9.5430 C.3       1 398         0.0334
     26 C15       -15.0020    1.0630   -8.1350 C.3       1 398        -0.0328
     27 C16       -13.5160    0.8270   -8.1650 C.3       1 398        -0.0541
     28 C17       -13.2780   -0.0370   -9.3680 C.3       1 398        -0.0652
     29 C9        -19.1210    2.0220  -11.9810 C.2       1 398         0.0705
     30 CL23      -18.2010    0.9220  -13.1250 Cl        1 398        -0.1068
     31 C8        -20.2810    2.7580  -12.4610 C.2       1 398         0.1024
     32 C24       -20.9220    2.7980  -13.8530 C.3       1 398         0.0022
     33 C5        -21.8570    5.2660  -12.1310 C.ar      1 398        -0.0136
     34 C4        -23.0430    5.9570  -12.1310 C.ar      1 398        -0.0415
     35 C3        -24.0550    5.6180  -11.2380 C.ar      1 398         0.0500
     36 C2        -23.9090    4.5440  -10.3640 C.ar      1 398        -0.0254
     37 C25       -25.3140    6.4220  -11.2330 C.2       1 398         0.2209
     38 O26       -25.4460    7.2750  -12.0690 O.2       1 398        -0.3862
     39 N27       -26.2460    6.1250  -10.3460 N.am      1 398        -0.1541
     40 S28       -27.6500    6.8810  -10.2360 S.o2      1 398         0.0905
     41 O29       -28.4000    6.8080  -11.4500 O.2       1 398        -0.1455
     42 O30       -28.3230    6.1570   -9.1890 O.2       1 398        -0.1455
     43 C31       -27.4990    8.4550   -9.8030 C.ar      1 398         0.1146
     44 C36       -27.4750    9.4460  -10.7860 C.ar      1 398        -0.0256
     45 C35       -27.3570   10.7790  -10.4430 C.ar      1 398        -0.0126
     46 C37       -27.3240   11.7290  -11.4660 C.ar      1 398        -0.0421
     47 C38       -27.2060   13.0700  -11.1750 C.ar      1 398         0.0101
     48 I41       -27.2390   14.4560  -12.7720 I         1 398        -0.0493
     49 C39       -27.1360   13.4660   -9.8140 C.ar      1 398        -0.0512
     50 C40       -27.1730   12.5230   -8.7660 C.ar      1 398        -0.0525
     51 C34       -27.2850   11.1680   -9.0890 C.ar      1 398        -0.0162
     52 C33       -27.2950   10.1990   -8.1070 C.ar      1 398        -0.0512
     53 C32       -27.4210    8.8500   -8.4530 C.ar      1 398        -0.0333
     54 H1        -22.8721    4.2813   -6.7771 H         1 398         0.0670
     55 H2        -21.9712    4.8589   -8.2199 H         1 398         0.0670
     56 H3        -20.6069    5.9478   -6.1233 H         1 398         0.0538
     57 H4        -18.4503    5.6142   -4.9672 H         1 398         0.0541
     58 H5        -17.3842    3.3972   -4.7582 H         1 398         0.0541
     59 H6        -18.4056    1.4002   -5.8553 H         1 398         0.0537
     60 H7        -20.5393    0.4232   -6.6258 H         1 398         0.0431
     61 H8        -20.3944    1.1620   -8.2567 H         1 398         0.0431
     62 H9        -22.8287    0.7309   -7.6712 H         1 398         0.0544
     63 H10       -22.6580    1.8071   -6.2431 H         1 398         0.0544
     64 H11       -15.4359    3.5495   -8.4128 H         1 398         0.0522
     65 H12       -17.1806    3.5974   -7.9883 H         1 398         0.0522
     66 H13       -17.1280    4.1153  -10.7487 H         1 398         0.0285
     67 H14       -15.7210    5.0233  -10.0987 H         1 398         0.0285
     68 H15       -18.4260    5.0652   -8.7033 H         1 398         0.0263
     69 H16       -18.0747    6.1668  -10.0780 H         1 398         0.0263
     70 H17       -17.7546    7.2905   -7.9220 H         1 398         0.0230
     71 H18       -16.2016    7.1476   -8.8132 H         1 398         0.0230
     72 H19       -16.5530    6.0460   -7.4385 H         1 398         0.0230
     73 H20       -14.6570    1.8541  -10.1035 H         1 398         0.0522
     74 H21       -15.6753    0.3750  -10.0568 H         1 398         0.0522
     75 H22       -15.5165    0.1764   -7.7361 H         1 398         0.0285
     76 H23       -15.2326    1.9350   -7.5054 H         1 398         0.0285
     77 H24       -13.1888    0.3120   -7.2497 H         1 398         0.0263
     78 H25       -12.9761    1.7804   -8.2622 H         1 398         0.0263
     79 H26       -12.2033   -0.2539   -9.4568 H         1 398         0.0230
     80 H27       -13.6217    0.4889  -10.2709 H         1 398         0.0230
     81 H28       -13.8344   -0.9795   -9.2584 H         1 398         0.0230
     82 H29       -20.4030    2.0902  -14.5161 H         1 398         0.0442
     83 H30       -20.8399    3.8144  -14.2654 H         1 398         0.0442
     84 H31       -21.9830    2.5180  -13.7763 H         1 398         0.0442
     85 H32       -21.0729    5.5691  -12.8154 H         1 398         0.0612
     86 H33       -23.1922    6.7714  -12.8306 H         1 398         0.0686
     87 H34       -24.7077    4.2818   -9.6796 H         1 398         0.0706
     88 H35       -26.0621    5.3812   -9.7034 H         1 398         0.2137
     89 H36       -27.5498    9.1663  -11.8306 H         1 398         0.0650
     90 H37       -27.3919   11.4079  -12.4991 H         1 398         0.0663
     91 H38       -27.0520   14.5197   -9.5739 H         1 398         0.0636
     92 H39       -27.1158   12.8425   -7.7317 H         1 398         0.0625
     93 H40       -27.2050   10.4840   -7.0650 H         1 398         0.0626
     94 H41       -27.4591    8.0987   -7.6725 H         1 398         0.0644
@<TRIPOS>BOND
     1    1    2 2  
     2    2    3 am 
     3    2   13 1  
     4    3    4 1  
     5    3   12 1  
     6    4    5 1  
     7    5    6 ar 
     8    5   10 ar 
     9    6    7 ar 
    10    7    8 ar 
    11    8    9 ar 
    12    9   10 ar 
    13   10   11 1  
    14   11   12 1  
    15   13   14 ar 
    16   13   36 ar 
    17   14   15 1  
    18   14   33 ar 
    19   15   16 1  
    20   15   31 1  
    21   16   17 2  
    22   17   18 1  
    23   17   29 1  
    24   18   19 2  
    25   18   20 am 
    26   20   21 1  
    27   20   25 1  
    28   21   22 1  
    29   22   23 1  
    30   23   24 1  
    31   25   26 1  
    32   26   27 1  
    33   27   28 1  
    34   29   30 1  
    35   29   31 2  
    36   31   32 1  
    37   33   34 ar 
    38   34   35 ar 
    39   35   36 ar 
    40   35   37 1  
    41   37   38 2  
    42   37   39 am 
    43   39   40 am 
    44   40   41 2  
    45   40   42 2  
    46   40   43 1  
    47   43   44 ar 
    48   43   53 ar 
    49   44   45 ar 
    50   45   46 ar 
    51   45   51 ar 
    52   46   47 ar 
    53   47   48 1  
    54   47   49 ar 
    55   49   50 ar 
    56   50   51 ar 
    57   51   52 ar 
    58   52   53 ar 
    59    4   54 1  
    60    4   55 1  
    61    6   56 1  
    62    7   57 1  
    63    8   58 1  
    64    9   59 1  
    65   11   60 1  
    66   11   61 1  
    67   12   62 1  
    68   12   63 1  
    69   21   64 1  
    70   21   65 1  
    71   22   66 1  
    72   22   67 1  
    73   23   68 1  
    74   23   69 1  
    75   24   70 1  
    76   24   71 1  
    77   24   72 1  
    78   25   73 1  
    79   25   74 1  
    80   26   75 1  
    81   26   76 1  
    82   27   77 1  
    83   27   78 1  
    84   28   79 1  
    85   28   80 1  
    86   28   81 1  
    87   32   82 1  
    88   32   83 1  
    89   32   84 1  
    90   33   85 1  
    91   34   86 1  
    92   36   87 1  
    93   39   88 1  
    94   44   89 1  
    95   46   90 1  
    96   49   91 1  
    97   50   92 1  
    98   52   93 1  
    99   53   94 1  
@<TRIPOS>SUBSTRUCTURE
     1 398         1

