### 
### Created by X-TOOL on Mon Sep 10 21:13:12 2018
### 

@<TRIPOS>MOLECULE
4aq6_ligand
   19    19     1     0     0
SMALL
GAST_HUCK


@<TRIPOS>ATOM
      1 C1         17.5990   42.2440    0.3040 C.2       1 OMD         0.0444
      2 C2         16.6750   42.3480   -0.8720 C.3       1 OMD         0.0295
      3 C1'        17.3800   42.6010   -2.1560 C.ar      1 OMD        -0.0093
      4 C2'        17.6300   41.5670   -3.0450 C.ar      1 OMD        -0.0385
      5 C3'        18.2920   41.8390   -4.2390 C.ar      1 OMD         0.0700
      6 O3'        18.5860   40.8510   -5.1460 O.3       1 OMD        -0.3420
      7 C4'        18.6890   43.1340   -4.5390 C.ar      1 OMD        -0.0487
      8 C5'        18.4250   44.1590   -3.6480 C.ar      1 OMD        -0.0479
      9 C6'        17.7780   43.8960   -2.4500 C.ar      1 OMD         0.0796
     10 O6'        17.5210   44.9320   -1.5620 O.3       1 OMD        -0.3439
     11 O1         17.3150   42.8800    1.3550 O.co2     1 OMD        -0.5667
     12 O2         18.6300   41.5150    0.2630 O.co2     1 OMD        -0.5667
     13 H1         15.9723   43.1747   -0.6913 H         1 OMD         0.0564
     14 H2         16.1163   41.4047   -0.9610 H         1 OMD         0.0564
     15 H3         17.3131   40.5567   -2.8127 H         1 OMD         0.0456
     16 H4         19.1442   40.2013   -4.7351 H         1 OMD         0.2443
     17 H5         19.2049   43.3423   -5.4694 H         1 OMD         0.0459
     18 H6         18.7254   45.1726   -3.8876 H         1 OMD         0.0496
     19 H7         18.3411   45.3332   -1.2993 H         1 OMD         0.2420
@<TRIPOS>BOND
     1    1    2 1  
     2    1   11 ar 
     3    1   12 ar 
     4    2    3 1  
     5    3    4 ar 
     6    3    9 ar 
     7    4    5 ar 
     8    5    6 1  
     9    5    7 ar 
    10    7    8 ar 
    11    8    9 ar 
    12    9   10 1  
    13    2   13 1  
    14    2   14 1  
    15    4   15 1  
    16    6   16 1  
    17    7   17 1  
    18    8   18 1  
    19   10   19 1  
@<TRIPOS>SUBSTRUCTURE
     1 OMD         1

