### 
### Created by X-TOOL on Mon Sep 10 21:13:09 2018
### 

@<TRIPOS>MOLECULE
4aqc_ligand
   55    59     1     0     0
SMALL
GAST_HUCK


@<TRIPOS>ATOM
      1 O2        110.3650   62.6770    8.3940 O.2       1 88A        -0.1699
      2 S         111.1590   62.7640    7.1560 S.o2      1 88A        -0.0069
      3 O1        111.4280   61.6220    6.2860 O.2       1 88A        -0.1699
      4 C1        110.2570   63.9630    6.1310 C.3       1 88A         0.0593
      5 C21       112.6780   63.5930    7.4960 C.ar      1 88A         0.0854
      6 C20       113.0510   63.8360    8.8120 C.ar      1 88A        -0.0391
      7 C19       114.2650   64.4980    9.0330 C.ar      1 88A        -0.0557
      8 C22       113.4510   63.9860    6.4020 C.ar      1 88A        -0.0391
      9 C23       114.6390   64.6630    6.6400 C.ar      1 88A        -0.0557
     10 C18       115.0720   64.8990    7.9580 C.ar      1 88A        -0.0192
     11 C2        116.3580   65.6140    8.1700 C.2       1 88A         0.0336
     12 C6        116.5600   66.3780    9.3460 C.2       1 88A         0.1651
     13 N3        115.8510   66.6090   10.4290 N.2       1 88A        -0.2908
     14 C7        116.6160   67.4320   11.1610 C.2       1 88A         0.1589
     15 N2        117.7950   67.7300   10.6780 N.2       1 88A        -0.1777
     16 N1        117.7650   67.0780    9.4870 N.pl3     1 88A        -0.1424
     17 C5        118.7230   67.0660    8.5370 C.2       1 88A         0.1003
     18 C4        118.5420   66.3330    7.4020 C.2       1 88A        -0.0186
     19 C3        117.3600   65.5880    7.2090 C.2       1 88A        -0.0477
     20 N4        116.1790   67.8910   12.3870 N.pl3     1 88A        -0.2672
     21 C8        115.1190   67.6440   13.1390 C.ar      1 88A         0.0472
     22 C13       114.0090   66.9130   12.6520 C.ar      1 88A        -0.0504
     23 C12       112.9250   66.6520   13.4840 C.ar      1 88A        -0.0536
     24 C11       112.8940   67.1210   14.8050 C.ar      1 88A         0.0288
     25 C10       113.9930   67.8720   15.2790 C.ar      1 88A        -0.0536
     26 C9        115.0950   68.1100   14.4530 C.ar      1 88A        -0.0504
     27 N5        111.8360   66.8500   15.5890 N.pl3     1 88A        -0.3107
     28 C17       111.0580   65.5960   15.4290 C.3       1 88A         0.0481
     29 C16       110.2900   65.0560   16.6590 C.3       1 88A         0.0669
     30 O3        109.9730   66.0590   17.6290 O.3       1 88A        -0.3759
     31 C15       111.0760   66.9190   17.9140 C.3       1 88A         0.0669
     32 C14       111.3740   67.7450   16.6620 C.3       1 88A         0.0481
     33 H1        110.0217   64.8545    6.7309 H         1 88A         0.0468
     34 H2        109.3233   63.5074    5.7696 H         1 88A         0.0468
     35 H3        110.8799   64.2531    5.2721 H         1 88A         0.0468
     36 H4        112.4239   63.5239    9.6393 H         1 88A         0.0630
     37 H5        114.5853   64.7033   10.0481 H         1 88A         0.0601
     38 H6        113.1307   63.7674    5.3897 H         1 88A         0.0630
     39 H7        115.2368   65.0120    5.8058 H         1 88A         0.0601
     40 H8        119.6379   67.6400    8.6765 H         1 88A         0.1260
     41 H9        119.3172   66.3225    6.6372 H         1 88A         0.0565
     42 H10       117.2332   64.9923    6.3062 H         1 88A         0.0688
     43 H11       116.8198   68.5776   12.8100 H         1 88A         0.2068
     44 H12       114.0036   66.5558   11.6286 H         1 88A         0.0500
     45 H13       112.0892   66.0756   13.1041 H         1 88A         0.0488
     46 H14       113.9813   68.2657   16.2889 H         1 88A         0.0488
     47 H15       115.9427   68.6645   14.8391 H         1 88A         0.0500
     48 H16       111.7621   64.8122   15.1130 H         1 88A         0.0532
     49 H17       110.3196   65.7685   14.6322 H         1 88A         0.0532
     50 H18       110.9096   64.2877   17.1446 H         1 88A         0.0579
     51 H19       109.3507   64.6026   16.3096 H         1 88A         0.0579
     52 H20       111.9574   66.3178   18.1819 H         1 88A         0.0579
     53 H21       110.8206   67.5878   18.7492 H         1 88A         0.0579
     54 H22       110.4604   68.2654   16.3389 H         1 88A         0.0532
     55 H23       112.1570   68.4841   16.8870 H         1 88A         0.0532
@<TRIPOS>BOND
     1    1    2 2  
     2    2    3 2  
     3    2    4 1  
     4    2    5 1  
     5    5    6 ar 
     6    5    8 ar 
     7    6    7 ar 
     8    7   10 ar 
     9    8    9 ar 
    10    9   10 ar 
    11   10   11 1  
    12   11   12 1  
    13   11   19 2  
    14   12   13 2  
    15   12   16 1  
    16   13   14 1  
    17   14   15 2  
    18   14   20 1  
    19   15   16 1  
    20   16   17 1  
    21   17   18 2  
    22   18   19 1  
    23   20   21 1  
    24   21   22 ar 
    25   21   26 ar 
    26   22   23 ar 
    27   23   24 ar 
    28   24   25 ar 
    29   24   27 1  
    30   25   26 ar 
    31   27   28 1  
    32   27   32 1  
    33   28   29 1  
    34   29   30 1  
    35   30   31 1  
    36   31   32 1  
    37    4   33 1  
    38    4   34 1  
    39    4   35 1  
    40    6   36 1  
    41    7   37 1  
    42    8   38 1  
    43    9   39 1  
    44   17   40 1  
    45   18   41 1  
    46   19   42 1  
    47   20   43 1  
    48   22   44 1  
    49   23   45 1  
    50   25   46 1  
    51   26   47 1  
    52   28   48 1  
    53   28   49 1  
    54   29   50 1  
    55   29   51 1  
    56   31   52 1  
    57   31   53 1  
    58   32   54 1  
    59   32   55 1  
@<TRIPOS>SUBSTRUCTURE
     1 88A         1

