### 
### Created by X-TOOL on Mon Sep 10 21:13:08 2018
### 

@<TRIPOS>MOLECULE
4aqh_ligand
   43    45     1     0     0
SMALL
GAST_HUCK


@<TRIPOS>ATOM
      1 C1        -22.2440    3.8840   -0.6640 C.3       1 TB7        -0.0320
      2 C2        -23.2800    4.6880    0.0890 C.3       1 TB7         0.0905
      3 C3        -23.2910    6.0440   -0.5640 C.3       1 TB7        -0.0320
      4 C4        -22.9250    4.8290    1.5800 C.3       1 TB7        -0.0320
      5 O5        -24.6270    4.2200   -0.1180 O.3       1 TB7        -0.2580
      6 C6        -24.8710    2.8680   -0.0510 C.2       1 TB7         0.3227
      7 O7        -24.0780    2.0570    0.3970 O.2       1 TB7        -0.3774
      8 N8        -26.1380    2.5400   -0.5080 N.am      1 TB7        -0.2439
      9 C9        -26.9650    1.4830    0.1120 C.3       1 TB7         0.0619
     10 C10       -28.2020    2.2660   -0.3410 C.3       1 TB7         0.0778
     11 C11       -27.2950    3.4680   -0.6070 C.3       1 TB7         0.0619
     12 N12       -29.1470    2.5150    0.6910 N.pl3     1 TB7        -0.3095
     13 C13       -30.2460    1.6760    0.7910 C.cat     1 TB7         0.2157
     14 N14       -31.0860    2.0530    1.8020 N.am      1 TB7        -0.2425
     15 C15       -32.2570    1.4190    2.1630 C.2       1 TB7         0.2656
     16 O16       -32.9960    1.7630    3.0890 O.2       1 TB7        -0.3465
     17 C17       -32.5650    0.2460    1.3290 C.ar      1 TB7         0.1997
     18 C18       -33.7030   -0.4920    1.5670 C.ar      1 TB7         0.0508
     19 C19       -33.9590   -1.5860    0.7540 C.ar      1 TB7         0.0428
     20 C20       -33.0480   -1.8640   -0.2510 C.ar      1 TB7         0.0907
     21 N21       -31.9310   -1.1450   -0.4890 N.ar      1 TB7        -0.1704
     22 C22       -31.7050   -0.0950    0.3120 C.ar      1 TB7         0.2700
     23 N23       -30.5350    0.6490    0.0500 N.pl3     1 TB7        -0.2023
     24 H1        -21.2435    4.2939   -0.4614 H         1 TB7         0.0260
     25 H2        -22.4509    3.9383   -1.7430 H         1 TB7         0.0260
     26 H3        -22.2839    2.8350   -0.3353 H         1 TB7         0.0260
     27 H4        -24.0291    6.6868   -0.0619 H         1 TB7         0.0260
     28 H5        -23.5593    5.9377   -1.6255 H         1 TB7         0.0260
     29 H6        -22.2927    6.4987   -0.4819 H         1 TB7         0.0260
     30 H7        -22.9187    3.8349    2.0510 H         1 TB7         0.0260
     31 H8        -23.6726    5.4651    2.0764 H         1 TB7         0.0260
     32 H9        -21.9300    5.2876    1.6783 H         1 TB7         0.0260
     33 H10       -26.8532    1.3955    1.2028 H         1 TB7         0.0547
     34 H11       -26.8584    0.4897   -0.3484 H         1 TB7         0.0547
     35 H12       -28.7077    1.8559   -1.2276 H         1 TB7         0.0614
     36 H13       -27.4271    3.9316   -1.5957 H         1 TB7         0.0547
     37 H14       -27.3260    4.2461    0.1699 H         1 TB7         0.0547
     38 H15       -29.0186    3.2983    1.3474 H         1 TB7         0.1838
     39 H16       -30.8277    2.8631    2.3283 H         1 TB7         0.1839
     40 H17       -34.3813   -0.2247    2.3692 H         1 TB7         0.0969
     41 H18       -34.8398   -2.2008    0.8999 H         1 TB7         0.1292
     42 H19       -33.2454   -2.7171   -0.8900 H         1 TB7         0.1263
     43 H20       -29.9130    0.3790   -0.7253 H         1 TB7         0.2616
@<TRIPOS>BOND
     1    1    2 1  
     2    2    3 1  
     3    2    4 1  
     4    2    5 1  
     5    5    6 1  
     6    6    7 2  
     7    6    8 am 
     8    8    9 1  
     9    8   11 1  
    10    9   10 1  
    11   10   11 1  
    12   10   12 1  
    13   12   13 ar 
    14   13   14 ar 
    15   13   23 ar 
    16   14   15 am 
    17   15   16 2  
    18   15   17 1  
    19   17   18 ar 
    20   17   22 ar 
    21   18   19 ar 
    22   19   20 ar 
    23   20   21 ar 
    24   21   22 ar 
    25   22   23 1  
    26    1   24 1  
    27    1   25 1  
    28    1   26 1  
    29    3   27 1  
    30    3   28 1  
    31    3   29 1  
    32    4   30 1  
    33    4   31 1  
    34    4   32 1  
    35    9   33 1  
    36    9   34 1  
    37   10   35 1  
    38   11   36 1  
    39   11   37 1  
    40   12   38 1  
    41   14   39 1  
    42   18   40 1  
    43   19   41 1  
    44   20   42 1  
    45   23   43 1  
@<TRIPOS>SUBSTRUCTURE
     1 TB7         1

