### 
### Created by X-TOOL on Mon Sep 10 21:13:09 2018
### 

@<TRIPOS>MOLECULE
4ara_ligand
   52    53     1     0     0
SMALL
GAST_HUCK


@<TRIPOS>ATOM
      1 O16        29.8760   21.6360   10.1220 O.2       1 C56        -0.3048
      2 C15        30.6870   22.5270   10.3670 C.2       1 C56         0.3244
      3 C2         31.9140   22.6630    9.4820 C.ar      1 C56         0.2504
      4 C3         33.0160   23.5610    9.7150 C.ar      1 C56         0.2662
      5 O13        32.9010   24.3180   10.8320 O.3       1 C56        -0.2426
      6 C14        33.9140   25.2190   11.2320 C.3       1 C56         0.0871
      7 C4         34.1080   23.6420    8.8460 C.ar      1 C56         0.1362
      8 C5         34.2550   22.8580    7.6570 C.ar      1 C56         0.2676
      9 N10        35.4040   23.1030    6.8940 N.pl3     1 C56        -0.2089
     10 C12        36.3660   24.1690    7.2730 C.3       1 C56         0.0661
     11 C11        35.8290   22.5700    5.5750 C.3       1 C56         0.0661
     12 C6         33.1490   21.9700    7.4410 C.ar      1 C56         0.2838
     13 N7         32.9420   21.0030    6.3370 N.2       1 C56        -0.1112
     14 O9         33.8560   20.3320    5.9120 O.2       1 C56        -0.4421
     15 O8         31.7990   20.7170    6.0450 O.2       1 C56        -0.4421
     16 C1         32.0520   21.9090    8.3410 C.ar      1 C56         0.1506
     17 N17        30.4170   23.3790   11.4710 N.am      1 C56        -0.2603
     18 C18        29.1870   23.2480   12.3060 C.3       1 C56         0.0749
     19 C05        29.2510   22.1710   13.4720 C.3       1 C56        -0.0002
     20 C06        27.9610   22.2320   14.3610 C.3       1 C56        -0.0030
     21 C07        27.4530   20.8030   14.5250 C.3       1 C56        -0.0074
     22 C08        28.1630   20.0070   13.4280 C.3       1 C56        -0.0314
     23 N09        29.2830   20.8110   12.8330 N.4       1 C56         0.2386
     24 C10        30.5340   19.9950   12.8690 C.3       1 C56        -0.0345
     25 C13        30.6140   18.8700   11.8460 C.3       1 C56        -0.0245
     26 H1         33.6098   25.7238   12.1608 H         1 C56         0.0640
     27 H2         34.0712   25.9682   10.4421 H         1 C56         0.0640
     28 H3         34.8492   24.6662   11.4045 H         1 C56         0.0640
     29 H4         34.8963   24.3455    9.0886 H         1 C56         0.0810
     30 H5         37.1912   24.1936    6.5460 H         1 C56         0.0637
     31 H6         36.7671   23.9613    8.2760 H         1 C56         0.0637
     32 H7         35.8524   25.1417    7.2776 H         1 C56         0.0637
     33 H8         35.1369   21.7749    5.2606 H         1 C56         0.0637
     34 H9         36.8464   22.1597    5.6558 H         1 C56         0.0637
     35 H10        35.8185   23.3804    4.8313 H         1 C56         0.0637
     36 H11        31.2572   21.2094    8.1087 H         1 C56         0.1161
     37 H12        31.0773   24.0950   11.6977 H         1 C56         0.1863
     38 H13        28.3552   22.9746   11.6401 H         1 C56         0.0575
     39 H14        28.9841   24.2277   12.7631 H         1 C56         0.0575
     40 H15        30.1463   22.3351   14.0897 H         1 C56         0.0871
     41 H16        27.1946   22.8495   13.8699 H         1 C56         0.0322
     42 H17        28.2022   22.6606   15.3449 H         1 C56         0.0322
     43 H18        26.3622   20.7616   14.3893 H         1 C56         0.0319
     44 H19        27.7141   20.4107   15.5189 H         1 C56         0.0319
     45 H20        27.4398   19.7549   12.6385 H         1 C56         0.0814
     46 H21        28.5719   19.0816   13.8598 H         1 C56         0.0814
     47 H22        29.0815   20.9587   11.8565 H         1 C56         0.2037
     48 H23        30.6183   19.5484   13.8707 H         1 C56         0.0812
     49 H24        31.3844   20.6710   12.6961 H         1 C56         0.0812
     50 H25        31.5697   18.3376   11.9605 H         1 C56         0.0281
     51 H26        30.5481   19.2911   10.8319 H         1 C56         0.0281
     52 H27        29.7821   18.1685   12.0066 H         1 C56         0.0281
@<TRIPOS>BOND
     1    1    2 2  
     2    2    3 1  
     3    2   17 am 
     4    3    4 ar 
     5    3   16 ar 
     6    4    5 1  
     7    4    7 ar 
     8    5    6 1  
     9    7    8 ar 
    10    8    9 1  
    11    8   12 ar 
    12    9   10 1  
    13    9   11 1  
    14   12   13 1  
    15   12   16 ar 
    16   13   14 2  
    17   13   15 2  
    18   17   18 1  
    19   18   19 1  
    20   19   20 1  
    21   19   23 1  
    22   20   21 1  
    23   21   22 1  
    24   22   23 1  
    25   23   24 1  
    26   24   25 1  
    27    6   26 1  
    28    6   27 1  
    29    6   28 1  
    30    7   29 1  
    31   10   30 1  
    32   10   31 1  
    33   10   32 1  
    34   11   33 1  
    35   11   34 1  
    36   11   35 1  
    37   16   36 1  
    38   17   37 1  
    39   18   38 1  
    40   18   39 1  
    41   19   40 1  
    42   20   41 1  
    43   20   42 1  
    44   21   43 1  
    45   21   44 1  
    46   22   45 1  
    47   22   46 1  
    48   23   47 1  
    49   24   48 1  
    50   24   49 1  
    51   25   50 1  
    52   25   51 1  
    53   25   52 1  
@<TRIPOS>SUBSTRUCTURE
     1 C56         1

