### 
### Created by X-TOOL on Mon Sep 10 21:13:13 2018
### 

@<TRIPOS>MOLECULE
4ark_ligand
   43    44     1     0     0
SMALL
GAST_HUCK


@<TRIPOS>ATOM
      1 C01        34.2470   27.2390   42.4370 C.ar      1 M3K         0.0965
      2 C02        35.2130   26.4380   41.8890 C.ar      1 M3K        -0.0379
      3 C03        36.5180   26.5040   42.3200 C.ar      1 M3K        -0.0652
      4 C04        36.9050   27.3750   43.3090 C.ar      1 M3K        -0.0048
      5 C05        35.9320   28.1770   43.8510 C.ar      1 M3K        -0.0273
      6 C06        34.6270   28.1040   43.4200 C.ar      1 M3K         0.1562
      7 N07        32.8850   27.2240   42.0410 N.pl3     1 M3K        -0.2722
      8 C08        32.2050   26.4880   41.0410 C.ar      1 M3K         0.0687
      9 C09        31.2730   27.1030   40.2430 C.ar      1 M3K         0.0947
     10 C10        30.6100   26.4140   39.2760 C.ar      1 M3K         0.1013
     11 C11        30.8500   25.0860   39.0840 C.ar      1 M3K        -0.0058
     12 C12        31.7640   24.4570   39.8710 C.ar      1 M3K         0.1194
     13 C13        32.4350   25.1510   40.8420 C.ar      1 M3K        -0.0116
     14 C14        30.9430   28.5120   40.3680 C.2       1 M3K         0.1866
     15 N15        30.2560   29.1460   39.3820 N.am      1 M3K        -0.3046
     16 O16        31.2810   29.1190   41.3220 O.2       1 M3K        -0.3998
     17 C18        28.3960   27.5670   36.5940 C.3       1 M3K         0.0035
     18 C19        29.3830   28.1670   35.6070 C.3       1 M3K         0.0807
     19 C20        28.6780   29.1740   34.7170 C.3       1 M3K         0.0702
     20 O21        29.9010   27.1470   34.7840 O.3       1 M3K        -0.3894
     21 O22        28.0870   30.1510   35.5470 O.3       1 M3K        -0.3925
     22 I23        38.8510   27.4480   43.9280 I         1 M3K        -0.0607
     23 C15        29.1050   26.4970   37.4050 C.3       1 M3K         0.0742
     24 F24        33.7260   28.8830   43.9510 F         1 M3K        -0.1905
     25 F26        32.0010   23.1840   39.6830 F         1 M3K        -0.1855
     26 O1         29.7130   27.0790   38.5310 O.3       1 M3K        -0.3164
     27 H1         34.9454   25.7409   41.1032 H         1 M3K         0.0525
     28 H2         37.2581   25.8533   41.8684 H         1 M3K         0.0580
     29 H3         36.1961   28.8804   44.6324 H         1 M3K         0.0598
     30 H4         32.2822   27.8639   42.5777 H         1 M3K         0.2100
     31 H5         30.3192   24.5381   38.3139 H         1 M3K         0.0441
     32 H6         33.1590   24.6357   41.4628 H         1 M3K         0.0437
     33 H7         30.0315   30.1162   39.4733 H         1 M3K         0.1798
     34 H8         29.9749   28.6424   38.5650 H         1 M3K         0.1798
     35 H9         27.5529   27.1190   36.0478 H         1 M3K         0.0317
     36 H10        28.0213   28.3529   37.2663 H         1 M3K         0.0317
     37 H11        30.1999   28.6593   36.1550 H         1 M3K         0.0617
     38 H12        27.9015   28.6688   34.1239 H         1 M3K         0.0583
     39 H13        29.4049   29.6484   34.0413 H         1 M3K         0.0583
     40 H14        30.3478   26.5039   35.3219 H         1 M3K         0.2099
     41 H15        27.6391   30.7931   35.0089 H         1 M3K         0.2095
     42 H16        29.8738   26.0160   36.7824 H         1 M3K         0.0618
     43 H17        28.3743   25.7431   37.7331 H         1 M3K         0.0618
@<TRIPOS>BOND
     1    1    2 ar 
     2    1    6 ar 
     3    7    1 1  
     4    2    3 ar 
     5    3    4 ar 
     6    5    4 ar 
     7    4   22 1  
     8    6    5 ar 
     9    6   24 1  
    10    8    7 1  
    11    9    8 ar 
    12    8   13 ar 
    13   10    9 ar 
    14    9   14 1  
    15   10   11 ar 
    16   26   10 1  
    17   11   12 ar 
    18   12   13 ar 
    19   12   25 1  
    20   14   15 am 
    21   14   16 2  
    22   17   18 1  
    23   23   17 1  
    24   18   19 1  
    25   18   20 1  
    26   19   21 1  
    27   23   26 1  
    28    2   27 1  
    29    3   28 1  
    30    5   29 1  
    31    7   30 1  
    32   11   31 1  
    33   13   32 1  
    34   15   33 1  
    35   15   34 1  
    36   17   35 1  
    37   17   36 1  
    38   18   37 1  
    39   19   38 1  
    40   19   39 1  
    41   20   40 1  
    42   21   41 1  
    43   23   42 1  
    44   23   43 1  
@<TRIPOS>SUBSTRUCTURE
     1 M3K         1

