### 
### Created by X-TOOL on Mon Sep 10 21:13:12 2018
### 

@<TRIPOS>MOLECULE
4aro_ligand
   42    42     1     0     0
SMALL
GAST_HUCK


@<TRIPOS>ATOM
      1 C1        -18.3890    2.8910   -5.8810 C.3       1 IHS         0.1461
      2 O1        -18.4960    4.1440   -5.2040 O.3       1 IHS        -0.2569
      3 S1        -19.0550    4.1830   -3.7340 S.o2      1 IHS        -0.0733
      4 C2        -16.9440    2.4080   -5.7860 C.3       1 IHS         0.1461
      5 O2        -20.4390    3.8090   -3.7690 O.co2     1 IHS        -0.4611
      6 S2        -14.9260    4.0640   -5.6670 S.o2      1 IHS        -0.0733
      7 C3        -16.7520    1.0770   -6.4870 C.3       1 IHS         0.1461
      8 O3        -18.1730    3.0910   -2.9700 O.co2     1 IHS        -0.4611
      9 S3        -15.0440   -0.4080   -5.3250 S.o2      1 IHS        -0.0733
     10 C4        -17.2510    1.1520   -7.9500 C.3       1 IHS         0.1461
     11 O4        -18.8360    5.5430   -3.2740 O.co2     1 IHS        -0.4611
     12 S4        -16.1540   -0.5280   -9.6750 S.o2      1 IHS        -0.0733
     13 C5        -18.6890    1.6990   -8.0400 C.3       1 IHS         0.1461
     14 S5        -20.1100    0.9290  -10.1360 S.o2      1 IHS        -0.0733
     15 C6        -18.8940    3.0130   -7.3440 C.3       1 IHS         0.1461
     16 S6        -20.8120    4.8120   -8.0130 S.o2      1 IHS        -0.0733
     17 O12       -16.1500    3.3790   -6.4330 O.3       1 IHS        -0.2569
     18 O13       -15.3750    0.6850   -6.4450 O.3       1 IHS        -0.2569
     19 O14       -17.2660   -0.1520   -8.5650 O.3       1 IHS        -0.2569
     20 O15       -19.0990    1.8710   -9.3790 O.3       1 IHS        -0.2569
     21 O16       -20.3290    3.4520   -7.3620 O.3       1 IHS        -0.2569
     22 O22       -14.8880    5.4690   -6.0480 O.co2     1 IHS        -0.4611
     23 O23       -13.4680   -0.5980   -5.6500 O.co2     1 IHS        -0.4611
     24 O24       -14.9130   -0.9210   -8.7800 O.co2     1 IHS        -0.4611
     25 O25       -21.1850    1.7800  -10.7490 O.co2     1 IHS        -0.4611
     26 O26       -20.1510    5.8780   -7.2790 O.co2     1 IHS        -0.4611
     27 O32       -15.1080    3.8980   -4.2380 O.co2     1 IHS        -0.4611
     28 O33       -15.9260   -1.5060   -5.5350 O.co2     1 IHS        -0.4611
     29 O34       -15.9430    0.6190  -10.5160 O.co2     1 IHS        -0.4611
     30 O35       -19.2610    0.2520  -11.2520 O.co2     1 IHS        -0.4611
     31 O36       -22.2010    4.9210   -7.8560 O.co2     1 IHS        -0.4611
     32 O42       -13.6800    3.2440   -6.2200 O.co2     1 IHS        -0.4611
     33 O43       -15.2840    0.2620   -4.0690 O.co2     1 IHS        -0.4611
     34 O44       -16.8480   -1.6530  -10.2540 O.co2     1 IHS        -0.4611
     35 O45       -20.4970   -0.0860   -9.2100 O.co2     1 IHS        -0.4611
     36 O46       -20.3260    4.7650   -9.4880 O.co2     1 IHS        -0.4611
     37 H1        -19.0287    2.1589   -5.3665 H         1 IHS         0.0675
     38 H2        -16.6503    2.3121   -4.7303 H         1 IHS         0.0675
     39 H3        -17.3456    0.3173   -5.9573 H         1 IHS         0.0675
     40 H4        -16.5756    1.8132   -8.5127 H         1 IHS         0.0675
     41 H5        -19.3477    0.9567   -7.5656 H         1 IHS         0.0675
     42 H6        -18.2964    3.7769   -7.8629 H         1 IHS         0.0675
@<TRIPOS>BOND
     1    1    2 1  
     2    1    4 1  
     3    1   15 1  
     4    2    3 1  
     5    3    5 ar 
     6    3    8 ar 
     7    3   11 ar 
     8    4    7 1  
     9    4   17 1  
    10   17    6 1  
    11    6   22 ar 
    12    6   27 ar 
    13    6   32 ar 
    14    7   10 1  
    15    7   18 1  
    16   18    9 1  
    17    9   23 ar 
    18    9   28 ar 
    19    9   33 ar 
    20   10   13 1  
    21   10   19 1  
    22   19   12 1  
    23   12   24 ar 
    24   12   29 ar 
    25   12   34 ar 
    26   13   15 1  
    27   13   20 1  
    28   20   14 1  
    29   14   25 ar 
    30   14   30 ar 
    31   14   35 ar 
    32   15   21 1  
    33   21   16 1  
    34   16   26 ar 
    35   16   31 ar 
    36   16   36 ar 
    37    1   37 1  
    38    4   38 1  
    39    7   39 1  
    40   10   40 1  
    41   13   41 1  
    42   15   42 1  
@<TRIPOS>SUBSTRUCTURE
     1 IHS         1

