### 
### Created by X-TOOL on Mon Sep 10 21:13:13 2018
### 

@<TRIPOS>MOLECULE
4as9_ligand
   83    84     1     0     0
SMALL
GAST_HUCK


@<TRIPOS>ATOM
      1 CAB       -18.7540   34.1500   -1.6530 C.3       1 4QS         0.0395
      2 OAW       -19.8890   34.7320   -2.3450 O.3       1 4QS        -0.3652
      3 CBL       -20.7300   33.8530   -3.1350 C.3       1 4QS         0.1187
      4 CAQ       -21.9580   34.5110   -3.1650 C.2       1 4QS        -0.0622
      5 CAO       -22.6140   34.8910   -2.0050 C.2       1 4QS        -0.0839
      6 CAP       -23.9290   35.3310   -2.1110 C.3       1 4QS         0.0059
      7 CBA       -24.9710   34.8140   -1.3430 C.2       1 4QS         0.0381
      8 CAD       -25.4450   35.5630   -0.2750 C.2       1 4QS        -0.0875
      9 CBC       -25.3680   33.4840   -1.4590 C.2       1 4QS         0.2379
     10 OAK       -25.6000   32.8360   -0.4370 O.2       1 4QS        -0.3695
     11 NAU       -26.1630   33.0910   -2.5160 N.am      1 4QS        -0.2252
     12 CBF       -25.9540   33.2960   -3.8760 C.2       1 4QS         0.1305
     13 CBI       -26.3030   34.5590   -4.3810 C.2       1 4QS         0.1766
     14 OAM       -26.7260   35.4240   -3.6030 O.2       1 4QS        -0.3675
     15 CBD       -25.4680   32.2710   -4.7220 C.2       1 4QS         0.0274
     16 CAF       -25.1190   31.0050   -4.2450 C.3       1 4QS        -0.0385
     17 CBH       -25.3170   32.5450   -6.0890 C.2       1 4QS         0.1662
     18 OAL       -24.8860   31.6850   -6.8550 O.2       1 4QS        -0.3791
     19 CBG       -25.6540   33.8110   -6.5820 C.2       1 4QS         0.1505
     20 OAV       -25.4940   34.0370   -7.9180 O.3       1 4QS        -0.3152
     21 CAA       -26.7180   33.7820   -8.6270 C.3       1 4QS         0.0601
     22 CBE       -26.1330   34.8400   -5.7550 C.2       1 4QS         0.0458
     23 CAS       -26.4340   36.1230   -6.2660 C.3       1 4QS        -0.0167
     24 CBJ       -25.1690   37.0800   -6.2400 C.3       1 4QS        -0.0344
     25 CAG       -24.6360   37.2800   -4.8160 C.3       1 4QS        -0.0609
     26 CAT       -24.0500   36.5870   -7.2180 C.3       1 4QS        -0.0201
     27 CBM       -22.6490   37.2540   -7.0610 C.3       1 4QS         0.0849
     28 OAX       -22.7280   38.6990   -7.2570 O.3       1 4QS        -0.3772
     29 CAC       -21.4650   39.4310   -7.2750 C.3       1 4QS         0.0369
     30 CBN       -21.6300   36.7100   -8.0770 C.3       1 4QS         0.0860
     31 OAN       -22.2910   36.4380   -9.3830 O.3       1 4QS        -0.3888
     32 CBK       -20.6720   35.5520   -7.5460 C.3       1 4QS        -0.0035
     33 CAH       -21.5300   32.6630   -6.3100 C.2       1 4QS        -0.1260
     34 CAR       -20.9620   35.0180   -6.2460 C.3       1 4QS        -0.0101
     35 CBB       -20.8500   33.7120   -5.7150 C.2       1 4QS        -0.0359
     36 CAE       -20.5350   34.4740   -8.6230 C.3       1 4QS        -0.0578
     37 CBO       -20.1260   33.3880   -4.5510 C.3       1 4QS         0.1556
     38 OAY       -18.7770   33.8110   -4.7640 O.3       1 4QS        -0.2401
     39 CAZ       -17.7350   32.9170   -4.8730 C.2       1 4QS         0.3199
     40 OAJ       -16.7810   33.2140   -5.6040 O.2       1 4QS        -0.3775
     41 NAI       -17.7050   31.7740   -4.1770 N.am      1 4QS        -0.2762
     42 H1        -18.2181   34.9366   -1.1016 H         1 4QS         0.0526
     43 H2        -18.0754   33.6883   -2.3853 H         1 4QS         0.0526
     44 H3        -19.1081   33.3840   -0.9474 H         1 4QS         0.0526
     45 H4        -20.8683   32.9234   -2.5634 H         1 4QS         0.0782
     46 H5        -22.4154   34.7330   -4.1280 H         1 4QS         0.0492
     47 H6        -22.1143   34.8464   -1.0384 H         1 4QS         0.0468
     48 H7        -24.2180   35.1695   -3.1600 H         1 4QS         0.0557
     49 H8        -23.9045   36.4102   -1.8994 H         1 4QS         0.0557
     50 H9        -26.2584   35.1805    0.3399 H         1 4QS         0.0456
     51 H10       -25.0036   36.5332   -0.0519 H         1 4QS         0.0456
     52 H11       -26.9967   32.5950   -2.2732 H         1 4QS         0.2313
     53 H12       -25.2978   30.9597   -3.1606 H         1 4QS         0.0328
     54 H13       -24.0547   30.8168   -4.4492 H         1 4QS         0.0328
     55 H14       -25.7298   30.2418   -4.7495 H         1 4QS         0.0328
     56 H15       -26.5662   33.9702   -9.7001 H         1 4QS         0.0581
     57 H16       -27.5076   34.4466   -8.2463 H         1 4QS         0.0581
     58 H17       -27.0170   32.7341   -8.4773 H         1 4QS         0.0581
     59 H18       -27.2318   36.5711   -5.6555 H         1 4QS         0.0392
     60 H19       -26.7810   36.0200   -7.3047 H         1 4QS         0.0392
     61 H20       -25.5016   38.0645   -6.6007 H         1 4QS         0.0317
     62 H21       -23.7621   37.9475   -4.8420 H         1 4QS         0.0234
     63 H22       -24.3421   36.3074   -4.3945 H         1 4QS         0.0234
     64 H23       -25.4215   37.7286   -4.1901 H         1 4QS         0.0234
     65 H24       -24.3967   36.7743   -8.2450 H         1 4QS         0.0295
     66 H25       -23.9246   35.5050   -7.0650 H         1 4QS         0.0295
     67 H26       -22.2834   37.0479   -6.0442 H         1 4QS         0.0622
     68 H27       -21.6640   40.5018   -7.4290 H         1 4QS         0.0524
     69 H28       -20.8342   39.0539   -8.0935 H         1 4QS         0.0524
     70 H29       -20.9451   39.2889   -6.3161 H         1 4QS         0.0524
     71 H30       -20.9482   37.5508   -8.2721 H         1 4QS         0.0624
     72 H31       -21.6489   36.1032   -9.9980 H         1 4QS         0.2099
     73 H32       -19.6790   36.0142   -7.4449 H         1 4QS         0.0350
     74 H33       -22.1126   32.8347   -7.2139 H         1 4QS         0.0076
     75 H34       -21.4823   31.6662   -5.8741 H         1 4QS         0.0076
     76 H35       -22.0220   35.2694   -6.0934 H         1 4QS         0.0464
     77 H36       -20.3403   35.6256   -5.5720 H         1 4QS         0.0464
     78 H37       -20.3139   34.9484   -9.5905 H         1 4QS         0.0235
     79 H38       -21.4758   33.9091   -8.6981 H         1 4QS         0.0235
     80 H39       -19.7167   33.7896   -8.3548 H         1 4QS         0.0235
     81 H40       -20.1107   32.2893   -4.5009 H         1 4QS         0.0895
     82 H41       -16.9332   31.1464   -4.2793 H         1 4QS         0.1831
     83 H42       -18.4544   31.5477   -3.5547 H         1 4QS         0.1831
@<TRIPOS>BOND
     1    2    1 1  
     2    3    2 1  
     3    4    3 1  
     4    3   37 1  
     5    5    4 2  
     6    6    5 1  
     7    7    6 1  
     8    7    8 2  
     9    9    7 1  
    10    9   10 2  
    11   11    9 am 
    12   12   11 1  
    13   13   12 1  
    14   12   15 2  
    15   13   14 2  
    16   22   13 1  
    17   15   16 1  
    18   17   15 1  
    19   17   18 2  
    20   19   17 1  
    21   19   20 1  
    22   22   19 2  
    23   20   21 1  
    24   23   22 1  
    25   24   23 1  
    26   24   25 1  
    27   26   24 1  
    28   27   26 1  
    29   27   28 1  
    30   30   27 1  
    31   28   29 1  
    32   30   31 1  
    33   32   30 1  
    34   34   32 1  
    35   32   36 1  
    36   35   33 2  
    37   34   35 1  
    38   35   37 1  
    39   37   38 1  
    40   38   39 1  
    41   39   40 2  
    42   39   41 am 
    43    1   42 1  
    44    1   43 1  
    45    1   44 1  
    46    3   45 1  
    47    4   46 1  
    48    5   47 1  
    49    6   48 1  
    50    6   49 1  
    51    8   50 1  
    52    8   51 1  
    53   11   52 1  
    54   16   53 1  
    55   16   54 1  
    56   16   55 1  
    57   21   56 1  
    58   21   57 1  
    59   21   58 1  
    60   23   59 1  
    61   23   60 1  
    62   24   61 1  
    63   25   62 1  
    64   25   63 1  
    65   25   64 1  
    66   26   65 1  
    67   26   66 1  
    68   27   67 1  
    69   29   68 1  
    70   29   69 1  
    71   29   70 1  
    72   30   71 1  
    73   31   72 1  
    74   32   73 1  
    75   33   74 1  
    76   33   75 1  
    77   34   76 1  
    78   34   77 1  
    79   36   78 1  
    80   36   79 1  
    81   36   80 1  
    82   37   81 1  
    83   41   82 1  
    84   41   83 1  
@<TRIPOS>SUBSTRUCTURE
     1 4QS         1

