### 
### Created by X-TOOL on Mon Sep 10 21:13:09 2018
### 

@<TRIPOS>MOLECULE
4asd_ligand
   48    50     1     0     0
SMALL
GAST_HUCK


@<TRIPOS>ATOM
      1 C1        -28.0550   -1.7890   -7.5940 C.ar      1 BAX        -0.0127
      2 C2        -28.2850   -2.8510   -8.4880 C.ar      1 BAX         0.0959
      3 C3        -28.9910   -3.9770   -8.0560 C.ar      1 BAX        -0.0108
      4 C4        -29.4670   -4.0490   -6.7420 C.ar      1 BAX        -0.0291
      5 C13       -26.7470   -2.0750  -10.2510 C.2       1 BAX         0.3148
      6 C16       -25.3410   -1.7590  -12.2560 C.ar      1 BAX         0.0577
      7 C17       -25.4650   -1.3400  -13.5760 C.ar      1 BAX        -0.0478
      8 C18       -24.3430   -0.8720  -14.2610 C.ar      1 BAX        -0.0404
      9 C19       -23.1120   -0.8220  -13.6040 C.ar      1 BAX         0.1047
     10 C20       -22.9590   -1.2340  -12.2870 C.ar      1 BAX        -0.0404
     11 C21       -24.0840   -1.7010  -11.6170 C.ar      1 BAX        -0.0478
     12 O22       -22.0130   -0.3720  -14.2990 O.3       1 BAX        -0.2564
     13 C24       -22.5430    2.0480  -13.9900 C.ar      1 BAX         0.0024
     14 C25       -21.9920    3.3280  -14.1160 C.ar      1 BAX         0.0057
     15 C27       -19.9370    2.4950  -14.8610 C.ar      1 BAX         0.1117
     16 C28       -20.3980    1.1840  -14.7780 C.ar      1 BAX         0.0183
     17 N30       -18.0330    3.9880  -15.4040 N.am      1 BAX        -0.2874
     18 C31       -16.6770    4.2420  -15.8730 C.3       1 BAX         0.0193
     19 C5        -29.2370   -2.9750   -5.8670 C.ar      1 BAX         0.0592
     20 C6        -28.5180   -1.8380   -6.2740 C.ar      1 BAX         0.0462
     21 C7        -28.2400   -0.6760   -5.3510 C.3       1 BAX         0.3715
     22 F8        -27.4630   -1.0490   -4.3100 F         1 BAX        -0.2224
     23 F9        -29.3580   -0.1020   -4.8300 F         1 BAX        -0.2224
     24 F10       -27.5590    0.3410   -5.9330 F         1 BAX        -0.2224
     25 CL11      -29.8410   -3.1030   -4.2550 Cl        1 BAX        -0.0539
     26 N12       -27.8280   -2.8300   -9.8150 N.am      1 BAX        -0.2087
     27 N14       -26.5060   -2.2230  -11.6110 N.am      1 BAX        -0.2199
     28 O15       -26.0690   -1.3750   -9.5210 O.2       1 BAX        -0.3813
     29 C23       -21.7060    0.9720  -14.3350 C.ar      1 BAX         0.1379
     30 N26       -20.7260    3.5610  -14.5500 N.ar      1 BAX        -0.2925
     31 C29       -18.5340    2.7020  -15.3410 C.2       1 BAX         0.2205
     32 O32       -17.8770    1.7200  -15.6900 O.2       1 BAX        -0.3791
     33 H1        -27.5089   -0.9165   -7.9340 H         1 BAX         0.0706
     34 H2        -29.1706   -4.7976   -8.7412 H         1 BAX         0.0758
     35 H3        -30.0079   -4.9251   -6.4030 H         1 BAX         0.0670
     36 H4        -26.4289   -1.3767  -14.0707 H         1 BAX         0.0480
     37 H5        -24.4263   -0.5505  -15.2929 H         1 BAX         0.0520
     38 H6        -21.9931   -1.1928  -11.7968 H         1 BAX         0.0520
     39 H7        -23.9942   -2.0260  -10.5868 H         1 BAX         0.0480
     40 H8        -23.5592    1.8943  -13.6454 H         1 BAX         0.0673
     41 H9        -22.6087    4.1798  -13.8531 H         1 BAX         0.0803
     42 H10       -19.7599    0.3509  -15.0495 H         1 BAX         0.0696
     43 H11       -18.6093    4.7556  -15.1237 H         1 BAX         0.1844
     44 H12       -16.4762    5.3232  -15.8459 H         1 BAX         0.0484
     45 H13       -16.5710    3.8751  -16.9046 H         1 BAX         0.0484
     46 H14       -15.9601    3.7195  -15.2225 H         1 BAX         0.0484
     47 H15       -28.3098   -3.3925  -10.4869 H         1 BAX         0.2266
     48 H16       -27.1987   -2.6853  -12.1646 H         1 BAX         0.2230
@<TRIPOS>BOND
     1    2    1 ar 
     2    1   20 ar 
     3    2    3 ar 
     4   26    2 1  
     5    3    4 ar 
     6    4   19 ar 
     7    5   26 am 
     8   27    5 am 
     9    5   28 2  
    10    7    6 ar 
    11   11    6 ar 
    12    6   27 1  
    13    8    7 ar 
    14    9    8 ar 
    15    9   10 ar 
    16   12    9 1  
    17   10   11 ar 
    18   29   12 1  
    19   14   13 ar 
    20   29   13 ar 
    21   30   14 ar 
    22   15   16 ar 
    23   15   30 ar 
    24   31   15 1  
    25   16   29 ar 
    26   17   18 1  
    27   17   31 am 
    28   19   20 ar 
    29   19   25 1  
    30   20   21 1  
    31   21   22 1  
    32   21   23 1  
    33   21   24 1  
    34   31   32 2  
    35    1   33 1  
    36    3   34 1  
    37    4   35 1  
    38    7   36 1  
    39    8   37 1  
    40   10   38 1  
    41   11   39 1  
    42   13   40 1  
    43   14   41 1  
    44   16   42 1  
    45   17   43 1  
    46   18   44 1  
    47   18   45 1  
    48   18   46 1  
    49   26   47 1  
    50   27   48 1  
@<TRIPOS>SUBSTRUCTURE
     1 BAX         1

