### 
### Created by X-TOOL on Mon Sep 10 21:13:10 2018
### 

@<TRIPOS>MOLECULE
4ase_ligand
   51    54     1     0     0
SMALL
GAST_HUCK


@<TRIPOS>ATOM
      1 C1        -17.6300    2.7790  -15.3340 C.ar      1 AV9         0.1284
      2 C2        -18.7140    3.6850  -15.0630 C.ar      1 AV9        -0.0216
      3 C3        -19.9790    3.2350  -14.6380 C.ar      1 AV9         0.0169
      4 C4        -20.1900    1.8090  -14.4750 C.ar      1 AV9         0.0269
      5 C5        -19.1140    0.9040  -14.7440 C.ar      1 AV9        -0.0224
      6 C6        -17.8320    1.3680  -15.1690 C.ar      1 AV9         0.1283
      7 N7        -20.9640    4.1450  -14.3900 N.ar      1 AV9        -0.3288
      8 C8        -22.1890    3.7070  -13.9770 C.ar      1 AV9        -0.0140
      9 C9        -22.5090    2.3630  -13.7890 C.ar      1 AV9        -0.0095
     10 C10       -21.4930    1.3840  -14.0430 C.ar      1 AV9         0.1348
     11 O11       -21.6430   -0.0170  -13.9100 O.3       1 AV9        -0.2543
     12 C12       -22.7290   -0.5670  -13.2810 C.ar      1 AV9         0.1077
     13 C13       -24.0170   -0.6440  -13.9300 C.ar      1 AV9        -0.0259
     14 C15       -24.9190   -1.7030  -11.8990 C.ar      1 AV9         0.0721
     15 C16       -23.6200   -1.6130  -11.2920 C.ar      1 AV9        -0.0467
     16 C17       -22.5350   -1.0490  -11.9750 C.ar      1 AV9        -0.0394
     17 O25       -29.2290   -2.9650   -6.3980 O.3       1 AV9        -0.1929
     18 C11       -25.1120   -1.2140  -13.2280 C.ar      1 AV9         0.0533
     19 N28       -26.0060   -2.2720  -11.1880 N.am      1 AV9        -0.2195
     20 O33       -16.7350    0.5530  -15.4410 O.3       1 AV9        -0.3209
     21 O34       -16.3620    3.1560  -15.7510 O.3       1 AV9        -0.3184
     22 C35       -26.2770   -1.9530   -9.8480 C.2       1 AV9         0.3108
     23 O36       -25.6070   -1.1620   -9.1850 O.2       1 AV9        -0.3829
     24 N37       -27.3930   -2.6630   -9.3840 N.am      1 AV9        -0.2161
     25 C38       -27.9190   -2.5710   -8.0880 C.2       1 AV9         0.1145
     26 C40       -28.4190   -1.5800   -4.5830 C.3       1 AV9         0.0071
     27 C30       -28.3170   -2.0510   -5.9750 C.2       1 AV9         0.1241
     28 C43       -27.4700   -1.7670   -6.9950 C.2       1 AV9        -0.0115
     29 N21       -28.9850   -3.2950   -7.7250 N.2       1 AV9        -0.1675
     30 CL4       -26.6600   -1.2990  -14.0030 Cl        1 AV9        -0.0852
     31 C49       -16.8610   -0.8680  -15.2910 C.3       1 AV9         0.0581
     32 C53       -16.0740    4.5530  -15.9390 C.3       1 AV9         0.0593
     33 H1        -18.5518    4.7492  -15.1901 H         1 AV9         0.0484
     34 H2        -19.2765   -0.1608  -14.6220 H         1 AV9         0.0520
     35 H3        -22.9575    4.4468  -13.7840 H         1 AV9         0.0770
     36 H4        -23.4984    2.0666  -13.4600 H         1 AV9         0.0545
     37 H5        -24.1462   -0.2716  -14.9398 H         1 AV9         0.0528
     38 H6        -23.4767   -1.9890  -10.2855 H         1 AV9         0.0481
     39 H7        -21.5609   -0.9852  -11.5037 H         1 AV9         0.0526
     40 H8        -26.6009   -2.9240  -11.6581 H         1 AV9         0.2235
     41 H9        -27.8477   -3.2811  -10.0252 H         1 AV9         0.2208
     42 H10       -27.6216   -0.8489   -4.3840 H         1 AV9         0.0449
     43 H11       -28.3125   -2.4342   -3.8981 H         1 AV9         0.0449
     44 H12       -29.3989   -1.1052   -4.4274 H         1 AV9         0.0449
     45 H13       -26.6289   -1.0754   -6.9838 H         1 AV9         0.0249
     46 H14       -15.9055   -1.3497  -15.5458 H         1 AV9         0.0575
     47 H15       -17.6492   -1.2392  -15.9625 H         1 AV9         0.0575
     48 H16       -17.1248   -1.1049  -14.2497 H         1 AV9         0.0575
     49 H17       -15.0311    4.6713  -16.2683 H         1 AV9         0.0578
     50 H18       -16.2217    5.0888  -14.9898 H         1 AV9         0.0578
     51 H19       -16.7488    4.9670  -16.7027 H         1 AV9         0.0578
@<TRIPOS>BOND
     1    2    1 ar 
     2    6    1 ar 
     3    1   21 1  
     4    3    2 ar 
     5    4    3 ar 
     6    3    7 ar 
     7    4    5 ar 
     8   10    4 ar 
     9    5    6 ar 
    10    6   20 1  
    11    8    7 ar 
    12    9    8 ar 
    13   10    9 ar 
    14   11   10 1  
    15   12   11 1  
    16   13   12 ar 
    17   16   12 ar 
    18   18   13 ar 
    19   14   15 ar 
    20   14   18 ar 
    21   19   14 1  
    22   15   16 ar 
    23   17   27 1  
    24   29   17 1  
    25   18   30 1  
    26   22   19 am 
    27   20   31 1  
    28   21   32 1  
    29   22   23 2  
    30   24   22 am 
    31   25   24 1  
    32   25   28 1  
    33   25   29 2  
    34   27   26 1  
    35   27   28 2  
    36    2   33 1  
    37    5   34 1  
    38    8   35 1  
    39    9   36 1  
    40   13   37 1  
    41   15   38 1  
    42   16   39 1  
    43   19   40 1  
    44   24   41 1  
    45   26   42 1  
    46   26   43 1  
    47   26   44 1  
    48   28   45 1  
    49   31   46 1  
    50   31   47 1  
    51   31   48 1  
    52   32   49 1  
    53   32   50 1  
    54   32   51 1  
@<TRIPOS>SUBSTRUCTURE
     1 AV9         1

