### 
### Created by X-TOOL on Mon Sep 10 21:13:09 2018
### 

@<TRIPOS>MOLECULE
4ask_ligand
   51    54     1     0     0
SMALL
GAST_HUCK


@<TRIPOS>ATOM
      1 O2         47.7830   19.3300  -21.8310 O.co2     1 K0I        -0.5689
      2 C1         48.9660   19.6350  -21.8470 C.2       1 K0I         0.0367
      3 O1         49.5290   20.3580  -22.8130 O.co2     1 K0I        -0.5689
      4 C2         49.9300   19.2240  -20.7590 C.3       1 K0I         0.0205
      5 C3         49.7830   17.7690  -20.3450 C.3       1 K0I         0.0399
      6 N1         50.4600   17.4790  -19.0920 N.pl3     1 K0I        -0.3032
      7 C4         50.4570   16.2390  -18.5450 C.ar      1 K0I         0.1128
      8 N3         51.2090   16.0710  -17.4480 N.ar      1 K0I        -0.2631
      9 C7         51.2000   14.8370  -16.8940 C.ar      1 K0I         0.1124
     10 C8         52.0400   14.6320  -15.6830 C.ar      1 K0I         0.0847
     11 N4         52.7060   15.7050  -15.2170 N.ar      1 K0I        -0.2829
     12 C12        53.4840   15.5340  -14.1440 C.ar      1 K0I         0.0148
     13 C11        53.6230   14.3250  -13.4760 C.ar      1 K0I        -0.0307
     14 C10        52.9260   13.2320  -13.9630 C.ar      1 K0I        -0.0380
     15 C9         52.1220   13.3710  -15.0790 C.ar      1 K0I        -0.0195
     16 N2         50.5060   13.7770  -17.3420 N.ar      1 K0I        -0.2629
     17 C6         49.7810   13.9730  -18.4460 C.ar      1 K0I         0.1155
     18 C5         49.7150   15.2090  -19.0770 C.ar      1 K0I         0.0221
     19 N5         49.0270   12.8880  -18.8750 N.pl3     1 K0I        -0.2873
     20 C22        48.1710   12.9280  -20.0620 C.3       1 K0I         0.0402
     21 C21        46.8740   13.5550  -19.5460 C.3       1 K0I        -0.0010
     22 C20        45.9530   12.5770  -18.8320 C.ar      1 K0I        -0.0390
     23 C15        46.3640   11.8330  -17.7160 C.ar      1 K0I        -0.0390
     24 C14        47.7490   11.9360  -17.1090 C.3       1 K0I        -0.0010
     25 C13        48.9310   11.6860  -18.0540 C.3       1 K0I         0.0402
     26 C19        44.6450   12.4490  -19.3190 C.ar      1 K0I        -0.0668
     27 C18        43.7460   11.5870  -18.7060 C.ar      1 K0I        -0.0755
     28 C17        44.1420   10.8450  -17.6000 C.ar      1 K0I        -0.0755
     29 C16        45.4410   10.9720  -17.1070 C.ar      1 K0I        -0.0668
     30 H1         49.7526   19.8576  -19.8775 H         1 K0I         0.0450
     31 H2         50.9559   19.3815  -21.1234 H         1 K0I         0.0450
     32 H3         50.2109   17.1323  -21.1334 H         1 K0I         0.0540
     33 H4         48.7132   17.5408  -20.2296 H         1 K0I         0.0540
     34 H5         50.9569   18.2386  -18.6052 H         1 K0I         0.1834
     35 H6         54.0386   16.3887  -13.7738 H         1 K0I         0.0839
     36 H7         54.2570   14.2393  -12.6009 H         1 K0I         0.0735
     37 H8         53.0106   12.2700  -13.4705 H         1 K0I         0.0745
     38 H9         51.5699   12.5268  -15.4759 H         1 K0I         0.0751
     39 H10        49.1005   15.3570  -19.9577 H         1 K0I         0.0560
     40 H11        47.9904   11.9150  -20.4509 H         1 K0I         0.0545
     41 H12        48.6211   13.5487  -20.8507 H         1 K0I         0.0545
     42 H13        46.3302   13.9788  -20.4031 H         1 K0I         0.0431
     43 H14        47.1350   14.3598  -18.8431 H         1 K0I         0.0431
     44 H15        47.8120   11.2006  -16.2934 H         1 K0I         0.0431
     45 H16        47.8589   12.9502  -16.6975 H         1 K0I         0.0431
     46 H17        49.8577   11.5357  -17.4807 H         1 K0I         0.0545
     47 H18        48.7417   10.8037  -18.6830 H         1 K0I         0.0545
     48 H19        44.3330   13.0276  -20.1810 H         1 K0I         0.0537
     49 H20        42.7365   11.4929  -19.0896 H         1 K0I         0.0541
     50 H21        43.4431   10.1688  -17.1211 H         1 K0I         0.0541
     51 H22        45.7411   10.3957  -16.2393 H         1 K0I         0.0537
@<TRIPOS>BOND
     1    1    2 ar 
     2    2    3 ar 
     3    2    4 1  
     4    4    5 1  
     5    5    6 1  
     6    6    7 1  
     7    7    8 ar 
     8    7   18 ar 
     9    8    9 ar 
    10    9   10 1  
    11    9   16 ar 
    12   10   11 ar 
    13   10   15 ar 
    14   11   12 ar 
    15   12   13 ar 
    16   13   14 ar 
    17   14   15 ar 
    18   16   17 ar 
    19   17   18 ar 
    20   17   19 1  
    21   19   20 1  
    22   19   25 1  
    23   20   21 1  
    24   21   22 1  
    25   22   23 ar 
    26   22   26 ar 
    27   23   24 1  
    28   23   29 ar 
    29   24   25 1  
    30   26   27 ar 
    31   27   28 ar 
    32   28   29 ar 
    33    4   30 1  
    34    4   31 1  
    35    5   32 1  
    36    5   33 1  
    37    6   34 1  
    38   12   35 1  
    39   13   36 1  
    40   14   37 1  
    41   15   38 1  
    42   18   39 1  
    43   20   40 1  
    44   20   41 1  
    45   21   42 1  
    46   21   43 1  
    47   24   44 1  
    48   24   45 1  
    49   25   46 1  
    50   25   47 1  
    51   26   48 1  
    52   27   49 1  
    53   28   50 1  
    54   29   51 1  
@<TRIPOS>SUBSTRUCTURE
     1 K0I         1

