### 
### Created by X-TOOL on Mon Sep 10 21:13:10 2018
### 

@<TRIPOS>MOLECULE
4at3_ligand
   42    44     1     0     0
SMALL
GAST_HUCK


@<TRIPOS>ATOM
      1 C22        13.3220  -25.5450  -17.7510 C.ar      1 LTI        -0.0755
      2 C21        12.0560  -24.9430  -17.8780 C.ar      1 LTI        -0.0755
      3 C23        13.4100  -26.9620  -17.7420 C.ar      1 LTI        -0.0668
      4 C20        10.8950  -25.7770  -17.9850 C.ar      1 LTI        -0.0656
      5 C5          8.2370  -27.5110  -14.1870 C.2       1 LTI         0.1068
      6 C18        12.2720  -27.7940  -17.8540 C.ar      1 LTI        -0.0398
      7 C19        10.9900  -27.1960  -17.9800 C.ar      1 LTI        -0.0253
      8 C1          8.2630  -27.6670  -15.6210 C.2       1 LTI         0.0648
      9 C4          7.3380  -26.4760  -13.8760 C.2       1 LTI         0.1804
     10 C10         8.9480  -28.2450  -13.1180 C.2       1 LTI         0.1715
     11 C7          6.1130  -25.0490  -12.2380 C.2       1 LTI         0.3062
     12 C17        12.4860  -29.2770  -17.8230 C.3       1 LTI        -0.0216
     13 C16        12.0320  -29.9220  -19.1090 C.3       1 LTI        -0.0441
     14 C15        10.5490  -30.2020  -19.0960 C.3       1 LTI        -0.0486
     15 C14         9.7540  -28.9280  -19.3110 C.3       1 LTI        -0.0295
     16 C13         9.7150  -27.9930  -18.0920 C.3       1 LTI         0.0543
     17 N2          7.4910  -26.8530  -16.3430 N.2       1 LTI        -0.3009
     18 N12         9.9860  -29.0250  -13.5250 N.am      1 LTI        -0.3087
     19 N9          6.0130  -24.8860  -10.8790 N.am      1 LTI        -0.2778
     20 N6          7.0030  -26.0360  -12.5910 N.am      1 LTI        -0.1756
     21 O11         8.6470  -28.1510  -11.9300 O.2       1 LTI        -0.4138
     22 O8          5.4600  -24.3810  -13.0240 O.2       1 LTI        -0.3819
     23 S3          6.6570  -25.8130  -15.3220 S.3       1 LTI         0.0288
     24 S24         9.2060  -28.8400  -16.5220 S.3       1 LTI        -0.0645
     25 H1         14.2149  -24.9369  -17.6616 H         1 LTI         0.0541
     26 H2         11.9603  -23.8634  -17.8947 H         1 LTI         0.0541
     27 H3         14.3861  -27.4234  -17.6457 H         1 LTI         0.0537
     28 H4          9.9188  -25.3138  -18.0720 H         1 LTI         0.0538
     29 H5         11.9141  -29.7044  -16.9862 H         1 LTI         0.0411
     30 H6         13.5570  -29.4818  -17.6778 H         1 LTI         0.0411
     31 H7         12.5732  -30.8702  -19.2435 H         1 LTI         0.0286
     32 H8         12.2606  -29.2472  -19.9471 H         1 LTI         0.0286
     33 H9         10.2737  -30.6383  -18.1245 H         1 LTI         0.0269
     34 H10        10.3103  -30.9149  -19.8990 H         1 LTI         0.0269
     35 H11         8.7204  -29.2057  -19.5652 H         1 LTI         0.0298
     36 H12        10.2035  -28.3792  -20.1517 H         1 LTI         0.0298
     37 H13         8.9205  -27.2607  -18.2980 H         1 LTI         0.0591
     38 H14        10.5106  -29.5491  -12.8541 H         1 LTI         0.1788
     39 H15        10.2242  -29.0741  -14.4950 H         1 LTI         0.1788
     40 H16         5.3952  -24.1957  -10.5023 H         1 LTI         0.1822
     41 H17         6.5579  -25.4575  -10.2654 H         1 LTI         0.1822
     42 H18         7.4686  -26.4965  -11.8352 H         1 LTI         0.2532
@<TRIPOS>BOND
     1    2    1 ar 
     2    3    1 ar 
     3    4    2 ar 
     4    6    3 ar 
     5    7    4 ar 
     6    8    5 1  
     7    5    9 2  
     8    5   10 1  
     9    7    6 ar 
    10    6   12 1  
    11   16    7 1  
    12    8   17 2  
    13   24    8 1  
    14    9   20 1  
    15    9   23 1  
    16   10   18 am 
    17   10   21 2  
    18   11   19 am 
    19   20   11 am 
    20   11   22 2  
    21   13   12 1  
    22   14   13 1  
    23   15   14 1  
    24   16   15 1  
    25   16   24 1  
    26   17   23 1  
    27    1   25 1  
    28    2   26 1  
    29    3   27 1  
    30    4   28 1  
    31   12   29 1  
    32   12   30 1  
    33   13   31 1  
    34   13   32 1  
    35   14   33 1  
    36   14   34 1  
    37   15   35 1  
    38   15   36 1  
    39   16   37 1  
    40   18   38 1  
    41   18   39 1  
    42   19   40 1  
    43   19   41 1  
    44   20   42 1  
@<TRIPOS>SUBSTRUCTURE
     1 LTI         1

