### 
### Created by X-TOOL on Mon Sep 10 21:13:09 2018
### 

@<TRIPOS>MOLECULE
4at4_ligand
   44    47     1     0     0
SMALL
GAST_HUCK


@<TRIPOS>ATOM
      1 C4         52.9060   28.6960   15.3230 C.ar      1 T6E         0.1255
      2 C5         52.0530   28.3980   16.4690 C.ar      1 T6E         0.0528
      3 C6         50.8210   27.7030   16.1800 C.ar      1 T6E         0.1099
      4 N1         50.4080   27.3150   14.9240 N.ar      1 T6E        -0.2765
      5 N3         52.5210   28.3140   14.0220 N.ar      1 T6E        -0.2636
      6 NBF        54.0990   29.3550   15.4090 N.pl3     1 T6E        -0.3142
      7 C2         51.3100   27.6400   13.9130 C.ar      1 T6E         0.0593
      8 CBB        52.1560   28.6440   17.8690 C.2       1 T6E        -0.0153
      9 CAZ        53.2580   29.2750   18.5370 C.ar      1 T6E        -0.0436
     10 CAO        53.2260   30.5790   19.1240 C.ar      1 T6E        -0.0712
     11 CAM        54.3920   31.0800   19.7780 C.ar      1 T6E        -0.0423
     12 CAN        54.4370   28.4740   18.5830 C.ar      1 T6E        -0.0712
     13 CAL        55.5880   28.9590   19.2270 C.ar      1 T6E        -0.0423
     14 CAX        55.5870   30.2810   19.8280 C.ar      1 T6E         0.0667
     15 NAT        56.7420   30.8180   20.5000 N.am      1 T6E        -0.2146
     16 CAV        58.0810   30.3500   20.5270 C.2       1 T6E         0.3170
     17 OAD        58.4690   29.3570   19.9430 O.2       1 T6E        -0.3804
     18 NAU        58.9450   31.1410   21.3110 N.am      1 T6E        -0.2073
     19 CAY        60.1970   30.6950   21.8080 C.ar      1 T6E         0.1322
     20 CAP        61.1920   30.1110   20.9630 C.ar      1 T6E        -0.0148
     21 CAJ        60.4830   30.8460   23.2130 C.ar      1 T6E         0.1896
     22 CAH        61.7320   30.4230   23.7630 C.ar      1 T6E        -0.0056
     23 CAK        62.6990   29.8350   22.8990 C.ar      1 T6E        -0.0454
     24 CBA        62.4180   29.6820   21.5110 C.ar      1 T6E         0.0265
     25 CBG        63.4610   29.0530   20.6080 C.3       1 T6E         0.3661
     26 FAF        64.3100   29.8940   20.0380 F         1 T6E        -0.2267
     27 FAG        62.9270   28.3790   19.5790 F         1 T6E        -0.2267
     28 FAE        64.2400   28.1640   21.2110 F         1 T6E        -0.2267
     29 F1         59.5760   31.3910   24.0080 F         1 T6E        -0.1626
     30 S          49.9080   27.4120   17.6000 S.3       1 T6E        -0.0177
     31 C8         51.0980   28.1730   18.5590 C.2       1 T6E         0.0057
     32 H1         54.6517   29.5326   14.5582 H         1 T6E         0.1826
     33 H2         54.4461   29.6745   16.3246 H         1 T6E         0.1826
     34 H3         51.0318   27.3271   12.9131 H         1 T6E         0.1020
     35 H4         52.3257   31.1806   19.0728 H         1 T6E         0.0560
     36 H5         54.3767   32.0621   20.2367 H         1 T6E         0.0502
     37 H6         54.4453   27.4929   18.1221 H         1 T6E         0.0560
     38 H7         56.4795   28.3443   19.2753 H         1 T6E         0.0502
     39 H8         56.5742   31.6495   21.0296 H         1 T6E         0.2268
     40 H9         58.6581   32.0735   21.5304 H         1 T6E         0.2257
     41 H10        61.0036   29.9982   19.9015 H         1 T6E         0.0680
     42 H11        61.9398   30.5476   24.8196 H         1 T6E         0.0662
     43 H12        63.6506   29.5032   23.2982 H         1 T6E         0.0744
     44 H13        51.0096   28.2700   19.6401 H         1 T6E         0.0768
@<TRIPOS>BOND
     1    1    2 ar 
     2    1    5 ar 
     3    1    6 1  
     4    2    3 ar 
     5    2    8 1  
     6    3    4 ar 
     7    3   30 1  
     8    4    7 ar 
     9    5    7 ar 
    10    8    9 1  
    11    8   31 2  
    12    9   10 ar 
    13    9   12 ar 
    14   10   11 ar 
    15   11   14 ar 
    16   12   13 ar 
    17   13   14 ar 
    18   14   15 1  
    19   15   16 am 
    20   16   17 2  
    21   16   18 am 
    22   18   19 1  
    23   19   20 ar 
    24   19   21 ar 
    25   20   24 ar 
    26   21   22 ar 
    27   21   29 1  
    28   22   23 ar 
    29   23   24 ar 
    30   24   25 1  
    31   25   26 1  
    32   25   27 1  
    33   25   28 1  
    34   30   31 1  
    35    6   32 1  
    36    6   33 1  
    37    7   34 1  
    38   10   35 1  
    39   11   36 1  
    40   12   37 1  
    41   13   38 1  
    42   15   39 1  
    43   18   40 1  
    44   20   41 1  
    45   22   42 1  
    46   23   43 1  
    47   31   44 1  
@<TRIPOS>SUBSTRUCTURE
     1 T6E         1

