### 
### Created by X-TOOL on Mon Sep 10 21:13:08 2018
### 

@<TRIPOS>MOLECULE
4at5_ligand
   49    51     1     0     0
SMALL
GAST_HUCK


@<TRIPOS>ATOM
      1 N1         -9.2660   27.1160  -13.5870 N.ar      1 MUJ        -0.2487
      2 C2         -8.7370   27.1420  -15.9480 C.ar      1 MUJ         0.0218
      3 C3         -9.4160   27.6670  -14.8070 C.ar      1 MUJ         0.1161
      4 C4         -7.9340   26.0530  -15.7100 C.ar      1 MUJ         0.0016
      5 C5         -8.4470   26.0470  -13.4930 C.ar      1 MUJ         0.1638
      6 N6         -7.7640   25.4820  -14.5130 N.ar      1 MUJ        -0.2822
      7 C7         -8.8860   27.7420  -17.3330 C.3       1 MUJ         0.0079
      8 C8        -10.3170   27.9800  -17.7750 C.ar      1 MUJ        -0.0535
      9 C9        -12.0360   29.4680  -18.5870 C.ar      1 MUJ        -0.0474
     10 C10       -10.7350   29.2380  -18.1820 C.ar      1 MUJ        -0.0785
     11 C11       -12.9450   28.4260  -18.5890 C.ar      1 MUJ         0.1152
     12 C12       -11.2350   26.9370  -17.7780 C.ar      1 MUJ        -0.0382
     13 C13       -12.5380   27.1480  -18.1800 C.ar      1 MUJ         0.1136
     14 O14       -13.5060   26.1830  -18.2150 O.3       1 MUJ        -0.3265
     15 C15       -13.1420   24.8680  -17.8090 C.3       1 MUJ         0.0568
     16 O16       -14.2540   28.5460  -18.9700 O.3       1 MUJ        -0.3154
     17 C17       -14.7340   29.8590  -19.2850 C.3       1 MUJ         0.0955
     18 C18       -16.2290   29.8190  -19.3970 C.ar      1 MUJ        -0.0242
     19 C19       -18.2210   29.3830  -20.6830 C.ar      1 MUJ        -0.0395
     20 C20       -16.8440   29.4230  -20.5740 C.ar      1 MUJ        -0.0662
     21 C21       -19.0050   29.7420  -19.6030 C.ar      1 MUJ         0.0837
     22 C22       -17.0320   30.1760  -18.3250 C.ar      1 MUJ        -0.0662
     23 C23       -18.4100   30.1400  -18.4210 C.ar      1 MUJ        -0.0395
     24 O24       -20.3690   29.7050  -19.7040 O.3       1 MUJ        -0.3257
     25 C25       -20.9270   29.2870  -20.9460 C.3       1 MUJ         0.0579
     26 N26       -10.2270   28.7230  -14.8930 N.pl3     1 MUJ        -0.3199
     27 N27        -8.3010   25.5040  -12.2830 N.pl3     1 MUJ        -0.3098
     28 H          -7.3977   25.6243  -16.5566 H         1 MUJ         0.0775
     29 H          -8.4536   27.0283  -18.0343 H         1 MUJ         0.0536
     30 H          -8.3969   28.7158  -17.3094 H         1 MUJ         0.0536
     31 H         -12.3438   30.4648  -18.9030 H         1 MUJ         0.0493
     32 H         -10.0224   30.0628  -18.1825 H         1 MUJ         0.0439
     33 H         -10.9228   25.9424  -17.4597 H         1 MUJ         0.0453
     34 H         -12.3439   24.4982  -18.4527 H         1 MUJ         0.0573
     35 H         -12.7959   24.8909  -16.7757 H         1 MUJ         0.0573
     36 H         -14.0085   24.2115  -17.8889 H         1 MUJ         0.0573
     37 H         -14.3035   30.1907  -20.2299 H         1 MUJ         0.0750
     38 H         -14.4430   30.5551  -18.4983 H         1 MUJ         0.0750
     39 H         -18.6870   29.0695  -21.6172 H         1 MUJ         0.0525
     40 H         -16.2308   29.1380  -21.4289 H         1 MUJ         0.0531
     41 H         -16.5684   30.4906  -17.3900 H         1 MUJ         0.0531
     42 H         -19.0254   30.4245  -17.5675 H         1 MUJ         0.0525
     43 H         -20.5978   29.9618  -21.7362 H         1 MUJ         0.0575
     44 H         -20.5940   28.2735  -21.1697 H         1 MUJ         0.0575
     45 H         -22.0148   29.3069  -20.8792 H         1 MUJ         0.0575
     46 H         -10.6973   29.0742  -14.0588 H         1 MUJ         0.1790
     47 H         -10.3767   29.1791  -15.7930 H         1 MUJ         0.1790
     48 H          -7.6927   24.6950  -12.1571 H         1 MUJ         0.1804
     49 H          -8.7977   25.8979  -11.4839 H         1 MUJ         0.1804
@<TRIPOS>BOND
     1    1    3 ar 
     2    1    5 ar 
     3    3    2 ar 
     4    2    4 ar 
     5    2    7 1  
     6    3   26 1  
     7    4    6 ar 
     8    5    6 ar 
     9    5   27 1  
    10    7    8 1  
    11    8   10 ar 
    12    8   12 ar 
    13   10    9 ar 
    14    9   11 ar 
    15   11   13 ar 
    16   11   16 1  
    17   12   13 ar 
    18   13   14 1  
    19   14   15 1  
    20   16   17 1  
    21   17   18 1  
    22   18   20 ar 
    23   18   22 ar 
    24   20   19 ar 
    25   19   21 ar 
    26   21   23 ar 
    27   21   24 1  
    28   22   23 ar 
    29   24   25 1  
    30    4   28 1  
    31    7   29 1  
    32    7   30 1  
    33    9   31 1  
    34   10   32 1  
    35   12   33 1  
    36   15   34 1  
    37   15   35 1  
    38   15   36 1  
    39   17   37 1  
    40   17   38 1  
    41   19   39 1  
    42   20   40 1  
    43   22   41 1  
    44   23   42 1  
    45   25   43 1  
    46   25   44 1  
    47   25   45 1  
    48   26   46 1  
    49   26   47 1  
    50   27   48 1  
    51   27   49 1  
@<TRIPOS>SUBSTRUCTURE
     1 MUJ         1

