### 
### Created by X-TOOL on Mon Sep 10 21:13:12 2018
### 

@<TRIPOS>MOLECULE
4att_ligand
   43    44     1     0     0
SMALL
GAST_HUCK


@<TRIPOS>ATOM
      1 O6        -13.8700    3.3380   -9.3870 O.3       1 HNV        -0.3924
      2 C6        -14.4870    3.2420  -10.6210 C.3       1 HNV         0.0730
      3 C5        -14.3710    1.9080  -11.2600 C.3       1 HNV         0.1130
      4 O5        -12.9970    1.6300  -11.3740 O.3       1 HNV        -0.3405
      5 C4        -15.0520    0.7970  -10.4520 C.3       1 HNV         0.1119
      6 O4        -16.4590    1.0590  -10.3500 O.3       1 HNV        -0.3865
      7 C3        -14.7760   -0.4770  -11.0260 C.3       1 HNV         0.1141
      8 O3        -15.3580   -1.5630  -10.1910 O.3       1 HNV        -0.3864
      9 C2        -13.3930   -0.7460  -11.2460 C.3       1 HNV         0.1341
     10 O2        -12.6580   -0.8730  -10.0280 O.3       1 HNV        -0.3841
     11 C1        -12.7300    0.4000  -11.9930 C.3       1 HNV         0.1890
     12 O1        -13.1160    0.4050  -13.3020 O.3       1 HNV        -0.3366
     13 C7        -12.4850    1.3360  -14.0790 C.3       1 HNV         0.1097
     14 C8        -13.0820    1.5560  -15.4130 C.1       1 HNV        -0.0746
     15 C9        -13.5460    1.7270  -16.5120 C.1       1 HNV        -0.0733
     16 C10       -14.0920    1.9210  -17.8710 C.ar      1 HNV         0.0144
     17 C15       -15.3740    1.5010  -18.1870 C.ar      1 HNV        -0.0542
     18 C14       -15.8660    1.7080  -19.4690 C.ar      1 HNV        -0.0309
     19 C13       -15.0570    2.3360  -20.4110 C.ar      1 HNV         0.0922
     20 O7        -15.5080    2.5540  -21.6940 O.3       1 HNV        -0.3203
     21 C16       -16.8310    2.2940  -21.9940 C.3       1 HNV         0.0598
     22 C12       -13.7810    2.7500  -20.0820 C.ar      1 HNV        -0.0309
     23 C11       -13.2880    2.5540  -18.8070 C.ar      1 HNV        -0.0542
     24 H1        -13.9868    4.2159   -9.0432 H         1 HNV         0.2095
     25 H2        -14.0328    3.9859  -11.2920 H         1 HNV         0.0584
     26 H3        -15.5552    3.4696  -10.4906 H         1 HNV         0.0584
     27 H4        -14.8285    1.9459  -12.2596 H         1 HNV         0.0647
     28 H5        -14.6330    0.8043   -9.4350 H         1 HNV         0.0647
     29 H6        -16.5941    1.8920   -9.9137 H         1 HNV         0.2100
     30 H7        -15.2715   -0.4998  -12.0078 H         1 HNV         0.0648
     31 H8        -15.1647   -2.4041  -10.5878 H         1 HNV         0.2100
     32 H9        -13.3061   -1.6749  -11.8288 H         1 HNV         0.0671
     33 H10       -13.0170   -1.5880   -9.5159 H         1 HNV         0.2101
     34 H11       -11.6423    0.2391  -11.9629 H         1 HNV         0.0938
     35 H12       -11.4443    1.0098  -14.2223 H         1 HNV         0.0693
     36 H13       -12.4979    2.2942  -13.5390 H         1 HNV         0.0693
     37 H14       -15.9887    1.0141  -17.4386 H         1 HNV         0.0605
     38 H15       -16.8666    1.3848  -19.7323 H         1 HNV         0.0547
     39 H16       -17.0182    2.5214  -23.0538 H         1 HNV         0.0578
     40 H17       -17.4798    2.9207  -21.3644 H         1 HNV         0.0578
     41 H18       -17.0487    1.2329  -21.8028 H         1 HNV         0.0578
     42 H19       -13.1621    3.2322  -20.8300 H         1 HNV         0.0547
     43 H20       -12.2914    2.8886  -18.5428 H         1 HNV         0.0605
@<TRIPOS>BOND
     1    1    2 1  
     2    2    3 1  
     3    3    4 1  
     4    3    5 1  
     5    4   11 1  
     6    5    6 1  
     7    5    7 1  
     8    7    8 1  
     9    7    9 1  
    10    9   10 1  
    11    9   11 1  
    12   11   12 1  
    13   12   13 1  
    14   13   14 1  
    15   14   15 3  
    16   15   16 1  
    17   16   17 ar 
    18   16   23 ar 
    19   17   18 ar 
    20   18   19 ar 
    21   19   20 1  
    22   19   22 ar 
    23   20   21 1  
    24   22   23 ar 
    25    1   24 1  
    26    2   25 1  
    27    2   26 1  
    28    3   27 1  
    29    5   28 1  
    30    6   29 1  
    31    7   30 1  
    32    8   31 1  
    33    9   32 1  
    34   10   33 1  
    35   11   34 1  
    36   13   35 1  
    37   13   36 1  
    38   17   37 1  
    39   18   38 1  
    40   21   39 1  
    41   21   40 1  
    42   21   41 1  
    43   22   42 1  
    44   23   43 1  
@<TRIPOS>SUBSTRUCTURE
     1 HNV         1

