### 
### Created by X-TOOL on Mon Sep 10 21:13:14 2018
### 

@<TRIPOS>MOLECULE
4au8_ligand
   26    28     1     0     0
SMALL
GAST_HUCK


@<TRIPOS>ATOM
      1 C1          5.1570   28.3340    3.9580 C.ar      1 Z3R        -0.0716
      2 C2          5.9480   27.3760    4.6200 C.ar      1 Z3R        -0.0710
      3 C3          7.1630   26.9560    4.0690 C.ar      1 Z3R        -0.0490
      4 C4          7.5640   27.4860    2.8310 C.ar      1 Z3R         0.0528
      5 C5          6.7790   28.4420    2.1620 C.ar      1 Z3R         0.0282
      6 C6          5.5530   28.8630    2.7510 C.ar      1 Z3R        -0.0562
      7 N7          7.3340   28.8600    0.9940 N.2       1 Z3R        -0.3053
      8 C8          8.4900   28.3580    0.6780 C.2       1 Z3R         0.1003
      9 S9          9.0120   27.1830    1.8590 S.3       1 Z3R        -0.0027
     10 C10         9.2820   28.6850   -0.5170 C.2       1 Z3R         0.0180
     11 C11        10.4620   28.0150   -0.8630 C.2       1 Z3R        -0.0336
     12 C12        11.0060   28.5060   -1.9700 C.2       1 Z3R         0.1661
     13 S13        10.0980   29.8330   -2.6130 S.3       1 Z3R        -0.0009
     14 C14         8.9510   29.6870   -1.3490 C.2       1 Z3R         0.0239
     15 S15        12.4410   27.9800   -2.8160 S.o2      1 Z3R         0.0754
     16 O16        11.8960   27.4650   -4.0210 O.2       1 Z3R        -0.1499
     17 O17        13.3550   29.0580   -2.8850 O.2       1 Z3R        -0.1499
     18 N18        13.0810   26.7140   -1.9880 N.am      1 Z3R        -0.2604
     19 H1          4.2243   28.6590    4.4046 H         1 Z3R         0.0557
     20 H2          5.6130   26.9608    5.5636 H         1 Z3R         0.0562
     21 H3          7.7841   26.2347    4.5877 H         1 Z3R         0.0567
     22 H4          4.9334   29.5980    2.2501 H         1 Z3R         0.0568
     23 H5         10.8834   27.1892   -0.2918 H         1 Z3R         0.0445
     24 H6          8.0725   30.3204   -1.2351 H         1 Z3R         0.0889
     25 H7         13.9143   26.2706   -2.3181 H         1 Z3R         0.1635
     26 H8         12.6373   26.3866   -1.1538 H         1 Z3R         0.1635
@<TRIPOS>BOND
     1    1    2 ar 
     2    1    6 ar 
     3    2    3 ar 
     4    3    4 ar 
     5    4    5 ar 
     6    4    9 1  
     7    5    6 ar 
     8    5    7 1  
     9    7    8 2  
    10    8    9 1  
    11    8   10 1  
    12   10   11 1  
    13   10   14 2  
    14   11   12 2  
    15   12   13 1  
    16   12   15 1  
    17   13   14 1  
    18   15   16 2  
    19   15   17 2  
    20   15   18 am 
    21    1   19 1  
    22    2   20 1  
    23    3   21 1  
    24    6   22 1  
    25   11   23 1  
    26   14   24 1  
    27   18   25 1  
    28   18   26 1  
@<TRIPOS>SUBSTRUCTURE
     1 Z3R         1

