### 
### Created by X-TOOL on Mon Sep 10 21:13:12 2018
### 

@<TRIPOS>MOLECULE
4auj_ligand
   40    41     1     0     0
SMALL
GAST_HUCK


@<TRIPOS>ATOM
      1 O6         15.6340    2.4590    9.7320 O.3       1 HNW        -0.3924
      2 C6         16.3790    2.3610   10.9110 C.3       1 HNW         0.0730
      3 C5         16.6540    1.0050   11.3680 C.3       1 HNW         0.1134
      4 O5         15.3690    0.3420   11.6440 O.3       1 HNW        -0.3368
      5 C4         17.4940    0.1880   10.3690 C.3       1 HNW         0.1119
      6 O4         18.7830    0.8050   10.3150 O.3       1 HNW        -0.3865
      7 C3         17.5900   -1.1680   10.7770 C.3       1 HNW         0.1145
      8 O3         18.2980   -1.9710    9.8050 O.3       1 HNW        -0.3864
      9 C2         16.2680   -1.7860   11.0210 C.3       1 HNW         0.1386
     10 O2         15.5630   -1.8470    9.8560 O.3       1 HNW        -0.3837
     11 O7         14.6860    2.2870   21.4870 O.3       1 HNW        -0.3830
     12 C7         14.0190    2.6620   20.3300 C.3       1 HNW         0.1032
     13 C8         14.4400    1.9210   19.0580 C.1       1 HNW        -0.0750
     14 C9         14.7250    1.3950   18.0030 C.1       1 HNW        -0.0733
     15 C10        15.0890    0.7330   16.7540 C.ar      1 HNW         0.0144
     16 C15        16.3310    0.1590   16.6350 C.ar      1 HNW        -0.0542
     17 C14        16.6570   -0.4660   15.4160 C.ar      1 HNW        -0.0308
     18 C13        15.7920   -0.4750   14.3980 C.ar      1 HNW         0.0960
     19 O1         16.2180   -1.1150   13.2370 O.3       1 HNW        -0.2841
     20 C1         15.4800   -0.9810   12.0770 C.3       1 HNW         0.2100
     21 C12        14.5460    0.1060   14.5230 C.ar      1 HNW        -0.0308
     22 C11        14.2160    0.7240   15.7300 C.ar      1 HNW        -0.0542
     23 H1         15.5061    3.3749    9.5148 H         1 HNW         0.2095
     24 H2         15.8248    2.8808   11.7064 H         1 HNW         0.0584
     25 H3         17.3427    2.8650   10.7459 H         1 HNW         0.0584
     26 H4         17.2236    1.0691   12.3068 H         1 HNW         0.0647
     27 H5         17.0254    0.2255    9.3745 H         1 HNW         0.0647
     28 H6         18.6904    1.7044   10.0233 H         1 HNW         0.2100
     29 H7         18.1560   -1.1892   11.7200 H         1 HNW         0.0648
     30 H8         18.3428   -2.8694   10.1104 H         1 HNW         0.2100
     31 H9         16.4198   -2.8081   11.3980 H         1 HNW         0.0675
     32 H10        16.0424   -2.3699    9.2241 H         1 HNW         0.2101
     33 H11        15.6167    2.4443   21.3798 H         1 HNW         0.2106
     34 H12        14.1945    3.7361   20.1704 H         1 HNW         0.0689
     35 H13        12.9445    2.4851   20.4855 H         1 HNW         0.0689
     36 H14        17.0393    0.1863   17.4551 H         1 HNW         0.0605
     37 H15        17.6223   -0.9460   15.3022 H         1 HNW         0.0547
     38 H16        14.4733   -1.4003   12.2205 H         1 HNW         0.0994
     39 H17        13.8392    0.0827   13.7014 H         1 HNW         0.0547
     40 H18        13.2490    1.2005   15.8435 H         1 HNW         0.0605
@<TRIPOS>BOND
     1    2    1 1  
     2    3    2 1  
     3    4    3 1  
     4    3    5 1  
     5   20    4 1  
     6    5    6 1  
     7    7    5 1  
     8    7    8 1  
     9    9    7 1  
    10    9   10 1  
    11   20    9 1  
    12   12   11 1  
    13   13   12 1  
    14   14   13 3  
    15   15   14 1  
    16   16   15 ar 
    17   15   22 ar 
    18   17   16 ar 
    19   18   17 ar 
    20   19   18 1  
    21   18   21 ar 
    22   19   20 1  
    23   21   22 ar 
    24    1   23 1  
    25    2   24 1  
    26    2   25 1  
    27    3   26 1  
    28    5   27 1  
    29    6   28 1  
    30    7   29 1  
    31    8   30 1  
    32    9   31 1  
    33   10   32 1  
    34   11   33 1  
    35   12   34 1  
    36   12   35 1  
    37   16   36 1  
    38   17   37 1  
    39   20   38 1  
    40   21   39 1  
    41   22   40 1  
@<TRIPOS>SUBSTRUCTURE
     1 HNW         1

