### 
### Created by X-TOOL on Mon Sep 10 21:13:08 2018
### 

@<TRIPOS>MOLECULE
4auy_ligand
   40    41     1     0     0
SMALL
GAST_HUCK


@<TRIPOS>ATOM
      1 O6         15.5870  -59.6380   20.9280 O.3       1 HNW        -0.3924
      2 C6         15.8800  -60.8920   20.3850 C.3       1 HNW         0.0730
      3 C5         14.9540  -61.9230   20.7340 C.3       1 HNW         0.1134
      4 O5         14.7350  -61.9160   22.1970 O.3       1 HNW        -0.3368
      5 C4         13.6110  -61.7360   20.0180 C.3       1 HNW         0.1119
      6 O4         13.8340  -61.7690   18.6030 O.3       1 HNW        -0.3865
      7 C3         12.6930  -62.7240   20.4240 C.3       1 HNW         0.1145
      8 O3         11.4590  -62.4720   19.7490 O.3       1 HNW        -0.3864
      9 C2         12.4700  -62.6890   21.8880 C.3       1 HNW         0.1386
     10 O2         11.8970  -61.5230   22.3250 O.3       1 HNW        -0.3837
     11 O7         21.9120  -68.9520   24.1170 O.3       1 HNW        -0.3830
     12 C7         21.5270  -67.6050   24.1590 C.3       1 HNW         0.1032
     13 C8         20.1350  -67.1490   23.6690 C.1       1 HNW        -0.0750
     14 C9         19.0270  -66.8250   23.2630 C.1       1 HNW        -0.0733
     15 C10        17.7180  -66.2390   22.9050 C.ar      1 HNW         0.0144
     16 C15        17.4180  -65.0690   23.4970 C.ar      1 HNW        -0.0542
     17 C14        16.2200  -64.3470   23.3000 C.ar      1 HNW        -0.0308
     18 C13        15.2890  -64.8680   22.4500 C.ar      1 HNW         0.0960
     19 O1         14.0740  -64.2070   22.2090 O.3       1 HNW        -0.2841
     20 C1         13.8190  -62.9070   22.5900 C.3       1 HNW         0.2100
     21 C12        15.5660  -66.0640   21.8640 C.ar      1 HNW        -0.0308
     22 C11        16.7850  -66.7840   22.0560 C.ar      1 HNW        -0.0542
     23 H1         16.2456  -59.0122   20.6504 H         1 HNW         0.2095
     24 H2         16.8776  -61.1936   20.7368 H         1 HNW         0.0584
     25 H3         15.8908  -60.7973   19.2892 H         1 HNW         0.0584
     26 H4         15.3793  -62.8934   20.4384 H         1 HNW         0.0647
     27 H5         13.1993  -60.7517   20.2858 H         1 HNW         0.0647
     28 H6         14.4288  -61.0690   18.3609 H         1 HNW         0.2100
     29 H7         13.0759  -63.7161   20.1429 H         1 HNW         0.0648
     30 H8         10.8196  -63.1262   20.0056 H         1 HNW         0.2100
     31 H9         11.7945  -63.5161   22.1517 H         1 HNW         0.0675
     32 H10        11.0525  -61.4096   21.9049 H         1 HNW         0.2101
     33 H11        22.7947  -69.0386   24.4572 H         1 HNW         0.2106
     34 H12        22.2641  -67.0524   23.5579 H         1 HNW         0.0689
     35 H13        21.6035  -67.2928   25.2110 H         1 HNW         0.0689
     36 H14        18.1507  -64.6486   24.1763 H         1 HNW         0.0605
     37 H15        16.0456  -63.4062   23.8095 H         1 HNW         0.0547
     38 H16        13.7152  -62.8541   23.6838 H         1 HNW         0.0994
     39 H17        14.8163  -66.4971   21.2117 H         1 HNW         0.0547
     40 H18        16.9672  -67.7255   21.5506 H         1 HNW         0.0605
@<TRIPOS>BOND
     1    2    1 1  
     2    3    2 1  
     3    4    3 1  
     4    3    5 1  
     5   20    4 1  
     6    5    6 1  
     7    7    5 1  
     8    7    8 1  
     9    9    7 1  
    10    9   10 1  
    11   20    9 1  
    12   12   11 1  
    13   13   12 1  
    14   14   13 3  
    15   15   14 1  
    16   16   15 ar 
    17   15   22 ar 
    18   17   16 ar 
    19   18   17 ar 
    20   19   18 1  
    21   18   21 ar 
    22   19   20 1  
    23   21   22 ar 
    24    1   23 1  
    25    2   24 1  
    26    2   25 1  
    27    3   26 1  
    28    5   27 1  
    29    6   28 1  
    30    7   29 1  
    31    8   30 1  
    32    9   31 1  
    33   10   32 1  
    34   11   33 1  
    35   12   34 1  
    36   12   35 1  
    37   16   36 1  
    38   17   37 1  
    39   20   38 1  
    40   21   39 1  
    41   22   40 1  
@<TRIPOS>SUBSTRUCTURE
     1 HNW         1

