### 
### Created by X-TOOL on Mon Sep 10 21:13:09 2018
### 

@<TRIPOS>MOLECULE
4av0_ligand
   43    44     1     0     0
SMALL
GAST_HUCK


@<TRIPOS>ATOM
      1 O6        -15.4270   59.5540   20.6540 O.3       1 HNV        -0.3924
      2 C6        -15.7650   60.8230   20.1990 C.3       1 HNV         0.0730
      3 C5        -14.8270   61.9190   20.5480 C.3       1 HNV         0.1130
      4 O5        -14.6460   61.9540   21.9370 O.3       1 HNV        -0.3405
      5 C4        -13.4800   61.6850   19.8420 C.3       1 HNV         0.1119
      6 O4        -13.6980   61.5880   18.4320 O.3       1 HNV        -0.3865
      7 C3        -12.5280   62.6600   20.1980 C.3       1 HNV         0.1141
      8 O3        -11.2350   62.3750   19.5480 O.3       1 HNV        -0.3864
      9 C2        -12.3250   62.7320   21.6090 C.3       1 HNV         0.1341
     10 O2        -11.7080   61.5580   22.1340 O.3       1 HNV        -0.3841
     11 C1        -13.6310   62.8340   22.3810 C.3       1 HNV         0.1890
     12 O1        -14.0360   64.1340   22.3570 O.3       1 HNV        -0.3366
     13 C7        -15.1760   64.4350   23.0710 C.3       1 HNV         0.1097
     14 C8        -16.1150   65.4820   22.5770 C.1       1 HNV        -0.0746
     15 C9        -16.9560   66.2860   22.2330 C.1       1 HNV        -0.0733
     16 C10       -18.0450   67.2120   21.8300 C.ar      1 HNV         0.0144
     17 C15       -17.7680   68.5490   21.5740 C.ar      1 HNV        -0.0542
     18 C14       -18.8170   69.3780   21.1810 C.ar      1 HNV        -0.0309
     19 C13       -20.1150   68.8900   21.0290 C.ar      1 HNV         0.0922
     20 O7        -21.1220   69.7520   20.6320 O.3       1 HNV        -0.3203
     21 C16       -21.2240   70.1820   19.3150 C.3       1 HNV         0.0598
     22 C12       -20.3830   67.5430   21.2820 C.ar      1 HNV        -0.0309
     23 C11       -19.3390   66.7100   21.6800 C.ar      1 HNV        -0.0542
     24 H1        -16.0900   58.9325   20.3770 H         1 HNV         0.2095
     25 H2        -16.7493   61.0782   20.6186 H         1 HNV         0.0584
     26 H3        -15.8344   60.7781   19.1021 H         1 HNV         0.0584
     27 H4        -15.2480   62.8788   20.2141 H         1 HNV         0.0647
     28 H5        -13.0872   60.7153   20.1816 H         1 HNV         0.0647
     29 H6        -14.2829   60.8614   18.2524 H         1 HNV         0.2100
     30 H7        -12.8929   63.6373   19.8492 H         1 HNV         0.0648
     31 H8        -10.6035   63.0397   19.7968 H         1 HNV         0.2100
     32 H9        -11.6969   63.6100   21.8203 H         1 HNV         0.0671
     33 H10       -10.8606   61.4359   21.7223 H         1 HNV         0.2101
     34 H11       -13.4169   62.5660   23.4261 H         1 HNV         0.0938
     35 H12       -14.8484   64.7506   24.0725 H         1 HNV         0.0693
     36 H13       -15.7548   63.5030   23.1513 H         1 HNV         0.0693
     37 H14       -16.7613   68.9376   21.6773 H         1 HNV         0.0605
     38 H15       -18.6197   70.4265   20.9889 H         1 HNV         0.0547
     39 H16       -22.0873   70.8564   19.2153 H         1 HNV         0.0578
     40 H17       -21.3598   69.3126   18.6549 H         1 HNV         0.0578
     41 H18       -20.3058   70.7175   19.0319 H         1 HNV         0.0578
     42 H19       -21.3876   67.1514   21.1705 H         1 HNV         0.0547
     43 H20       -19.5337   65.6616   21.8751 H         1 HNV         0.0605
@<TRIPOS>BOND
     1    1    2 1  
     2    2    3 1  
     3    3    4 1  
     4    3    5 1  
     5    4   11 1  
     6    5    6 1  
     7    5    7 1  
     8    7    8 1  
     9    7    9 1  
    10    9   10 1  
    11    9   11 1  
    12   11   12 1  
    13   12   13 1  
    14   13   14 1  
    15   14   15 3  
    16   15   16 1  
    17   16   17 ar 
    18   16   23 ar 
    19   17   18 ar 
    20   18   19 ar 
    21   19   20 1  
    22   19   22 ar 
    23   20   21 1  
    24   22   23 ar 
    25    1   24 1  
    26    2   25 1  
    27    2   26 1  
    28    3   27 1  
    29    5   28 1  
    30    6   29 1  
    31    7   30 1  
    32    8   31 1  
    33    9   32 1  
    34   10   33 1  
    35   11   34 1  
    36   13   35 1  
    37   13   36 1  
    38   17   37 1  
    39   18   38 1  
    40   21   39 1  
    41   21   40 1  
    42   21   41 1  
    43   22   42 1  
    44   23   43 1  
@<TRIPOS>SUBSTRUCTURE
     1 HNV         1

