### 
### Created by X-TOOL on Mon Sep 10 21:13:09 2018
### 

@<TRIPOS>MOLECULE
4av4_ligand
   38    39     1     0     0
SMALL
GAST_HUCK


@<TRIPOS>ATOM
      1 O6        -14.6670    3.9780   -9.5890 O.3       1 FVQ        -0.3924
      2 C6        -15.3850    3.7320  -10.8030 C.3       1 FVQ         0.0730
      3 C5        -15.2040    2.4900  -11.5060 C.3       1 FVQ         0.1130
      4 O5        -13.7290    2.2320  -11.5090 O.3       1 FVQ        -0.3405
      5 C4        -15.9880    1.3950  -10.8580 C.3       1 FVQ         0.1119
      6 O4        -17.4140    1.7570  -10.8450 O.3       1 FVQ        -0.3865
      7 C3        -15.6700    0.0890  -11.4380 C.3       1 FVQ         0.1141
      8 O3        -16.2120   -0.9440  -10.6730 O.3       1 FVQ        -0.3864
      9 C2        -14.1870   -0.1410  -11.5470 C.3       1 FVQ         0.1341
     10 O2        -13.6570   -0.3710  -10.2860 O.3       1 FVQ        -0.3841
     11 C1        -13.4460    1.0100  -12.1480 C.3       1 FVQ         0.1890
     12 O1        -13.8170    1.0900  -13.4730 O.3       1 FVQ        -0.3358
     13 C7        -13.0690    2.0180  -14.2870 C.3       1 FVQ         0.1128
     14 C8        -13.6360    2.1130  -15.6370 C.1       1 FVQ        -0.0651
     15 C9        -14.1170    2.2930  -16.7220 C.1       1 FVQ        -0.0551
     16 C10       -14.6980    2.5790  -18.0730 C.ar      1 FVQ         0.0527
     17 C15       -13.8360    3.1590  -19.0530 C.ar      1 FVQ        -0.0270
     18 C14       -14.3750    3.4500  -20.3120 C.ar      1 FVQ        -0.0330
     19 C13       -15.7250    3.1380  -20.5460 C.ar      1 FVQ         0.0110
     20 N12       -16.5170    2.5880  -19.5800 N.ar      1 FVQ        -0.2956
     21 C11       -16.0190    2.3040  -18.3440 C.ar      1 FVQ         0.0266
     22 H1        -14.8981    4.8365   -9.2541 H         1 FVQ         0.2095
     23 H2        -15.1113    4.5357  -11.5024 H         1 FVQ         0.0584
     24 H3        -16.4552    3.8063  -10.5598 H         1 FVQ         0.0584
     25 H4        -15.5546    2.5972  -12.5431 H         1 FVQ         0.0647
     26 H5        -15.6703    1.3450   -9.8061 H         1 FVQ         0.0647
     27 H6        -17.5304    2.5634  -10.3564 H         1 FVQ         0.2100
     28 H7        -16.1059    0.0500  -12.4472 H         1 FVQ         0.0648
     29 H8        -15.9922   -1.7789  -11.0693 H         1 FVQ         0.2100
     30 H9        -14.0239   -1.0279  -12.1769 H         1 FVQ         0.0671
     31 H10       -14.0686   -1.1382   -9.9058 H         1 FVQ         0.2101
     32 H11       -12.3653    0.8178  -12.0763 H         1 FVQ         0.0938
     33 H12       -12.0267    1.6738  -14.3586 H         1 FVQ         0.0701
     34 H13       -13.0955    3.0115  -13.8156 H         1 FVQ         0.0701
     35 H14       -12.7961    3.3676  -18.8289 H         1 FVQ         0.0748
     36 H15       -13.7668    3.9041  -21.0860 H         1 FVQ         0.0710
     37 H16       -16.1500    3.3401  -21.5225 H         1 FVQ         0.0821
     38 H17       -16.6555    1.8667  -17.5833 H         1 FVQ         0.0838
@<TRIPOS>BOND
     1    1    2 1  
     2    2    3 1  
     3    3    4 1  
     4    3    5 1  
     5    4   11 1  
     6    5    6 1  
     7    5    7 1  
     8    7    8 1  
     9    7    9 1  
    10    9   10 1  
    11    9   11 1  
    12   11   12 1  
    13   12   13 1  
    14   13   14 1  
    15   14   15 3  
    16   15   16 1  
    17   16   17 ar 
    18   16   21 ar 
    19   17   18 ar 
    20   18   19 ar 
    21   19   20 ar 
    22   20   21 ar 
    23    1   22 1  
    24    2   23 1  
    25    2   24 1  
    26    3   25 1  
    27    5   26 1  
    28    6   27 1  
    29    7   28 1  
    30    8   29 1  
    31    9   30 1  
    32   10   31 1  
    33   11   32 1  
    34   13   33 1  
    35   13   34 1  
    36   17   35 1  
    37   18   36 1  
    38   19   37 1  
    39   21   38 1  
@<TRIPOS>SUBSTRUCTURE
     1 FVQ         1

