### 
### Created by X-TOOL on Mon Sep 10 21:13:08 2018
### 

@<TRIPOS>MOLECULE
4av5_ligand
   49    51     1     0     0
SMALL
GAST_HUCK


@<TRIPOS>ATOM
      1 O2          3.3660  -13.8320  -10.5240 O.3       1 FYZ        -0.3841
      2 C2          3.9250  -14.3500  -11.7510 C.3       1 FYZ         0.1341
      3 C3          3.2120  -15.6360  -12.1450 C.3       1 FYZ         0.1141
      4 O3          3.2890  -16.6240  -11.0940 O.3       1 FYZ        -0.3864
      5 C4          1.7540  -15.3410  -12.4910 C.3       1 FYZ         0.1119
      6 O4          1.1090  -16.5210  -12.9400 O.3       1 FYZ        -0.3865
      7 C5          1.6740  -14.2080  -13.5370 C.3       1 FYZ         0.1130
      8 O5          2.3790  -13.0560  -13.0980 O.3       1 FYZ        -0.3405
      9 C6          0.2340  -13.8040  -13.8070 C.3       1 FYZ         0.0730
     10 O6         -0.4060  -13.2860  -12.6440 O.3       1 FYZ        -0.3924
     11 C1          3.7660  -13.2680  -12.8000 C.3       1 FYZ         0.1890
     12 O1          4.4520  -13.7410  -13.9640 O.3       1 FYZ        -0.3361
     13 C7          4.6670  -12.6380  -14.8760 C.3       1 FYZ         0.1117
     14 C8          4.5920  -13.0440  -16.2930 C.1       1 FYZ        -0.0686
     15 C9          4.5400  -13.3690  -17.4270 C.1       1 FYZ        -0.0640
     16 C10         4.5120  -13.7810  -18.6590 C.ar      1 FYZ         0.0250
     17 C11         5.4390  -14.7570  -19.0460 C.ar      1 FYZ        -0.0458
     18 C12         5.4350  -15.2490  -20.3560 C.ar      1 FYZ        -0.0529
     19 C13         4.4990  -14.7830  -21.2720 C.ar      1 FYZ        -0.0178
     20 C14         3.5940  -13.7820  -20.8920 C.ar      1 FYZ        -0.0529
     21 C15         3.5830  -13.2850  -19.5790 C.ar      1 FYZ        -0.0458
     22 C16         4.5590  -15.3080  -22.6740 C.ar      1 FYZ        -0.0179
     23 C21         5.6650  -16.0670  -23.0520 C.ar      1 FYZ        -0.0540
     24 C20         5.7560  -16.5600  -24.3620 C.ar      1 FYZ        -0.0612
     25 C19         4.7380  -16.2600  -25.2650 C.ar      1 FYZ        -0.0617
     26 C18         3.6410  -15.4900  -24.9000 C.ar      1 FYZ        -0.0612
     27 C17         3.5580  -15.0010  -23.5890 C.ar      1 FYZ        -0.0540
     28 H1          3.4735  -14.4744   -9.8324 H         1 FYZ         0.2101
     29 H2          4.9941  -14.5671  -11.6104 H         1 FYZ         0.0671
     30 H3          3.7065  -16.0450  -13.0384 H         1 FYZ         0.0648
     31 H4          4.2002  -16.8258  -10.9168 H         1 FYZ         0.2100
     32 H5          1.2431  -14.9994  -11.5787 H         1 FYZ         0.0647
     33 H6          0.2040  -16.3248  -13.1518 H         1 FYZ         0.2100
     34 H7          2.1251  -14.5687  -14.4731 H         1 FYZ         0.0647
     35 H8         -0.3227  -14.6869  -14.1542 H         1 FYZ         0.0584
     36 H9          0.2234  -13.0322  -14.5907 H         1 FYZ         0.0584
     37 H10        -1.3006  -13.0467  -12.8562 H         1 FYZ         0.2095
     38 H11         4.2135  -12.3269  -12.4479 H         1 FYZ         0.0938
     39 H12         5.6633  -12.2129  -14.6846 H         1 FYZ         0.0698
     40 H13         3.8995  -11.8725  -14.6888 H         1 FYZ         0.0698
     41 H14         6.1608  -15.1319  -18.3295 H         1 FYZ         0.0630
     42 H15         6.1625  -15.9942  -20.6568 H         1 FYZ         0.0624
     43 H16         2.8948  -13.3873  -21.6202 H         1 FYZ         0.0624
     44 H17         2.8654  -12.5284  -19.2829 H         1 FYZ         0.0630
     45 H18         6.4520  -16.2756  -22.3363 H         1 FYZ         0.0624
     46 H19         6.6033  -17.1637  -24.6666 H         1 FYZ         0.0618
     47 H20         4.8039  -16.6375  -26.2790 H         1 FYZ         0.0618
     48 H21         2.8600  -15.2704  -25.6190 H         1 FYZ         0.0618
     49 H22         2.7170  -14.3861  -23.2897 H         1 FYZ         0.0624
@<TRIPOS>BOND
     1    1    2 1  
     2    2    3 1  
     3    2   11 1  
     4    3    4 1  
     5    3    5 1  
     6    5    6 1  
     7    5    7 1  
     8    7    8 1  
     9    7    9 1  
    10    8   11 1  
    11    9   10 1  
    12   11   12 1  
    13   12   13 1  
    14   13   14 1  
    15   14   15 3  
    16   15   16 1  
    17   16   17 ar 
    18   16   21 ar 
    19   17   18 ar 
    20   18   19 ar 
    21   19   20 ar 
    22   19   22 1  
    23   20   21 ar 
    24   22   23 ar 
    25   22   27 ar 
    26   23   24 ar 
    27   24   25 ar 
    28   25   26 ar 
    29   26   27 ar 
    30    1   28 1  
    31    2   29 1  
    32    3   30 1  
    33    4   31 1  
    34    5   32 1  
    35    6   33 1  
    36    7   34 1  
    37    9   35 1  
    38    9   36 1  
    39   10   37 1  
    40   11   38 1  
    41   13   39 1  
    42   13   40 1  
    43   17   41 1  
    44   18   42 1  
    45   20   43 1  
    46   21   44 1  
    47   23   45 1  
    48   24   46 1  
    49   25   47 1  
    50   26   48 1  
    51   27   49 1  
@<TRIPOS>SUBSTRUCTURE
     1 FYZ         1

