### 
### Created by X-TOOL on Mon Sep 10 21:13:10 2018
### 

@<TRIPOS>MOLECULE
4avg_ligand
   59    61     1     0     0
SMALL
GAST_HUCK


@<TRIPOS>ATOM
      1 CL2        12.5420  -22.1150  -18.1640 Cl        1 SL6        -0.0771
      2 C19        13.3810  -22.6860  -16.6730 C.ar      1 SL6         0.0330
      3 C18        13.8600  -24.0020  -16.5790 C.ar      1 SL6        -0.0546
      4 C17        14.4910  -24.4170  -15.4160 C.ar      1 SL6        -0.0599
      5 C20        13.5330  -21.7910  -15.6160 C.ar      1 SL6        -0.0546
      6 C21        14.1580  -22.2180  -14.4560 C.ar      1 SL6        -0.0599
      7 C16        14.6570  -23.5050  -14.3790 C.ar      1 SL6        -0.0434
      8 C15        15.2680  -23.9530  -13.1060 C.3       1 SL6        -0.0079
      9 C11        16.6960  -23.5760  -12.7520 C.3       1 SL6         0.0560
     10 C10        17.6920  -24.3610  -13.6410 C.3       1 SL6         0.0001
     11 C9         18.8400  -24.9990  -12.8520 C.3       1 SL6        -0.0323
     12 C14        16.9050  -22.0720  -12.8110 C.2       1 SL6         0.1534
     13 O27        16.6440  -21.4250  -11.8100 O.2       1 SL6        -0.3285
     14 C22        17.4760  -21.5140  -14.0700 C.3       1 SL6         0.1057
     15 C23        17.8470  -20.2530  -14.3690 C.2       1 SL6         0.1888
     16 O28        17.6910  -19.2850  -13.5020 O.2       1 SL6        -0.3542
     17 C24        18.4300  -19.9560  -15.7190 C.2       1 SL6         0.1273
     18 O26        18.7500  -18.7820  -16.0150 O.co2     1 SL6        -0.5463
     19 O25        18.5680  -20.9010  -16.5630 O.co2     1 SL6        -0.5463
     20 C12        16.8050  -24.0950  -11.3030 C.3       1 SL6         0.0001
     21 C13        18.1860  -23.9930  -10.6980 C.3       1 SL6        -0.0323
     22 N8         19.2830  -24.2610  -11.6430 N.4       1 SL6         0.2352
     23 C7         20.3140  -24.9830  -10.8380 C.3       1 SL6        -0.0290
     24 C2         21.5850  -25.3220  -11.6180 C.3       1 SL6        -0.0008
     25 C3         22.8180  -24.9030  -10.8030 C.3       1 SL6        -0.0454
     26 C4         24.1150  -25.4830  -11.3980 C.3       1 SL6        -0.0526
     27 C5         24.0560  -26.9870  -11.5970 C.3       1 SL6        -0.0530
     28 C6         22.9030  -27.3450  -12.5350 C.3       1 SL6        -0.0526
     29 C1         21.5790  -26.8360  -11.9570 C.3       1 SL6        -0.0454
     30 H1         13.7376  -24.6885  -17.4090 H         1 SL6         0.0606
     31 H2         14.8490  -25.4354  -15.3167 H         1 SL6         0.0557
     32 H3         13.1670  -20.7741  -15.7004 H         1 SL6         0.0606
     33 H4         14.2555  -21.5454  -13.6115 H         1 SL6         0.0557
     34 H5         15.2253  -25.0522  -13.1076 H         1 SL6         0.0416
     35 H6         14.6315  -23.5625  -12.2983 H         1 SL6         0.0416
     36 H7         18.1200  -23.6683  -14.3805 H         1 SL6         0.0308
     37 H8         17.1412  -25.1584  -14.1613 H         1 SL6         0.0308
     38 H9         19.7037  -25.0896  -13.5271 H         1 SL6         0.0813
     39 H10        18.5155  -26.0012  -12.5352 H         1 SL6         0.0813
     40 H11        16.7281  -21.7627  -14.8373 H         1 SL6         0.0717
     41 H12        18.3860  -22.1085  -14.2386 H         1 SL6         0.0717
     42 H13        16.5045  -25.1531  -11.2945 H         1 SL6         0.0308
     43 H14        16.1130  -23.5123  -10.6773 H         1 SL6         0.0308
     44 H15        18.2558  -24.7189   -9.8745 H         1 SL6         0.0813
     45 H16        18.3140  -22.9750  -10.3014 H         1 SL6         0.0813
     46 H17        19.6695  -23.3835  -11.9539 H         1 SL6         0.2033
     47 H18        19.8723  -25.9213  -10.4713 H         1 SL6         0.0817
     48 H19        20.5915  -24.3495   -9.9826 H         1 SL6         0.0817
     49 H20        21.5874  -24.7559  -12.5611 H         1 SL6         0.0352
     50 H21        22.7046  -25.2672   -9.7713 H         1 SL6         0.0270
     51 H22        22.8870  -23.8052  -10.7989 H         1 SL6         0.0270
     52 H23        24.9471  -25.2521  -10.7166 H         1 SL6         0.0265
     53 H24        24.2966  -25.0074  -12.3731 H         1 SL6         0.0265
     54 H25        23.9004  -27.4774  -10.6247 H         1 SL6         0.0265
     55 H26        25.0034  -27.3340  -12.0353 H         1 SL6         0.0265
     56 H27        22.8536  -28.4378  -12.6507 H         1 SL6         0.0265
     57 H28        23.0744  -26.8797  -13.5169 H         1 SL6         0.0265
     58 H29        20.7841  -27.0233  -12.6939 H         1 SL6         0.0270
     59 H30        21.3644  -27.3970  -11.0355 H         1 SL6         0.0270
@<TRIPOS>BOND
     1    1    2 1  
     2    2    3 ar 
     3    2    5 ar 
     4    3    4 ar 
     5    4    7 ar 
     6    5    6 ar 
     7    6    7 ar 
     8    7    8 1  
     9    8    9 1  
    10    9   10 1  
    11    9   12 1  
    12    9   20 1  
    13   10   11 1  
    14   11   22 1  
    15   12   13 2  
    16   12   14 1  
    17   14   15 1  
    18   15   16 2  
    19   15   17 1  
    20   17   18 ar 
    21   17   19 ar 
    22   20   21 1  
    23   21   22 1  
    24   22   23 1  
    25   23   24 1  
    26   24   25 1  
    27   24   29 1  
    28   25   26 1  
    29   26   27 1  
    30   27   28 1  
    31   28   29 1  
    32    3   30 1  
    33    4   31 1  
    34    5   32 1  
    35    6   33 1  
    36    8   34 1  
    37    8   35 1  
    38   10   36 1  
    39   10   37 1  
    40   11   38 1  
    41   11   39 1  
    42   14   40 1  
    43   14   41 1  
    44   20   42 1  
    45   20   43 1  
    46   21   44 1  
    47   21   45 1  
    48   22   46 1  
    49   23   47 1  
    50   23   48 1  
    51   24   49 1  
    52   25   50 1  
    53   25   51 1  
    54   26   52 1  
    55   26   53 1  
    56   27   54 1  
    57   27   55 1  
    58   28   56 1  
    59   28   57 1  
    60   29   58 1  
    61   29   59 1  
@<TRIPOS>SUBSTRUCTURE
     1 SL6         1

