### 
### Created by X-TOOL on Mon Sep 10 21:13:10 2018
### 

@<TRIPOS>MOLECULE
4avh_ligand
   43    43     1     0     0
SMALL
GAST_HUCK


@<TRIPOS>ATOM
      1 O6        -59.5600  -16.5790  -20.9070 O.3       1 FK9        -0.3924
      2 C6        -60.8670  -16.8520  -20.3710 C.3       1 FK9         0.0730
      3 C5        -61.2620  -18.2800  -20.7120 C.3       1 FK9         0.1130
      4 O5        -61.1550  -18.5120  -22.1380 O.3       1 FK9        -0.3405
      5 C4        -60.3820  -19.2610  -19.9420 C.3       1 FK9         0.1119
      6 O4        -60.5720  -19.1100  -18.5280 O.3       1 FK9        -0.3865
      7 C3        -60.7150  -20.6980  -20.3180 C.3       1 FK9         0.1141
      8 O3        -59.8220  -21.5720  -19.6170 O.3       1 FK9        -0.3864
      9 C2        -60.6050  -20.8770  -21.8330 C.3       1 FK9         0.1341
     10 O2        -59.2570  -20.6500  -22.2880 O.3       1 FK9        -0.3841
     11 C1        -61.5050  -19.8570  -22.5240 C.3       1 FK9         0.1879
     12 O1        -62.8570  -20.1380  -22.1570 O.3       1 FK9        -0.3487
     13 C7        -63.7680  -19.5240  -23.0640 C.3       1 FK9         0.0515
     14 C8        -65.2000  -19.7770  -22.6230 C.3       1 FK9        -0.0203
     15 C9        -66.0290  -18.5270  -22.8650 C.3       1 FK9        -0.0042
     16 C13       -68.4490  -17.1740  -22.1860 C.3       1 FK9        -0.0066
     17 C14       -67.8730  -15.8240  -21.7750 C.3       1 FK9        -0.0469
     18 C15       -68.8090  -14.6870  -22.1430 C.3       1 FK9        -0.0645
     19 S1        -67.3570  -18.4800  -21.7200 S.3       1 FK9        -0.1607
     20 H1        -59.3119  -15.6870  -20.6947 H         1 FK9         0.2095
     21 H2        -61.5965  -16.1546  -20.8085 H         1 FK9         0.0584
     22 H3        -60.8495  -16.7267  -19.2783 H         1 FK9         0.0584
     23 H4        -62.3084  -18.4361  -20.4109 H         1 FK9         0.0647
     24 H5        -59.3294  -19.0583  -20.1888 H         1 FK9         0.0647
     25 H6        -60.3428  -18.2244  -18.2716 H         1 FK9         0.2100
     26 H7        -61.7472  -20.9231  -20.0115 H         1 FK9         0.0648
     27 H8        -60.0199  -22.4731  -19.8435 H         1 FK9         0.2100
     28 H9        -60.9176  -21.8968  -22.1017 H         1 FK9         0.0671
     29 H10       -58.6730  -21.2692  -21.8659 H         1 FK9         0.2101
     30 H11       -61.3937  -19.9544  -23.6140 H         1 FK9         0.0937
     31 H12       -63.6181  -19.9442  -24.0694 H         1 FK9         0.0561
     32 H13       -63.5816  -18.4402  -23.0880 H         1 FK9         0.0561
     33 H14       -65.2158  -20.0265  -21.5518 H         1 FK9         0.0295
     34 H15       -65.6199  -20.6137  -23.2006 H         1 FK9         0.0295
     35 H16       -66.4282  -18.5437  -23.8899 H         1 FK9         0.0377
     36 H17       -65.3977  -17.6361  -22.7319 H         1 FK9         0.0377
     37 H18       -68.5887  -17.1910  -23.2770 H         1 FK9         0.0376
     38 H19       -69.4198  -17.3196  -21.6897 H         1 FK9         0.0376
     39 H20       -66.9106  -15.6749  -22.2864 H         1 FK9         0.0270
     40 H21       -67.7146  -15.8189  -20.6865 H         1 FK9         0.0270
     41 H22       -68.3634  -13.7303  -21.8329 H         1 FK9         0.0230
     42 H23       -69.7729  -14.8254  -21.6314 H         1 FK9         0.0230
     43 H24       -68.9689  -14.6813  -23.2313 H         1 FK9         0.0230
@<TRIPOS>BOND
     1    2    1 1  
     2    3    2 1  
     3    4    3 1  
     4    3    5 1  
     5   11    4 1  
     6    5    6 1  
     7    7    5 1  
     8    7    8 1  
     9    9    7 1  
    10    9   10 1  
    11   11    9 1  
    12   12   11 1  
    13   13   12 1  
    14   14   13 1  
    15   15   14 1  
    16   19   15 1  
    17   16   17 1  
    18   16   19 1  
    19   17   18 1  
    20    1   20 1  
    21    2   21 1  
    22    2   22 1  
    23    3   23 1  
    24    5   24 1  
    25    6   25 1  
    26    7   26 1  
    27    8   27 1  
    28    9   28 1  
    29   10   29 1  
    30   11   30 1  
    31   13   31 1  
    32   13   32 1  
    33   14   33 1  
    34   14   34 1  
    35   15   35 1  
    36   15   36 1  
    37   16   37 1  
    38   16   38 1  
    39   17   39 1  
    40   17   40 1  
    41   18   41 1  
    42   18   42 1  
    43   18   43 1  
@<TRIPOS>SUBSTRUCTURE
     1 FK9         1

