### 
### Created by X-TOOL on Mon Sep 10 21:13:08 2018
### 

@<TRIPOS>MOLECULE
4avi_ligand
   54    54     1     0     0
SMALL
GAST_HUCK


@<TRIPOS>ATOM
      1 C14        20.7770  -68.2680   20.7670 C.3       1 XNS         0.0487
      2 O7         20.9030  -68.1540   18.3350 O.2       1 XNS        -0.3704
      3 C15        21.1560  -68.7920   19.3580 C.2       1 XNS         0.2335
      4 O8         21.8150  -69.9930   19.3540 O.3       1 XNS        -0.2802
      5 C16        22.1470  -70.3980   18.0200 C.3       1 XNS         0.0658
      6 C13        20.7560  -66.7280   20.8820 C.3       1 XNS        -0.0348
      7 C12        20.4520  -66.3860   22.3530 C.3       1 XNS        -0.0509
      8 C11        19.0810  -66.8750   22.8370 C.3       1 XNS        -0.0529
      9 C10        17.9060  -66.1570   22.1360 C.3       1 XNS        -0.0530
     10 C9         16.6020  -66.7540   22.6960 C.3       1 XNS        -0.0510
     11 C8         15.3200  -66.0500   22.2220 C.3       1 XNS        -0.0294
     12 C7         15.2810  -64.5750   22.7270 C.3       1 XNS         0.0508
     13 O1         14.0620  -63.9800   22.2660 O.3       1 XNS        -0.3487
     14 C1         13.6980  -62.5980   22.5930 C.3       1 XNS         0.1879
     15 C2         12.3790  -62.3170   21.9050 C.3       1 XNS         0.1341
     16 O2         11.9260  -60.9990   22.1630 O.3       1 XNS        -0.3841
     17 C3         12.5790  -62.3810   20.3950 C.3       1 XNS         0.1141
     18 O3         11.3510  -62.0510   19.7200 O.3       1 XNS        -0.3864
     19 C4         13.6060  -61.3150   20.0550 C.3       1 XNS         0.1119
     20 O4         13.8670  -61.4120   18.6490 O.3       1 XNS        -0.3865
     21 C5         14.8920  -61.5750   20.7660 C.3       1 XNS         0.1130
     22 O5         14.6700  -61.5640   22.1900 O.3       1 XNS        -0.3405
     23 C6         15.9290  -60.5270   20.3690 C.3       1 XNS         0.0730
     24 O6         15.4860  -59.2320   20.7580 O.3       1 XNS        -0.3924
     25 H1         21.5090  -68.6584   21.4893 H         1 XNS         0.0518
     26 H2         19.7755  -68.6469   21.0187 H         1 XNS         0.0518
     27 H3         22.6738  -71.3632   18.0503 H         1 XNS         0.0577
     28 H4         22.7965  -69.6401   17.5576 H         1 XNS         0.0577
     29 H5         21.2256  -70.5017   17.4282 H         1 XNS         0.0577
     30 H6         19.9748  -66.3118   20.2290 H         1 XNS         0.0291
     31 H7         21.7338  -66.3150   20.5933 H         1 XNS         0.0291
     32 H8         20.4899  -65.2928   22.4689 H         1 XNS         0.0267
     33 H9         21.2262  -66.8486   22.9828 H         1 XNS         0.0267
     34 H10        19.0063  -66.6958   23.9197 H         1 XNS         0.0265
     35 H11        19.0025  -67.9539   22.6376 H         1 XNS         0.0265
     36 H12        17.9589  -66.3218   21.0497 H         1 XNS         0.0265
     37 H13        17.9459  -65.0779   22.3456 H         1 XNS         0.0265
     38 H14        16.6407  -66.6935   23.7936 H         1 XNS         0.0266
     39 H15        16.5478  -67.8087   22.3885 H         1 XNS         0.0266
     40 H16        14.4456  -66.5893   22.6152 H         1 XNS         0.0287
     41 H17        15.2905  -66.0559   21.1224 H         1 XNS         0.0287
     42 H18        16.1419  -64.0203   22.3256 H         1 XNS         0.0561
     43 H19        15.3129  -64.5561   23.8264 H         1 XNS         0.0561
     44 H20        13.5669  -62.5281   23.6829 H         1 XNS         0.0937
     45 H21        11.6282  -63.0512   22.2326 H         1 XNS         0.0671
     46 H22        11.0989  -60.8568   21.7178 H         1 XNS         0.2101
     47 H23        12.9274  -63.3788   20.0902 H         1 XNS         0.0648
     48 H24        10.6760  -62.6699   19.9725 H         1 XNS         0.2100
     49 H25        13.2216  -60.3180   20.3161 H         1 XNS         0.0647
     50 H26        14.5083  -60.7563   18.4011 H         1 XNS         0.2100
     51 H27        15.2657  -62.5677   20.4747 H         1 XNS         0.0647
     52 H28        16.0719  -60.5507   19.2786 H         1 XNS         0.0584
     53 H29        16.8830  -60.7509   20.8688 H         1 XNS         0.0584
     54 H30        16.1370  -58.5872   20.5071 H         1 XNS         0.2095
@<TRIPOS>BOND
     1    1    3 1  
     2    1    6 1  
     3    3    2 2  
     4    3    4 1  
     5    4    5 1  
     6    6    7 1  
     7    7    8 1  
     8    8    9 1  
     9    9   10 1  
    10   10   11 1  
    11   11   12 1  
    12   12   13 1  
    13   13   14 1  
    14   14   15 1  
    15   14   22 1  
    16   15   16 1  
    17   15   17 1  
    18   17   18 1  
    19   17   19 1  
    20   19   20 1  
    21   19   21 1  
    22   21   22 1  
    23   21   23 1  
    24   23   24 1  
    25    1   25 1  
    26    1   26 1  
    27    5   27 1  
    28    5   28 1  
    29    5   29 1  
    30    6   30 1  
    31    6   31 1  
    32    7   32 1  
    33    7   33 1  
    34    8   34 1  
    35    8   35 1  
    36    9   36 1  
    37    9   37 1  
    38   10   38 1  
    39   10   39 1  
    40   11   40 1  
    41   11   41 1  
    42   12   42 1  
    43   12   43 1  
    44   14   44 1  
    45   15   45 1  
    46   16   46 1  
    47   17   47 1  
    48   18   48 1  
    49   19   49 1  
    50   20   50 1  
    51   21   51 1  
    52   23   52 1  
    53   23   53 1  
    54   24   54 1  
@<TRIPOS>SUBSTRUCTURE
     1 XNS         1

