### 
### Created by X-TOOL on Mon Sep 10 21:13:08 2018
### 

@<TRIPOS>MOLECULE
4avj_ligand
   50    52     1     0     0
SMALL
GAST_HUCK


@<TRIPOS>ATOM
      1 O42       -72.5050  -13.5670  -20.0440 O.3       1 J73        -0.3862
      2 C41       -71.5710  -14.4940  -19.9570 C.3       1 J73         0.0790
      3 C39       -70.4220  -14.5020  -20.9250 C.2       1 J73         0.0622
      4 N38       -69.9440  -13.4350  -21.6360 N.2       1 J73        -0.2242
      5 N37       -68.8620  -13.8810  -22.4120 N.2       1 J73        -0.1018
      6 C40       -69.6350  -15.6320  -21.2530 C.2       1 J73         0.0717
      7 N36       -68.6950  -15.2300  -22.1600 N.pl3     1 J73        -0.1794
      8 C35       -67.6890  -16.0760  -22.7630 C.3       1 J73         0.0834
      9 C34       -67.6980  -17.5580  -22.4730 C.3       1 J73         0.0063
     10 C16       -66.3710  -18.1870  -22.4430 C.ar      1 J73        -0.0509
     11 C17       -65.2910  -17.5630  -23.0820 C.ar      1 J73        -0.0686
     12 C18       -64.0030  -18.0960  -23.1030 C.ar      1 J73        -0.0395
     13 C13       -63.8110  -19.3190  -22.4350 C.ar      1 J73         0.0874
     14 C14       -64.9380  -19.9700  -21.7900 C.ar      1 J73        -0.0395
     15 C15       -66.1820  -19.4330  -21.7810 C.ar      1 J73        -0.0686
     16 O1        -62.6360  -19.9880  -22.3500 O.3       1 J73        -0.2897
     17 C1        -61.3190  -19.4260  -22.5670 C.3       1 J73         0.2082
     18 C2        -60.5200  -20.4710  -21.8420 C.3       1 J73         0.1383
     19 O2        -59.1730  -20.4540  -22.3360 O.3       1 J73        -0.3837
     20 C3        -60.6420  -20.2560  -20.3590 C.3       1 J73         0.1144
     21 O3        -59.9390  -21.2960  -19.7070 O.3       1 J73        -0.3864
     22 C4        -60.2420  -18.9650  -19.9730 C.3       1 J73         0.1119
     23 O4        -60.3270  -18.8360  -18.5870 O.3       1 J73        -0.3865
     24 C5        -61.1320  -17.9450  -20.6250 C.3       1 J73         0.1133
     25 O5        -61.1120  -18.1420  -22.1010 O.3       1 J73        -0.3370
     26 C6        -60.6620  -16.5640  -20.3580 C.3       1 J73         0.0730
     27 O6        -59.3680  -16.2860  -20.7740 O.3       1 J73        -0.3924
     28 H1        -73.1521  -13.7061  -19.3625 H         1 J73         0.2118
     29 H2        -72.0779  -15.4648  -20.0593 H         1 J73         0.0674
     30 H3        -71.1360  -14.4117  -18.9500 H         1 J73         0.0674
     31 H4        -69.7565  -16.6384  -20.8551 H         1 J73         0.0899
     32 H5        -66.7106  -15.6918  -22.4390 H         1 J73         0.0668
     33 H6        -67.7852  -15.9619  -23.8528 H         1 J73         0.0668
     34 H7        -68.2951  -18.0556  -23.2513 H         1 J73         0.0434
     35 H8        -68.1721  -17.7121  -21.4925 H         1 J73         0.0434
     36 H9        -65.4659  -16.6188  -23.5850 H         1 J73         0.0530
     37 H10       -63.1882  -17.5920  -23.6100 H         1 J73         0.0525
     38 H11       -64.7777  -20.9220  -21.2969 H         1 J73         0.0525
     39 H12       -67.0055  -19.9353  -21.2864 H         1 J73         0.0530
     40 H13       -61.0783  -19.4256  -23.6403 H         1 J73         0.0990
     41 H14       -60.9458  -21.4594  -22.0695 H         1 J73         0.0675
     42 H15       -58.6618  -21.1131  -21.8813 H         1 J73         0.2101
     43 H16       -61.7039  -20.3528  -20.0890 H         1 J73         0.0648
     44 H17       -60.3171  -22.1329  -19.9498 H         1 J73         0.2100
     45 H18       -59.2022  -18.7974  -20.2905 H         1 J73         0.0647
     46 H19       -60.0553  -17.9615  -18.3342 H         1 J73         0.2100
     47 H20       -62.1569  -18.0649  -20.2440 H         1 J73         0.0647
     48 H21       -60.7143  -16.3913  -19.2729 H         1 J73         0.0584
     49 H22       -61.3410  -15.8686  -20.8731 H         1 J73         0.0584
     50 H23       -59.1554  -15.3844  -20.5628 H         1 J73         0.2095
@<TRIPOS>BOND
     1    1    2 1  
     2    2    3 1  
     3    3    4 1  
     4    3    6 2  
     5    4    5 2  
     6    5    7 1  
     7    6    7 1  
     8    7    8 1  
     9    8    9 1  
    10    9   10 1  
    11   10   11 ar 
    12   10   15 ar 
    13   11   12 ar 
    14   12   13 ar 
    15   13   14 ar 
    16   13   16 1  
    17   14   15 ar 
    18   16   17 1  
    19   17   18 1  
    20   17   25 1  
    21   18   19 1  
    22   18   20 1  
    23   20   21 1  
    24   20   22 1  
    25   22   23 1  
    26   22   24 1  
    27   24   25 1  
    28   24   26 1  
    29   26   27 1  
    30    1   28 1  
    31    2   29 1  
    32    2   30 1  
    33    6   31 1  
    34    8   32 1  
    35    8   33 1  
    36    9   34 1  
    37    9   35 1  
    38   11   36 1  
    39   12   37 1  
    40   14   38 1  
    41   15   39 1  
    42   17   40 1  
    43   18   41 1  
    44   19   42 1  
    45   20   43 1  
    46   21   44 1  
    47   22   45 1  
    48   23   46 1  
    49   24   47 1  
    50   26   48 1  
    51   26   49 1  
    52   27   50 1  
@<TRIPOS>SUBSTRUCTURE
     1 J73         1

