### 
### Created by X-TOOL on Mon Sep 10 21:13:12 2018
### 

@<TRIPOS>MOLECULE
4avs_ligand
   21    21     1     0     0
SMALL
GAST_HUCK


@<TRIPOS>ATOM
      1 O10        16.5450   15.5850   58.4540 O.co2     1 N7P        -0.5666
      2 C1         16.3940   15.9630   57.2300 C.2       1 N7P         0.0603
      3 O11        15.4300   16.7020   56.9370 O.co2     1 N7P        -0.5666
      4 C2         17.3170   15.5830   56.1390 C.3       1 N7P         0.0971
      5 N6         18.6450   15.4350   56.6320 N.am      1 N7P        -0.2577
      6 C7         19.3880   16.4750   57.3780 C.2       1 N7P         0.1771
      7 O9         20.5370   16.2370   57.7540 O.2       1 N7P        -0.3971
      8 C8         18.7410   17.7790   57.6550 C.3       1 N7P         0.0259
      9 C5         19.1590   14.1440   56.3020 C.3       1 N7P         0.0361
     10 C4         18.2190   13.5700   55.2980 C.3       1 N7P        -0.0288
     11 C3         16.9150   14.2700   55.5660 C.3       1 N7P        -0.0159
     12 H          17.2931   16.3569   55.3577 H         1 N7P         0.0728
     13 H          19.4364   18.4218   58.2146 H         1 N7P         0.0467
     14 H          17.8308   17.6174   58.2511 H         1 N7P         0.0467
     15 H          18.4756   18.2658   56.7050 H         1 N7P         0.0467
     16 H          19.1961   13.5072   57.1981 H         1 N7P         0.0524
     17 H          20.1681   14.2328   55.8732 H         1 N7P         0.0524
     18 H          18.1142   12.4841   55.4387 H         1 N7P         0.0286
     19 H          18.5683   13.7753   54.2753 H         1 N7P         0.0286
     20 H          16.3477   14.4083   54.6338 H         1 N7P         0.0306
     21 H          16.3069   13.7005   56.2843 H         1 N7P         0.0306
@<TRIPOS>BOND
     1    1    2 ar 
     2    2    3 ar 
     3    2    4 1  
     4    4    5 1  
     5    4   11 1  
     6    5    6 am 
     7    5    9 1  
     8    6    7 2  
     9    6    8 1  
    10    9   10 1  
    11   10   11 1  
    12    4   12 1  
    13    8   13 1  
    14    8   14 1  
    15    8   15 1  
    16    9   16 1  
    17    9   17 1  
    18   10   18 1  
    19   10   19 1  
    20   11   20 1  
    21   11   21 1  
@<TRIPOS>SUBSTRUCTURE
     1 N7P         1

