### 
### Created by X-TOOL on Mon Sep 10 21:13:14 2018
### 

@<TRIPOS>MOLECULE
4avt_ligand
   46    47     1     0     0
SMALL
GAST_HUCK


@<TRIPOS>ATOM
      1 N1         56.5780  193.0840   81.4710 N.am      1 GHE        -0.2575
      2 C2         55.9580  191.8060   81.5230 C.3       1 GHE         0.0971
      3 C3         56.7440  190.9890   82.4420 C.3       1 GHE        -0.0159
      4 C4         57.5970  191.9530   83.1870 C.3       1 GHE        -0.0288
      5 C5         57.6990  193.1610   82.3320 C.3       1 GHE         0.0362
      6 C1         55.9450  191.1830   80.1650 C.2       1 GHE         0.0603
      7 O2         55.0640  190.3240   79.8820 O.co2     1 GHE        -0.5666
      8 O1         56.7810  191.4880   79.2670 O.co2     1 GHE        -0.5666
      9 C6         56.1120  194.1640   80.6130 C.2       1 GHE         0.1802
     10 O6         55.1510  193.9630   79.9100 O.2       1 GHE        -0.3968
     11 C7         56.7970  195.5170   80.5500 C.3       1 GHE         0.0377
     12 C8         56.8060  196.1200   79.1480 C.3       1 GHE        -0.0340
     13 C9         56.8340  195.1610   77.9690 C.3       1 GHE        -0.0340
     14 C10        56.8710  195.7140   76.5420 C.3       1 GHE         0.0377
     15 C11        56.8780  197.2190   76.4600 C.2       1 GHE         0.1802
     16 O11        57.4430  197.8570   77.3150 O.2       1 GHE        -0.3968
     17 N2         56.2300  197.9550   75.4410 N.am      1 GHE        -0.2575
     18 C15        55.5150  197.4200   74.3550 C.3       1 GHE         0.0971
     19 C14        55.3760  198.5530   73.4110 C.3       1 GHE        -0.0159
     20 C13        55.5900  199.8110   74.1820 C.3       1 GHE        -0.0288
     21 C12        56.2620  199.3770   75.4270 C.3       1 GHE         0.0362
     22 C16        54.1840  196.9170   74.7310 C.2       1 GHE         0.0603
     23 O16        53.5380  196.2190   73.9270 O.co2     1 GHE        -0.5666
     24 O17        53.6490  197.1660   75.8380 O.co2     1 GHE        -0.5666
     25 H          54.9260  191.9021   81.8913 H         1 GHE         0.0728
     26 H          57.3665  190.2728   81.8857 H         1 GHE         0.0306
     27 H          56.0850  190.4428   83.1329 H         1 GHE         0.0306
     28 H          58.5947  191.5239   83.3615 H         1 GHE         0.0286
     29 H          57.1331  192.2065   84.1516 H         1 GHE         0.0286
     30 H          57.6571  194.0743   82.9436 H         1 GHE         0.0524
     31 H          58.6346  193.1496   81.7536 H         1 GHE         0.0524
     32 H          57.8375  195.3984   80.8865 H         1 GHE         0.0502
     33 H          56.2699  196.2078   81.2245 H         1 GHE         0.0502
     34 H          57.6963  196.7614   79.0715 H         1 GHE         0.0291
     35 H          55.9003  196.7364   79.0492 H         1 GHE         0.0291
     36 H          55.9325  194.5353   78.0453 H         1 GHE         0.0291
     37 H          57.7282  194.5321   78.0906 H         1 GHE         0.0291
     38 H          55.9846  195.3440   76.0060 H         1 GHE         0.0502
     39 H          57.7803  195.3380   76.0503 H         1 GHE         0.0502
     40 H          56.0881  196.6012   73.8955 H         1 GHE         0.0728
     41 H          54.3690  198.5511   72.9684 H         1 GHE         0.0306
     42 H          56.1278  198.4702   72.6123 H         1 GHE         0.0306
     43 H          54.6289  200.2958   74.4084 H         1 GHE         0.0286
     44 H          56.2284  200.5076   73.6189 H         1 GHE         0.0286
     45 H          57.3031  199.7319   75.4381 H         1 GHE         0.0524
     46 H          55.7293  199.7758   76.3029 H         1 GHE         0.0524
@<TRIPOS>BOND
     1    1    2 1  
     2    1    5 1  
     3    1    9 am 
     4    2    3 1  
     5    2    6 1  
     6    3    4 1  
     7    4    5 1  
     8    6    7 ar 
     9    6    8 ar 
    10    9   10 2  
    11    9   11 1  
    12   11   12 1  
    13   12   13 1  
    14   13   14 1  
    15   14   15 1  
    16   15   16 2  
    17   15   17 am 
    18   17   18 1  
    19   17   21 1  
    20   18   19 1  
    21   18   22 1  
    22   19   20 1  
    23   20   21 1  
    24   22   23 ar 
    25   22   24 ar 
    26    2   25 1  
    27    3   26 1  
    28    3   27 1  
    29    4   28 1  
    30    4   29 1  
    31    5   30 1  
    32    5   31 1  
    33   11   32 1  
    34   11   33 1  
    35   12   34 1  
    36   12   35 1  
    37   13   36 1  
    38   13   37 1  
    39   14   38 1  
    40   14   39 1  
    41   18   40 1  
    42   19   41 1  
    43   19   42 1  
    44   20   43 1  
    45   20   44 1  
    46   21   45 1  
    47   21   46 1  
@<TRIPOS>SUBSTRUCTURE
     1 GHE         1

