### 
### Created by X-TOOL on Mon Sep 10 21:13:09 2018
### 

@<TRIPOS>MOLECULE
4avu_ligand
   24    26     1     0     0
SMALL
GAST_HUCK


@<TRIPOS>ATOM
      1 OAA       -38.4580  -10.1120   14.7400 O.2       1 LDR        -0.3848
      2 CAB       -40.3050  -10.8660    9.2110 C.ar      1 LDR        -0.0732
      3 CAC       -41.3330  -12.9620   15.8850 C.ar      1 LDR        -0.0588
      4 CAD       -41.2890  -11.8210    9.4370 C.ar      1 LDR        -0.0743
      5 CAE       -42.1160  -13.5460   14.9020 C.ar      1 LDR        -0.0599
      6 CAF       -39.5580  -10.3540   10.2580 C.ar      1 LDR        -0.0367
      7 CAG       -40.3530  -12.0150   15.5750 C.ar      1 LDR        -0.0440
      8 CAH       -41.5370  -12.2850   10.7240 C.ar      1 LDR        -0.0642
      9 CAI       -41.9750  -13.2000   13.5610 C.ar      1 LDR        -0.0527
     10 NAJ       -39.0390  -10.2690   12.5700 N.am      1 LDR        -0.2292
     11 CAK       -39.1790  -10.6290   13.8590 C.2       1 LDR         0.2274
     12 CAL       -39.7630  -10.7840   11.5620 C.ar      1 LDR         0.0817
     13 CAM       -40.1780  -11.6440   14.2500 C.ar      1 LDR         0.0584
     14 CAN       -40.8160  -11.7920   11.8090 C.ar      1 LDR         0.0104
     15 CAO       -41.0360  -12.2420   13.2020 C.ar      1 LDR        -0.0044
     16 H1        -40.1199  -10.5174    8.2014 H         1 LDR         0.0589
     17 H2        -41.4844  -13.2467   16.9199 H         1 LDR         0.0609
     18 H3        -41.8667  -12.2065    8.6047 H         1 LDR         0.0501
     19 H4        -42.8542  -14.2883   15.1834 H         1 LDR         0.0644
     20 H5        -38.8006   -9.6051   10.0564 H         1 LDR         0.0513
     21 H6        -39.7408  -11.5784   16.3558 H         1 LDR         0.0661
     22 H7        -42.2996  -13.0385   10.8847 H         1 LDR         0.0592
     23 H8        -42.5915  -13.6732   12.8053 H         1 LDR         0.0612
     24 H9        -38.3537   -9.5752   12.3486 H         1 LDR         0.2319
@<TRIPOS>BOND
     1   11    1 2  
     2    2    4 ar 
     3    6    2 ar 
     4    3    5 ar 
     5    7    3 ar 
     6    4    8 ar 
     7    5    9 ar 
     8   12    6 ar 
     9   13    7 ar 
    10    8   14 ar 
    11    9   15 ar 
    12   11   10 am 
    13   10   12 1  
    14   11   13 1  
    15   12   14 ar 
    16   13   15 ar 
    17   14   15 1  
    18    2   16 1  
    19    3   17 1  
    20    4   18 1  
    21    5   19 1  
    22    6   20 1  
    23    7   21 1  
    24    8   22 1  
    25    9   23 1  
    26   10   24 1  
@<TRIPOS>SUBSTRUCTURE
     1 LDR         1

