### 
### Created by X-TOOL on Mon Sep 10 21:13:10 2018
### 

@<TRIPOS>MOLECULE
4avw_ligand
   21    23     1     0     0
SMALL
GAST_HUCK


@<TRIPOS>ATOM
      1 CAO       -39.9220  -12.7980   13.3380 C.ar      1 G18        -0.0279
      2 CAN       -39.1160  -12.2410   14.4460 C.ar      1 G18         0.0482
      3 CAH       -39.2910  -12.7010   15.7440 C.ar      1 G18        -0.0519
      4 CAD       -40.2380  -13.6960   16.0000 C.ar      1 G18        -0.0657
      5 CAF       -41.0090  -14.2430   14.9490 C.ar      1 G18        -0.0676
      6 CAL       -40.8600  -13.7850   13.6270 C.ar      1 G18        -0.0632
      7 CAC       -39.8750  -11.9170    9.7320 C.2       1 G18        -0.0230
      8 CAG       -40.3570  -12.6320   10.8260 C.2       1 G18        -0.0882
      9 CAM       -39.7010  -12.2690   12.0610 C.2       1 G18        -0.0038
     10 CAJ       -38.6860  -11.2400   11.8440 C.2       1 G18         0.1537
     11 NAC       -37.9600  -10.7620   12.8610 N.am      1 G18        -0.2086
     12 SAK       -38.6350  -10.7760   10.1980 S.3       1 G18        -0.0103
     13 CAK       -38.1120  -11.1870   14.1210 C.2       1 G18         0.2271
     14 OAB       -37.3920  -10.7150   15.0270 O.2       1 G18        -0.3907
     15 H1        -38.6973  -12.2913   16.5531 H         1 G18         0.0641
     16 H2        -40.3828  -14.0517   17.0137 H         1 G18         0.0552
     17 H3        -41.7258  -15.0271   15.1648 H         1 G18         0.0623
     18 H4        -41.4740  -14.1996   12.8357 H         1 G18         0.0551
     19 H5        -40.2277  -12.0523    8.7106 H         1 G18         0.0535
     20 H6        -41.1428  -13.3829   10.7578 H         1 G18         0.0357
     21 H7        -37.2754  -10.0580   12.6719 H         1 G18         0.2461
@<TRIPOS>BOND
     1    1    2 ar 
     2    1    6 ar 
     3    9    1 1  
     4    2    3 ar 
     5    2   13 1  
     6    3    4 ar 
     7    5    4 ar 
     8    6    5 ar 
     9    8    7 2  
    10    7   12 1  
    11    8    9 1  
    12    9   10 2  
    13   10   11 1  
    14   10   12 1  
    15   11   13 am 
    16   13   14 2  
    17    3   15 1  
    18    4   16 1  
    19    5   17 1  
    20    6   18 1  
    21    7   19 1  
    22    8   20 1  
    23   11   21 1  
@<TRIPOS>SUBSTRUCTURE
     1 G18         1

