### 
### Created by X-TOOL on Mon Sep 10 21:13:10 2018
### 

@<TRIPOS>MOLECULE
4aw5_ligand
   69    74     1     0     0
SMALL
GAST_HUCK


@<TRIPOS>ATOM
      1 O1          9.2440   -6.8380   12.5310 O.2       1 30K        -0.3663
      2 C11        10.3060   -6.1610   12.2720 C.2       1 30K         0.2345
      3 N1         10.4140   -4.8640   12.6420 N.am      1 30K        -0.2376
      4 C8         11.6720   -4.4220   12.2650 C.ar      1 30K         0.0655
      5 C9         12.2820   -3.1690   12.3890 C.ar      1 30K        -0.0473
      6 C7         12.4320   -5.4940   11.5910 C.ar      1 30K         0.0050
      7 C6         13.6950   -5.2900   11.0950 C.ar      1 30K        -0.0482
      8 C5         14.2570   -4.0310   11.2570 C.ar      1 30K         0.0251
      9 N4         15.4580   -3.7740   10.7370 N.pl3     1 30K        -0.3274
     10 C23        16.0290   -4.5710    9.6750 C.3       1 30K         0.0421
     11 C24        15.3760   -4.1780    8.3320 C.3       1 30K         0.0095
     12 C25        16.1050   -4.7260    7.0960 C.3       1 30K        -0.0299
     13 N5         17.5640   -4.6030    7.1520 N.4       1 30K         0.2351
     14 C29        18.1690   -5.3920    6.0780 C.3       1 30K        -0.0348
     15 C30        19.6780   -5.3060    5.9600 C.3       1 30K        -0.0245
     16 C26        18.0770   -5.0900    8.4300 C.3       1 30K        -0.0299
     17 C27        17.5220   -4.3400    9.6340 C.3       1 30K         0.0095
     18 C4         13.5690   -2.9720   11.8880 C.ar      1 30K        -0.0538
     19 C10        11.5400   -6.6830   11.5660 C.2       1 30K         0.0687
     20 C2         11.9180   -8.0070   11.0050 C.2       1 30K         0.0557
     21 C1         13.2520   -8.2490   10.3440 C.ar      1 30K        -0.0065
     22 C12        13.3590   -8.2070    8.9410 C.ar      1 30K        -0.0519
     23 C13        14.5830   -8.4000    8.3050 C.ar      1 30K        -0.0599
     24 C14        15.7040   -8.6450    9.0790 C.ar      1 30K        -0.0606
     25 C15        15.6060   -8.6920   10.4830 C.ar      1 30K        -0.0599
     26 C16        14.3790   -8.5090   11.1160 C.ar      1 30K        -0.0519
     27 C3         10.9730   -9.1360   10.9720 C.2       1 30K         0.1420
     28 N2         11.3700  -10.3240   10.4060 N.2       1 30K        -0.3056
     29 C17        10.3250  -11.1610   10.4760 C.ar      1 30K         0.0268
     30 C19        10.0270  -12.5120   10.0940 C.ar      1 30K        -0.0330
     31 C18         9.2610  -10.3870   11.1130 C.ar      1 30K         0.0744
     32 N3          9.6760   -9.1610   11.3960 N.pl3     1 30K        -0.2540
     33 C22         7.9560  -10.9530   11.3610 C.ar      1 30K        -0.0436
     34 C21         7.7350  -12.2810   10.9760 C.ar      1 30K        -0.0424
     35 C20         8.7630  -13.0370   10.3700 C.ar      1 30K         0.0770
     36 O2          8.5070  -14.3270    9.9620 O.3       1 30K        -0.3286
     37 C28         8.2220  -14.4610    8.5660 C.3       1 30K         0.0572
     38 H1          9.7122   -4.3220   13.1043 H         1 30K         0.2228
     39 H2         11.7562   -2.3538   12.8729 H         1 30K         0.0485
     40 H3         14.2355   -6.0848   10.5938 H         1 30K         0.0477
     41 H4         15.9984   -2.9784   11.1057 H         1 30K         0.1713
     42 H5         15.8342   -5.6356    9.8713 H         1 30K         0.0545
     43 H6         15.3588   -3.0802    8.2644 H         1 30K         0.0338
     44 H7         14.3453   -4.5621    8.3236 H         1 30K         0.0338
     45 H8         15.7467   -4.1765    6.2130 H         1 30K         0.0815
     46 H9         15.8530   -5.7917    6.9918 H         1 30K         0.0815
     47 H10        17.8164   -3.6336    7.0400 H         1 30K         0.2033
     48 H11        17.7369   -5.0513    5.1255 H         1 30K         0.0812
     49 H12        17.9039   -6.4465    6.2446 H         1 30K         0.0812
     50 H13        20.0169   -5.9358    5.1242 H         1 30K         0.0281
     51 H14        20.1395   -5.6575    6.8946 H         1 30K         0.0281
     52 H15        19.9725   -4.2623    5.7755 H         1 30K         0.0281
     53 H16        19.1719   -4.9842    8.4286 H         1 30K         0.0815
     54 H17        17.8114   -6.1528    8.5294 H         1 30K         0.0815
     55 H18        17.9848   -4.7195   10.5569 H         1 30K         0.0338
     56 H19        17.7316   -3.2648    9.5340 H         1 30K         0.0338
     57 H20        14.0427   -2.0017   11.9836 H         1 30K         0.0508
     58 H21        12.4729   -8.0211    8.3449 H         1 30K         0.0634
     59 H22        14.6563   -8.3591    7.2242 H         1 30K         0.0621
     60 H23        16.6642   -8.8018    8.6010 H         1 30K         0.0627
     61 H24        16.4946   -8.8724   11.0771 H         1 30K         0.0621
     62 H25        14.3036   -8.5684   12.1957 H         1 30K         0.0634
     63 H26        10.7753  -13.1183    9.5965 H         1 30K         0.0458
     64 H27         9.1408   -8.3991   11.8364 H         1 30K         0.2275
     65 H28         7.1727  -10.3687   11.8301 H         1 30K         0.0531
     66 H29         6.7647  -12.7338   11.1448 H         1 30K         0.0503
     67 H30         8.0311  -15.5184    8.3306 H         1 30K         0.0573
     68 H31         9.0821  -14.1045    7.9803 H         1 30K         0.0573
     69 H32         7.3337  -13.8631    8.3140 H         1 30K         0.0573
@<TRIPOS>BOND
     1    1    2 2  
     2    2    3 am 
     3    2   19 1  
     4    3    4 1  
     5    4    5 ar 
     6    4    6 ar 
     7    5   18 ar 
     8    6    7 ar 
     9    6   19 1  
    10    7    8 ar 
    11    8    9 1  
    12    8   18 ar 
    13    9   10 1  
    14   10   11 1  
    15   10   17 1  
    16   11   12 1  
    17   12   13 1  
    18   13   14 1  
    19   13   16 1  
    20   14   15 1  
    21   16   17 1  
    22   19   20 2  
    23   20   21 1  
    24   20   27 1  
    25   21   22 ar 
    26   21   26 ar 
    27   22   23 ar 
    28   23   24 ar 
    29   24   25 ar 
    30   25   26 ar 
    31   27   28 2  
    32   27   32 1  
    33   28   29 1  
    34   29   30 ar 
    35   29   31 ar 
    36   30   35 ar 
    37   31   32 1  
    38   31   33 ar 
    39   33   34 ar 
    40   34   35 ar 
    41   35   36 1  
    42   36   37 1  
    43    3   38 1  
    44    5   39 1  
    45    7   40 1  
    46    9   41 1  
    47   10   42 1  
    48   11   43 1  
    49   11   44 1  
    50   12   45 1  
    51   12   46 1  
    52   13   47 1  
    53   14   48 1  
    54   14   49 1  
    55   15   50 1  
    56   15   51 1  
    57   15   52 1  
    58   16   53 1  
    59   16   54 1  
    60   17   55 1  
    61   17   56 1  
    62   18   57 1  
    63   22   58 1  
    64   23   59 1  
    65   24   60 1  
    66   25   61 1  
    67   26   62 1  
    68   30   63 1  
    69   32   64 1  
    70   33   65 1  
    71   34   66 1  
    72   37   67 1  
    73   37   68 1  
    74   37   69 1  
@<TRIPOS>SUBSTRUCTURE
     1 30K         1

