### 
### Created by X-TOOL on Sun Sep  9 21:52:20 2018
### 

@<TRIPOS>MOLECULE
4aw8_ligand
   42    42     1     0     0
SMALL
GAST_HUCK


@<TRIPOS>ATOM
      1 C1         18.7160   22.6150   -8.3090 C.3       1 NON         0.0365
      2 O1         19.1680   21.8640   -9.4330 O.3       1 NON        -0.3807
      3 C2         18.1360   21.0470   -9.9750 C.3       1 NON         0.0707
      4 C3         17.8530   21.5210  -11.3900 C.3       1 NON         0.0716
      5 O2         16.6870   20.8550  -11.8610 O.3       1 NON        -0.3694
      6 C4         16.7520   19.4390  -11.6220 C.3       1 NON         0.1102
      7 C5         16.5740   18.7090  -12.9510 C.3       1 NON         0.0765
      8 O3         16.0220   17.4070  -12.7530 O.3       1 NON        -0.3749
      9 C6         15.0750   17.0940  -13.7700 C.3       1 NON         0.0711
     10 C7         13.7650   17.7320  -13.3410 C.3       1 NON         0.0711
     11 O4         13.9210   17.9910  -11.9460 O.3       1 NON        -0.3749
     12 C8         15.2450   18.5010  -11.7590 C.3       1 NON         0.0765
     13 C9         15.1870   20.0070  -11.5690 C.3       1 NON         0.1102
     14 O5         14.8080   20.2810  -10.2220 O.3       1 NON        -0.3694
     15 C10        15.0840   21.6490   -9.8670 C.3       1 NON         0.0716
     16 C11        14.0540   22.5410  -10.5430 C.3       1 NON         0.0707
     17 O6         13.5170   23.4730   -9.6030 O.3       1 NON        -0.3807
     18 C12        14.2060   23.4000   -8.3940 C.3       1 NON         0.0365
     19 H1         19.5421   23.2301   -7.9229 H         1 NON         0.0524
     20 H2         18.3725   21.9270   -7.5225 H         1 NON         0.0524
     21 H3         17.8847   23.2675   -8.6142 H         1 NON         0.0524
     22 H4         17.2271   21.1389   -9.3623 H         1 NON         0.0582
     23 H5         18.4621   19.9966   -9.9919 H         1 NON         0.0582
     24 H6         18.7068   21.2802  -12.0404 H         1 NON         0.0583
     25 H7         17.6861   22.6083  -11.3914 H         1 NON         0.0583
     26 H8         17.3419   18.9706  -10.8204 H         1 NON         0.0646
     27 H9         17.5536   18.6129  -13.4420 H         1 NON         0.0586
     28 H10        15.8975   19.2920  -13.5932 H         1 NON         0.0586
     29 H11        14.9570   16.0040  -13.8586 H         1 NON         0.0583
     30 H12        15.4020   17.5072  -14.7356 H         1 NON         0.0583
     31 H13        12.9244   17.0441  -13.5151 H         1 NON         0.0583
     32 H14        13.5924   18.6686  -13.8914 H         1 NON         0.0583
     33 H15        15.8562   18.2665  -12.6430 H         1 NON         0.0586
     34 H16        15.6943   18.0365  -10.8689 H         1 NON         0.0586
     35 H17        14.7756   20.6969  -12.3205 H         1 NON         0.0646
     36 H18        16.0932   21.9241  -10.2072 H         1 NON         0.0583
     37 H19        15.0195   21.7692   -8.7755 H         1 NON         0.0583
     38 H20        13.2402   21.9182  -10.9428 H         1 NON         0.0582
     39 H21        14.5335   23.0906  -11.3664 H         1 NON         0.0582
     40 H22        13.7788   24.1237   -7.6843 H         1 NON         0.0524
     41 H23        15.2675   23.6343   -8.5622 H         1 NON         0.0524
     42 H24        14.1155   22.3845   -7.9811 H         1 NON         0.0524
@<TRIPOS>BOND
     1    1    2 1  
     2    2    3 1  
     3    3    4 1  
     4    4    5 1  
     5    5    6 1  
     6    6    7 1  
     7    6   13 1  
     8    7    8 1  
     9    8    9 1  
    10    9   10 1  
    11   10   11 1  
    12   11   12 1  
    13   12   13 1  
    14   13   14 1  
    15   14   15 1  
    16   15   16 1  
    17   16   17 1  
    18   17   18 1  
    19    1   19 1  
    20    1   20 1  
    21    1   21 1  
    22    3   22 1  
    23    3   23 1  
    24    4   24 1  
    25    4   25 1  
    26    6   26 1  
    27    7   27 1  
    28    7   28 1  
    29    9   29 1  
    30    9   30 1  
    31   10   31 1  
    32   10   32 1  
    33   12   33 1  
    34   12   34 1  
    35   13   35 1  
    36   15   36 1  
    37   15   37 1  
    38   16   38 1  
    39   16   39 1  
    40   18   40 1  
    41   18   41 1  
    42   18   42 1  
@<TRIPOS>SUBSTRUCTURE
     1 NON         1

