### 
### Created by X-TOOL on Mon Sep 10 21:13:11 2018
### 

@<TRIPOS>MOLECULE
4awf_ligand
   21    21     1     0     0
SMALL
GAST_HUCK


@<TRIPOS>ATOM
      1 O8         -9.3610    8.9600    3.4800 O.2       1 XI7        -0.3543
      2 C9         -9.0570    8.2600    2.5790 C.2       1 XI7         0.1887
      3 C10        -9.6090    6.9270    2.6380 C.2       1 XI7         0.1273
      4 O11        -9.3820    6.1600    1.6710 O.co2     1 XI7        -0.5463
      5 O10       -10.3000    6.6470    3.6370 O.co2     1 XI7        -0.5463
      6 C8         -8.1920    8.5970    1.3790 C.3       1 XI7         0.1052
      7 C7         -7.5330    9.9500    1.2700 C.2       1 XI7         0.1513
      8 C1         -6.4340   10.0590    0.2560 C.ar      1 XI7         0.0350
      9 C6         -6.4370    9.2470   -0.8680 C.ar      1 XI7        -0.0429
     10 C5         -5.4180    9.3400   -1.8000 C.ar      1 XI7        -0.0559
     11 C4         -4.3640   10.2310   -1.5920 C.ar      1 XI7        -0.0572
     12 C3         -4.3380   11.0280   -0.4440 C.ar      1 XI7        -0.0559
     13 C2         -5.3810   10.9360    0.4810 C.ar      1 XI7        -0.0429
     14 O14        -7.8120   10.9020    1.9700 O.2       1 XI7        -0.3749
     15 H          -8.8789    8.5628    0.5334 H         1 XI7         0.0716
     16 H          -7.3597    7.8960    1.4412 H         1 XI7         0.0716
     17 H          -7.2458    8.5319   -1.0183 H         1 XI7         0.0672
     18 H          -5.4386    8.7183   -2.6951 H         1 XI7         0.0630
     19 H          -3.5608   10.3054   -2.3251 H         1 XI7         0.0655
     20 H          -3.5103   11.7160   -0.2718 H         1 XI7         0.0630
     21 H          -5.3682   11.5528    1.3796 H         1 XI7         0.0672
@<TRIPOS>BOND
     1    1    2 2  
     2    2    3 1  
     3    2    6 1  
     4    3    4 ar 
     5    3    5 ar 
     6    6    7 1  
     7    7    8 1  
     8    7   14 2  
     9    8    9 ar 
    10    8   13 ar 
    11    9   10 ar 
    12   10   11 ar 
    13   11   12 ar 
    14   12   13 ar 
    15    6   15 1  
    16    6   16 1  
    17    9   17 1  
    18   10   18 1  
    19   11   19 1  
    20   12   20 1  
    21   13   21 1  
@<TRIPOS>SUBSTRUCTURE
     1 XI7         1

