### 
### Created by X-TOOL on Mon Sep 10 21:13:14 2018
### 

@<TRIPOS>MOLECULE
4awi_ligand
   55    58     1     0     0
SMALL
GAST_HUCK


@<TRIPOS>ATOM
      1 C01        24.5540    7.4680   29.9190 C.3       1 AQ2        -0.0487
      2 C02        23.6040    6.4800   30.5670 C.3       1 AQ2         0.0137
      3 C03        24.3420    5.4220   31.3590 C.3       1 AQ2        -0.0487
      4 C04        22.5710    7.1730   31.4350 C.2       1 AQ2         0.0504
      5 C05        22.4840    8.4790   31.7360 C.2       1 AQ2        -0.0571
      6 C06        21.3360    8.6340   32.5910 C.ar      1 AQ2        -0.0039
      7 C07        20.6710    9.6740   33.2670 C.ar      1 AQ2        -0.0179
      8 C08        19.5360    9.3920   34.0290 C.ar      1 AQ2        -0.0479
      9 C09        19.1030    8.0850   34.0990 C.ar      1 AQ2        -0.0099
     10 N01        19.7060    7.0610   33.4780 N.ar      1 AQ2        -0.2920
     11 C10        20.7960    7.3540   32.7470 C.ar      1 AQ2         0.1303
     12 N02        21.5620    6.4670   32.0380 N.pl3     1 AQ2        -0.2584
     13 C11        21.1230   11.1000   33.2080 C.ar      1 AQ2        -0.0173
     14 C12        22.4750   11.4340   33.1340 C.ar      1 AQ2        -0.0516
     15 C13        22.8900   12.7550   33.0920 C.ar      1 AQ2        -0.0341
     16 C14        21.9450   13.7690   33.1400 C.ar      1 AQ2         0.1085
     17 C15        20.5990   13.4670   33.2380 C.ar      1 AQ2        -0.0341
     18 C16        20.1990   12.1420   33.2740 C.ar      1 AQ2        -0.0516
     19 S01        22.4590   15.4570   33.1110 S.o2      1 AQ2         0.0686
     20 O01        23.8790   15.4870   33.2930 O.2       1 AQ2        -0.1502
     21 O02        21.6180   16.1930   34.0050 O.2       1 AQ2        -0.1502
     22 N1         22.1540   16.0440   31.6400 N.am      1 AQ2        -0.2442
     23 C17        23.1410   16.0280   30.5520 C.3       1 AQ2         0.0408
     24 C18        22.8200   14.8950   29.5940 C.3       1 AQ2        -0.0138
     25 C19        23.9010   14.7550   28.5320 C.3       1 AQ2         0.0675
     26 S          23.9210   16.2210   27.5520 S.o2      1 AQ2        -0.0309
     27 O03        25.0470   16.1710   26.6600 O.2       1 AQ2        -0.1744
     28 O1         22.6150   16.4240   26.9860 O.2       1 AQ2        -0.1744
     29 C20        24.2120   17.4570   28.7750 C.3       1 AQ2         0.0675
     30 C1         23.1240   17.3680   29.8390 C.3       1 AQ2        -0.0138
     31 H          25.2834    6.9239   29.3010 H         1 AQ2         0.0259
     32 H          25.0841    8.0331   30.6998 H         1 AQ2         0.0259
     33 H          23.9838    8.1638   29.2860 H         1 AQ2         0.0259
     34 H          23.0641    5.9686   29.7564 H         1 AQ2         0.0510
     35 H          23.6165    4.7291   31.8101 H         1 AQ2         0.0259
     36 H          24.9320    5.9032   32.1529 H         1 AQ2         0.0259
     37 H          25.0137    4.8648   30.6895 H         1 AQ2         0.0259
     38 H          23.1532    9.2690   31.3983 H         1 AQ2         0.0193
     39 H          19.0083   10.1809   34.5526 H         1 AQ2         0.0592
     40 H          18.2211    7.8722   34.6924 H         1 AQ2         0.0713
     41 H          21.4076    5.4509   31.9700 H         1 AQ2         0.2300
     42 H          23.2164   10.6436   33.1088 H         1 AQ2         0.0628
     43 H          23.9450   12.9943   33.0222 H         1 AQ2         0.0638
     44 H          19.8630   14.2614   33.2862 H         1 AQ2         0.0638
     45 H          19.1434   11.9094   33.3554 H         1 AQ2         0.0628
     46 H          21.2520   16.4367   31.4604 H         1 AQ2         0.1676
     47 H          24.1429   15.8626   30.9748 H         1 AQ2         0.0512
     48 H          21.8578   15.1013   29.1026 H         1 AQ2         0.0299
     49 H          22.7484   13.9547   30.1603 H         1 AQ2         0.0299
     50 H          23.6832   13.8858   27.8940 H         1 AQ2         0.0500
     51 H          24.8798   14.6191   29.0153 H         1 AQ2         0.0500
     52 H          24.1892   18.4520   28.3066 H         1 AQ2         0.0500
     53 H          25.1958   17.2925   29.2388 H         1 AQ2         0.0500
     54 H          23.2829   18.1668   30.5784 H         1 AQ2         0.0299
     55 H          22.1439   17.5031   29.3582 H         1 AQ2         0.0299
@<TRIPOS>BOND
     1    1    2 1  
     2    2    3 1  
     3    2    4 1  
     4    4    5 2  
     5    4   12 1  
     6    5    6 1  
     7    6    7 ar 
     8    6   11 ar 
     9    7    8 ar 
    10    7   13 1  
    11    8    9 ar 
    12    9   10 ar 
    13   10   11 ar 
    14   11   12 1  
    15   13   14 ar 
    16   13   18 ar 
    17   14   15 ar 
    18   15   16 ar 
    19   16   17 ar 
    20   16   19 1  
    21   17   18 ar 
    22   19   20 2  
    23   19   21 2  
    24   19   22 am 
    25   22   23 1  
    26   23   24 1  
    27   23   30 1  
    28   24   25 1  
    29   25   26 1  
    30   26   27 2  
    31   26   28 2  
    32   26   29 1  
    33   29   30 1  
    34    1   31 1  
    35    1   32 1  
    36    1   33 1  
    37    2   34 1  
    38    3   35 1  
    39    3   36 1  
    40    3   37 1  
    41    5   38 1  
    42    8   39 1  
    43    9   40 1  
    44   12   41 1  
    45   14   42 1  
    46   15   43 1  
    47   17   44 1  
    48   18   45 1  
    49   22   46 1  
    50   23   47 1  
    51   24   48 1  
    52   24   49 1  
    53   25   50 1  
    54   25   51 1  
    55   29   52 1  
    56   29   53 1  
    57   30   54 1  
    58   30   55 1  
@<TRIPOS>SUBSTRUCTURE
     1 AQ2         1

