### 
### Created by X-TOOL on Mon Sep 10 21:13:11 2018
### 

@<TRIPOS>MOLECULE
4awj_ligand
   27    27     1     0     0
SMALL
GAST_HUCK


@<TRIPOS>ATOM
      1 O01        -9.9740   31.7170    0.9150 O.3       1 V6F        -0.3896
      2 C02        -8.6380   31.4420    1.2880 C.3       1 V6F         0.0799
      3 C03        -8.2020   32.5390    2.2520 C.3       1 V6F         0.0158
      4 C04        -7.6640   33.6770    1.3810 C.3       1 V6F         0.1360
      5 C05        -6.3270   34.1510    1.9590 C.2       1 V6F         0.2017
      6 N06        -6.4410   35.1790    2.9160 N.am      1 V6F        -0.2881
      7 C07        -5.2150   35.6780    3.5060 C.3       1 V6F         0.0196
      8 O08        -5.2520   33.7000    1.6380 O.2       1 V6F        -0.3945
      9 N09        -7.4510   33.0820    0.0410 N.am      1 V6F        -0.2494
     10 C10        -7.0030   33.8680   -1.0410 C.2       1 V6F         0.1777
     11 C11        -6.8150   33.1780   -2.3750 C.3       1 V6F         0.0260
     12 O12        -6.7820   35.0570   -0.8780 O.2       1 V6F        -0.3970
     13 C13        -7.7710   31.6520    0.0360 C.3       1 V6F         0.0628
     14 H1        -10.2771   31.0487    0.3117 H         1 V6F         0.2099
     15 H2         -8.5263   30.4349    1.7162 H         1 V6F         0.0616
     16 H3         -7.4144   32.1667    2.9237 H         1 V6F         0.0338
     17 H4         -9.0585   32.8864    2.8483 H         1 V6F         0.0338
     18 H5         -8.3774   34.5129    1.3323 H         1 V6F         0.0803
     19 H6         -7.3323   35.5494    3.1776 H         1 V6F         0.1848
     20 H7         -5.4529   36.4714    4.2299 H         1 V6F         0.0484
     21 H8         -4.5669   36.0850    2.7158 H         1 V6F         0.0484
     22 H9         -4.6946   34.8565    4.0202 H         1 V6F         0.0484
     23 H10        -6.4651   33.9083   -3.1194 H         1 V6F         0.0467
     24 H11        -7.7729   32.7491   -2.7042 H         1 V6F         0.0467
     25 H12        -6.0703   32.3752   -2.2709 H         1 V6F         0.0467
     26 H13        -8.3297   31.3827   -0.8725 H         1 V6F         0.0550
     27 H14        -6.8530   31.0489    0.0942 H         1 V6F         0.0550
@<TRIPOS>BOND
     1    1    2 1  
     2    2    3 1  
     3    2   13 1  
     4    3    4 1  
     5    4    5 1  
     6    4    9 1  
     7    5    6 am 
     8    5    8 2  
     9    6    7 1  
    10    9   10 am 
    11    9   13 1  
    12   10   11 1  
    13   10   12 2  
    14    1   14 1  
    15    2   15 1  
    16    3   16 1  
    17    3   17 1  
    18    4   18 1  
    19    6   19 1  
    20    7   20 1  
    21    7   21 1  
    22    7   22 1  
    23   11   23 1  
    24   11   24 1  
    25   11   25 1  
    26   13   26 1  
    27   13   27 1  
@<TRIPOS>SUBSTRUCTURE
     1 V6F         1

