### 
### Created by X-TOOL on Mon Sep 10 21:13:11 2018
### 

@<TRIPOS>MOLECULE
4awk_ligand
   55    57     1     0     0
SMALL
GAST_HUCK


@<TRIPOS>ATOM
      1 O32        61.0650   17.1710   17.2850 O.2       1 CI1        -0.1532
      2 S30        60.2050   16.0440   17.4920 S.o2      1 CI1         0.0511
      3 O31        60.3910   15.1540   16.3810 O.2       1 CI1        -0.1532
      4 CP         60.6740   15.2690   18.9030 C.3       1 CI1         0.1181
      5 CGB        59.9570   13.9490   19.1040 C.ar      1 CI1        -0.0204
      6 CD2        58.8870   13.8770   19.9910 C.ar      1 CI1        -0.0587
      7 CE2        58.2110   12.6730   20.1810 C.ar      1 CI1        -0.0685
      8 CZ         58.6150   11.5290   19.4900 C.ar      1 CI1        -0.0687
      9 CE1        59.6930   11.5920   18.6100 C.ar      1 CI1        -0.0685
     10 CD1        60.3600   12.8020   18.4170 C.ar      1 CI1        -0.0587
     11 NJ         58.7460   16.5170   17.5690 N.am      1 CI1        -0.2372
     12 CI         58.4820   17.9200   17.9420 C.3       1 CI1         0.0291
     13 CK         57.2740   18.4540   17.1880 C.3       1 CI1        -0.0363
     14 CG         56.1260   17.4700   17.3620 C.3       1 CI1        -0.0376
     15 CH         57.6660   15.5480   17.3230 C.3       1 CI1         0.0420
     16 CF         56.4360   16.1530   16.6440 C.3       1 CI1         0.0633
     17 CB         56.6730   16.3700   15.1580 C.2       1 CI1         0.1546
     18 O13        57.5930   15.8030   14.5690 O.2       1 CI1        -0.3284
     19 CM         55.7060   17.2520   14.4610 C.3       1 CI1         0.1057
     20 CA         55.5160   17.3310   13.1320 C.2       1 CI1         0.1888
     21 O14        56.2610   16.6570   12.2760 O.2       1 CI1        -0.3542
     22 CE         54.4650   18.2390   12.6590 C.2       1 CI1         0.1273
     23 OAN        54.0060   19.0690   13.4710 O.co2     1 CI1        -0.5463
     24 OAO        54.0830   18.2390   11.4770 O.co2     1 CI1        -0.5463
     25 CO         55.2800   15.1420   16.6860 C.3       1 CI1        -0.0068
     26 CGA        54.6030   15.0480   18.0320 C.ar      1 CI1        -0.0434
     27 CDB        53.6410   15.9910   18.4040 C.ar      1 CI1        -0.0599
     28 CEB        53.0230   15.9020   19.6470 C.ar      1 CI1        -0.0546
     29 CDA        54.9390   14.0070   18.8960 C.ar      1 CI1        -0.0599
     30 CEA        54.3120   13.9190   20.1360 C.ar      1 CI1        -0.0546
     31 CZB        53.3590   14.8640   20.5090 C.ar      1 CI1         0.0330
     32 CL         52.5650   14.7260   22.1060 Cl        1 CI1        -0.0771
     33 H1         60.4513   15.9254   19.7571 H         1 CI1         0.0682
     34 H2         61.7566   15.0795   18.8587 H         1 CI1         0.0682
     35 H3         58.5779   14.7613   20.5366 H         1 CI1         0.0557
     36 H4         57.3716   12.6248   20.8652 H         1 CI1         0.0599
     37 H5         58.0900   10.5922   19.6382 H         1 CI1         0.0559
     38 H6         60.0125   10.7038   18.0770 H         1 CI1         0.0599
     39 H7         61.1965   12.8521   17.7293 H         1 CI1         0.0557
     40 H8         59.3621   18.5319   17.6951 H         1 CI1         0.0478
     41 H9         58.2877   17.9766   19.0232 H         1 CI1         0.0478
     42 H10        57.5176   18.5556   16.1201 H         1 CI1         0.0279
     43 H11        56.9869   19.4353   17.5936 H         1 CI1         0.0279
     44 H12        55.2085   17.9055   16.9395 H         1 CI1         0.0257
     45 H13        55.9781   17.2720   18.4339 H         1 CI1         0.0257
     46 H14        57.3550   15.1229   18.2887 H         1 CI1         0.0469
     47 H15        58.0586   14.7472   16.6792 H         1 CI1         0.0469
     48 H16        55.9711   18.2726   14.7741 H         1 CI1         0.0717
     49 H17        54.7230   16.9848   14.8760 H         1 CI1         0.0717
     50 H18        55.6774   14.1494   16.4274 H         1 CI1         0.0417
     51 H19        54.5292   15.4421   15.9402 H         1 CI1         0.0417
     52 H20        53.3763   16.7922   17.7235 H         1 CI1         0.0557
     53 H21        52.2836   16.6377   19.9420 H         1 CI1         0.0606
     54 H22        55.6816   13.2728   18.6052 H         1 CI1         0.0557
     55 H23        54.5664   13.1121   20.8137 H         1 CI1         0.0606
@<TRIPOS>BOND
     1    1    2 2  
     2    2    3 2  
     3    2    4 1  
     4    2   11 am 
     5    4    5 1  
     6    5    6 ar 
     7    5   10 ar 
     8    6    7 ar 
     9    7    8 ar 
    10    8    9 ar 
    11    9   10 ar 
    12   11   12 1  
    13   11   15 1  
    14   12   13 1  
    15   13   14 1  
    16   14   16 1  
    17   15   16 1  
    18   16   17 1  
    19   16   25 1  
    20   17   18 2  
    21   17   19 1  
    22   19   20 1  
    23   20   21 2  
    24   20   22 1  
    25   22   23 ar 
    26   22   24 ar 
    27   25   26 1  
    28   26   27 ar 
    29   26   29 ar 
    30   27   28 ar 
    31   28   31 ar 
    32   29   30 ar 
    33   30   31 ar 
    34   31   32 1  
    35    4   33 1  
    36    4   34 1  
    37    6   35 1  
    38    7   36 1  
    39    8   37 1  
    40    9   38 1  
    41   10   39 1  
    42   12   40 1  
    43   12   41 1  
    44   13   42 1  
    45   13   43 1  
    46   14   44 1  
    47   14   45 1  
    48   15   46 1  
    49   15   47 1  
    50   19   48 1  
    51   19   49 1  
    52   25   50 1  
    53   25   51 1  
    54   27   52 1  
    55   28   53 1  
    56   29   54 1  
    57   30   55 1  
@<TRIPOS>SUBSTRUCTURE
     1 CI1         1

