### 
### Created by X-TOOL on Mon Sep 10 21:13:11 2018
### 

@<TRIPOS>MOLECULE
4awm_ligand
   51    54     1     0     0
SMALL
GAST_HUCK


@<TRIPOS>ATOM
      1 O1         13.5850  -32.1570   16.3220 O.3       1 KDH        -0.3417
      2 C3         12.5790  -32.2250   17.2250 C.ar      1 KDH         0.1015
      3 C6         11.3030  -31.7200   16.9390 C.ar      1 KDH         0.1362
      4 O7         11.0020  -31.1340   15.7460 O.3       1 KDH        -0.3466
      5 C9         10.3180  -31.8120   17.9010 C.ar      1 KDH         0.1015
      6 O10         9.0670  -31.3420   17.6630 O.3       1 KDH        -0.3417
      7 C12        10.5890  -32.3880   19.1280 C.ar      1 KDH        -0.0481
      8 C14        11.8490  -32.8940   19.4150 C.ar      1 KDH        -0.0349
      9 C15        12.1240  -33.5240   20.7320 C.3       1 KDH         0.1350
     10 C20        10.8110  -33.4030   22.8090 C.ar      1 KDH         0.0794
     11 C21        10.1280  -32.5980   23.7130 C.ar      1 KDH        -0.0224
     12 C24         9.5350  -33.1600   24.8350 C.ar      1 KDH         0.0640
     13 C26         9.6190  -34.5390   25.0450 C.ar      1 KDH        -0.0228
     14 C29        10.3080  -35.3450   24.1400 C.ar      1 KDH         0.0729
     15 C31        10.9060  -34.7790   23.0200 C.ar      1 KDH         0.0065
     16 C33        11.7120  -34.9950   20.6900 C.3       1 KDH         0.1292
     17 C36        10.0900  -35.2650   18.8830 C.2       1 KDH         0.2505
     18 C38         8.6970  -34.9830   18.4490 C.ar      1 KDH         0.0337
     19 C39         8.4910  -34.4370   17.1980 C.ar      1 KDH        -0.0312
     20 C41         7.6240  -35.2710   19.3010 C.ar      1 KDH        -0.0312
     21 C01        11.6750  -35.6520   22.0470 C.3       1 KDH         0.0069
     22 O01        11.3830  -32.7990   21.7210 O.3       1 KDH        -0.3105
     23 O02         8.8710  -32.3520   25.7180 O.3       1 KDH        -0.3427
     24 O03        10.4010  -36.6840   24.3660 O.3       1 KDH        -0.3424
     25 C4         12.8470  -32.8140   18.4600 C.ar      1 KDH        -0.0481
     26 O35        10.3600  -35.0940   20.2800 O.3       1 KDH        -0.2697
     27 O37        10.9590  -35.6360   18.1270 O.2       1 KDH        -0.3624
     28 C43         6.3210  -35.0100   18.8730 C.ar      1 KDH         0.1141
     29 O44         5.2530  -35.2870   19.6890 O.3       1 KDH        -0.3389
     30 C46         6.1200  -34.4570   17.6090 C.ar      1 KDH         0.1498
     31 O47         4.8480  -34.1830   17.2060 O.3       1 KDH        -0.3381
     32 C49         7.2010  -34.1720   16.7700 C.ar      1 KDH         0.1141
     33 O50         7.0470  -33.6180   15.5300 O.3       1 KDH        -0.3389
     34 H          14.3763  -32.5514   16.6959 H         1 KDH         0.2436
     35 H          11.5672  -30.3692   15.6148 H         1 KDH         0.2377
     36 H           8.5185  -31.4890   18.4370 H         1 KDH         0.2436
     37 H           9.8024  -32.4456   19.8803 H         1 KDH         0.0365
     38 H          13.1857  -33.4885   20.9764 H         1 KDH         0.0819
     39 H          10.0580  -31.5240   23.5406 H         1 KDH         0.0359
     40 H           9.1445  -34.9856   25.9188 H         1 KDH         0.0359
     41 H          12.4431  -35.4659   20.0329 H         1 KDH         0.0714
     42 H           9.3394  -34.2156   16.5504 H         1 KDH         0.0477
     43 H           7.8042  -35.6949   20.2889 H         1 KDH         0.0477
     44 H          11.1821  -36.6207   21.9650 H         1 KDH         0.0390
     45 H          12.6939  -35.7856   22.4105 H         1 KDH         0.0390
     46 H           8.9166  -31.4424   25.4142 H         1 KDH         0.2455
     47 H           9.9353  -36.9037   25.1762 H         1 KDH         0.2451
     48 H          13.8399  -33.2103   18.6726 H         1 KDH         0.0365
     49 H           4.4386  -35.0477   19.2406 H         1 KDH         0.2437
     50 H           4.8671  -33.8092   16.3220 H         1 KDH         0.2422
     51 H           6.5080  -34.1974   14.9866 H         1 KDH         0.2437
@<TRIPOS>BOND
     1    2    1 1  
     2    2    3 ar 
     3   25    2 ar 
     4    3    4 1  
     5    5    3 ar 
     6    5    6 1  
     7    7    5 ar 
     8    8    7 ar 
     9    9    8 1  
    10    8   25 ar 
    11   16    9 1  
    12    9   22 1  
    13   10   11 ar 
    14   15   10 ar 
    15   22   10 1  
    16   11   12 ar 
    17   13   12 ar 
    18   12   23 1  
    19   14   13 ar 
    20   15   14 ar 
    21   14   24 1  
    22   21   15 1  
    23   16   21 1  
    24   26   16 1  
    25   17   18 1  
    26   17   26 1  
    27   17   27 2  
    28   18   19 ar 
    29   18   20 ar 
    30   19   32 ar 
    31   20   28 ar 
    32   28   29 1  
    33   28   30 ar 
    34   30   31 1  
    35   30   32 ar 
    36   32   33 1  
    37    1   34 1  
    38    4   35 1  
    39    6   36 1  
    40    7   37 1  
    41    9   38 1  
    42   11   39 1  
    43   13   40 1  
    44   16   41 1  
    45   19   42 1  
    46   20   43 1  
    47   21   44 1  
    48   21   45 1  
    49   23   46 1  
    50   24   47 1  
    51   25   48 1  
    52   29   49 1  
    53   31   50 1  
    54   33   51 1  
@<TRIPOS>SUBSTRUCTURE
     1 KDH         1

