### 
### Created by X-TOOL on Mon Sep 10 21:13:11 2018
### 

@<TRIPOS>MOLECULE
4awo_ligand
   74    78     1     0     0
SMALL
GAST_HUCK


@<TRIPOS>ATOM
      1 C1        -12.4130  -18.4330  -13.4730 C.3       1 99B         0.0323
      2 N1        -11.8470  -19.8200  -13.4220 N.pl3     1 99B        -0.3187
      3 O1         -9.2640  -18.9960  -18.0480 O.2       1 99B        -0.3868
      4 C2        -13.8250  -18.3280  -14.0950 C.3       1 99B        -0.0337
      5 N2        -10.9820  -20.1240  -19.0090 N.am      1 99B        -0.2837
      6 O2         -9.5380  -16.1540  -27.7600 O.2       1 99B        -0.3815
      7 C3        -14.7960  -19.3820  -13.6050 C.3       1 99B        -0.0632
      8 N3        -10.6780  -20.1420  -23.0280 N.pl3     1 99B        -0.2851
      9 O3        -13.1150  -22.2690  -12.8600 O.2       1 99B        -0.3906
     10 C4        -12.5220  -17.8390  -12.0620 C.3       1 99B        -0.0427
     11 N4         -9.6050  -18.6750  -24.5420 N.ar      1 99B        -0.2775
     12 C5        -11.4180  -20.5080  -14.5390 C.ar      1 99B         0.0581
     13 N5        -11.4510  -23.7850  -12.8800 N.am      1 99B        -0.3019
     14 C6        -10.9510  -19.8110  -15.6440 C.ar      1 99B        -0.0248
     15 C7        -10.5460  -20.5750  -16.7440 C.ar      1 99B         0.0442
     16 C8        -10.1240  -19.8460  -17.9970 C.2       1 99B         0.2004
     17 C9        -10.8570  -19.6320  -20.4000 C.3       1 99B         0.0456
     18 C10        -9.5150  -19.2600  -21.0810 C.3       1 99B        -0.0066
     19 C11        -9.4940  -20.4210  -22.1590 C.3       1 99B         0.0444
     20 C12       -11.8660  -20.5680  -22.3070 C.3       1 99B         0.0444
     21 C13       -12.1250  -19.4110  -21.2160 C.3       1 99B        -0.0066
     22 C14       -11.4730  -21.9460  -21.6780 C.3       1 99B        -0.0275
     23 C15        -9.8800  -21.8430  -21.5870 C.3       1 99B        -0.0275
     24 C16       -10.7270  -19.3150  -24.1740 C.ar      1 99B         0.1195
     25 C17        -9.5460  -17.8530  -25.5800 C.ar      1 99B         0.0155
     26 C18       -10.7370  -17.6000  -26.2570 C.ar      1 99B         0.0462
     27 C19       -10.6490  -16.6160  -27.4190 C.2       1 99B         0.1339
     28 C20       -12.0090  -16.1600  -28.0020 C.3       1 99B         0.0334
     29 C21       -12.1400  -14.6500  -28.0650 C.3       1 99B        -0.0327
     30 C22       -12.0110  -15.4470  -29.3820 C.3       1 99B        -0.0327
     31 C23       -11.9970  -19.0850  -24.7850 C.ar      1 99B        -0.0102
     32 C24       -11.9580  -18.1910  -25.8750 C.ar      1 99B        -0.0358
     33 C25       -11.4420  -21.9060  -14.5090 C.ar      1 99B         0.0646
     34 C26       -12.0220  -22.6580  -13.3060 C.2       1 99B         0.1956
     35 C27       -11.0590  -22.6670  -15.6160 C.ar      1 99B        -0.0462
     36 C28       -10.6380  -21.9860  -16.7350 C.ar      1 99B        -0.0330
     37 C29       -10.2260  -22.8490  -17.9450 C.3       1 99B        -0.0326
     38 H1        -11.7250  -17.8180  -14.0716 H         1 99B         0.0545
     39 H2        -11.7744  -20.2840  -12.5053 H         1 99B         0.1763
     40 H3        -13.7300  -18.4265  -15.1864 H         1 99B         0.0284
     41 H4        -14.2375  -17.3380  -13.8507 H         1 99B         0.0284
     42 H5        -11.7645  -20.7101  -18.7986 H         1 99B         0.1846
     43 H6        -15.7711  -19.2375  -14.0932 H         1 99B         0.0230
     44 H7        -14.9149  -19.2927  -12.5151 H         1 99B         0.0230
     45 H8        -14.4074  -20.3812  -13.8509 H         1 99B         0.0230
     46 H9        -12.9389  -16.8229  -12.1232 H         1 99B         0.0251
     47 H10       -11.5232  -17.7985  -11.6030 H         1 99B         0.0251
     48 H11       -13.1821  -18.4698  -11.4486 H         1 99B         0.0251
     49 H12       -10.5708  -24.0731  -13.2571 H         1 99B         0.1804
     50 H13       -11.9029  -24.3422  -12.1834 H         1 99B         0.1804
     51 H14       -10.9023  -18.7281  -15.6546 H         1 99B         0.0560
     52 H15       -10.7655  -20.6670  -20.7611 H         1 99B         0.0557
     53 H16        -8.6638  -19.3191  -20.3868 H         1 99B         0.0310
     54 H17        -9.5433  -18.2619  -21.5425 H         1 99B         0.0310
     55 H18        -8.5369  -20.4430  -22.7006 H         1 99B         0.0559
     56 H19       -12.7393  -20.6789  -22.9665 H         1 99B         0.0559
     57 H20       -12.1646  -18.4088  -21.6678 H         1 99B         0.0310
     58 H21       -13.0385  -19.5847  -20.6283 H         1 99B         0.0310
     59 H22       -11.7810  -22.7806  -22.3249 H         1 99B         0.0288
     60 H23       -11.9209  -22.0701  -20.6810 H         1 99B         0.0288
     61 H24        -9.5516  -21.9349  -20.5412 H         1 99B         0.0288
     62 H25        -9.4121  -22.6357  -22.1893 H         1 99B         0.0288
     63 H26        -8.6120  -17.3975  -25.8886 H         1 99B         0.0841
     64 H27       -12.8340  -16.8218  -27.6997 H         1 99B         0.0519
     65 H28       -11.3088  -14.0139  -27.7266 H         1 99B         0.0293
     66 H29       -13.0964  -14.1723  -27.8058 H         1 99B         0.0293
     67 H30       -12.8748  -15.5469  -30.0556 H         1 99B         0.0293
     68 H31       -11.0873  -15.3885  -29.9764 H         1 99B         0.0293
     69 H32       -12.9107  -19.5562  -24.4412 H         1 99B         0.0622
     70 H33       -12.8666  -17.9586  -26.4186 H         1 99B         0.0750
     71 H34       -11.0921  -23.7503  -15.5943 H         1 99B         0.0584
     72 H35        -9.9110  -22.1950  -18.7715 H         1 99B         0.0380
     73 H36       -11.0814  -23.4609  -18.2673 H         1 99B         0.0380
     74 H37        -9.3917  -23.5065  -17.6594 H         1 99B         0.0380
@<TRIPOS>BOND
     1    2    1 1  
     2    1    4 1  
     3    1   10 1  
     4   12    2 1  
     5   16    3 2  
     6    4    7 1  
     7   16    5 am 
     8    5   17 1  
     9   27    6 2  
    10   19    8 1  
    11   20    8 1  
    12    8   24 1  
    13   34    9 2  
    14   24   11 ar 
    15   11   25 ar 
    16   12   14 ar 
    17   33   12 ar 
    18   34   13 am 
    19   14   15 ar 
    20   15   16 1  
    21   15   36 ar 
    22   17   18 1  
    23   17   21 1  
    24   18   19 1  
    25   19   23 1  
    26   21   20 1  
    27   20   22 1  
    28   22   23 1  
    29   24   31 ar 
    30   25   26 ar 
    31   26   27 1  
    32   32   26 ar 
    33   27   28 1  
    34   28   29 1  
    35   28   30 1  
    36   30   29 1  
    37   31   32 ar 
    38   33   34 1  
    39   33   35 ar 
    40   35   36 ar 
    41   36   37 1  
    42    1   38 1  
    43    2   39 1  
    44    4   40 1  
    45    4   41 1  
    46    5   42 1  
    47    7   43 1  
    48    7   44 1  
    49    7   45 1  
    50   10   46 1  
    51   10   47 1  
    52   10   48 1  
    53   13   49 1  
    54   13   50 1  
    55   14   51 1  
    56   17   52 1  
    57   18   53 1  
    58   18   54 1  
    59   19   55 1  
    60   20   56 1  
    61   21   57 1  
    62   21   58 1  
    63   22   59 1  
    64   22   60 1  
    65   23   61 1  
    66   23   62 1  
    67   25   63 1  
    68   28   64 1  
    69   29   65 1  
    70   29   66 1  
    71   30   67 1  
    72   30   68 1  
    73   31   69 1  
    74   32   70 1  
    75   35   71 1  
    76   37   72 1  
    77   37   73 1  
    78   37   74 1  
@<TRIPOS>SUBSTRUCTURE
     1 99B         1

