### 
### Created by X-TOOL on Mon Sep 10 21:13:10 2018
### 

@<TRIPOS>MOLECULE
4awp_ligand
   71    75     1     0     0
SMALL
GAST_HUCK


@<TRIPOS>ATOM
      1 C15        -9.8730  -21.9070  -19.5100 C.3       1 99A        -0.0297
      2 C8        -10.2370  -21.0340  -18.3060 C.ar      1 99A        -0.0271
      3 C9        -10.7150  -21.6760  -17.1640 C.ar      1 99A        -0.0416
      4 C10       -11.0590  -20.9240  -16.0380 C.ar      1 99A         0.0485
      5 C14       -11.6930  -21.6410  -14.8590 C.2       1 99A         0.1989
      6 O2        -12.8380  -21.2720  -14.5610 O.2       1 99A        -0.3870
      7 N2        -11.0600  -22.6620  -14.3070 N.am      1 99A        -0.3008
      8 C11       -10.9500  -19.5100  -16.0340 C.ar      1 99A        -0.0271
      9 C13       -11.3330  -18.6370  -14.8370 C.3       1 99A        -0.0297
     10 C12       -10.4540  -18.8820  -17.1540 C.ar      1 99A        -0.0415
     11 C7        -10.0970  -19.6180  -18.2950 C.ar      1 99A         0.0487
     12 C6         -9.6140  -18.8190  -19.5350 C.2       1 99A         0.2016
     13 O1         -8.7160  -17.9980  -19.5620 O.2       1 99A        -0.3868
     14 N1        -10.4410  -19.0370  -20.5670 N.am      1 99A        -0.2837
     15 C5        -10.4420  -18.5540  -21.9250 C.3       1 99A         0.0456
     16 C30       -11.8180  -18.5430  -22.6700 C.3       1 99A        -0.0066
     17 C4         -9.1470  -18.2840  -22.6780 C.3       1 99A        -0.0066
     18 C1         -9.1930  -19.4580  -23.7340 C.3       1 99A         0.0443
     19 C2         -9.5940  -20.9120  -23.2290 C.3       1 99A        -0.0275
     20 C3        -11.1310  -20.9770  -23.2140 C.3       1 99A        -0.0275
     21 C29       -11.6110  -19.6240  -23.7660 C.3       1 99A         0.0443
     22 N3        -10.4160  -19.1230  -24.4860 N.pl3     1 99A        -0.2853
     23 C16       -10.4570  -18.2910  -25.6250 C.ar      1 99A         0.1191
     24 C17       -11.6770  -17.9900  -26.2420 C.ar      1 99A        -0.0105
     25 C18       -11.7010  -17.1650  -27.3590 C.ar      1 99A        -0.0346
     26 N5         -9.3210  -17.6980  -26.0690 N.ar      1 99A        -0.2779
     27 C28        -9.3170  -16.9190  -27.1330 C.ar      1 99A         0.0165
     28 C19       -10.5020  -16.6060  -27.8230 C.ar      1 99A         0.0632
     29 C20       -10.4630  -15.6920  -29.0500 C.2       1 99A         0.2048
     30 O3         -9.3920  -15.2130  -29.4260 O.2       1 99A        -0.3876
     31 N4        -11.6490  -15.5220  -29.6860 N.am      1 99A        -0.2756
     32 C21       -11.7970  -14.7440  -30.9350 C.3       1 99A         0.0638
     33 C22       -11.7020  -13.2200  -30.8190 C.ar      1 99A        -0.0211
     34 C23       -11.4130  -12.5030  -32.0050 C.ar      1 99A        -0.0584
     35 C24       -11.3080  -11.1210  -31.9570 C.ar      1 99A        -0.0685
     36 C25       -11.5520  -10.4630  -30.7400 C.ar      1 99A        -0.0687
     37 C26       -11.8520  -11.1630  -29.5630 C.ar      1 99A        -0.0685
     38 C27       -11.9490  -12.5590  -29.6060 C.ar      1 99A        -0.0584
     39 H1        -10.0704  -22.9623  -19.2707 H         1 99A         0.0392
     40 H2         -8.8067  -21.7782  -19.7474 H         1 99A         0.0392
     41 H3        -10.4804  -21.6078  -20.3769 H         1 99A         0.0392
     42 H4        -10.8193  -22.7549  -17.1501 H         1 99A         0.0600
     43 H5        -11.4675  -23.1420  -13.5301 H         1 99A         0.1807
     44 H6        -10.1737  -22.9542  -14.6663 H         1 99A         0.1807
     45 H7        -11.1575  -17.5794  -15.0834 H         1 99A         0.0392
     46 H8        -10.7202  -18.9175  -13.9676 H         1 99A         0.0392
     47 H9        -12.3966  -18.7864  -14.5995 H         1 99A         0.0392
     48 H10       -10.3374  -17.8043  -17.1550 H         1 99A         0.0600
     49 H11       -11.2012  -19.6510  -20.3546 H         1 99A         0.1846
     50 H12       -10.5316  -17.5029  -21.6134 H         1 99A         0.0557
     51 H13       -12.0217  -17.5582  -23.1156 H         1 99A         0.0310
     52 H14       -12.6401  -18.8158  -21.9920 H         1 99A         0.0310
     53 H15        -8.2687  -18.3610  -22.0202 H         1 99A         0.0310
     54 H16        -9.1557  -17.2973  -23.1641 H         1 99A         0.0310
     55 H17        -8.2711  -19.4833  -24.3335 H         1 99A         0.0559
     56 H18        -9.1992  -21.0821  -22.2165 H         1 99A         0.0288
     57 H19        -9.1907  -21.6736  -23.9126 H         1 99A         0.0288
     58 H20       -11.4985  -21.1245  -22.1878 H         1 99A         0.0288
     59 H21       -11.4862  -21.7993  -23.8525 H         1 99A         0.0288
     60 H22       -12.5023  -19.7369  -24.4007 H         1 99A         0.0559
     61 H23       -12.6005  -18.3997  -25.8490 H         1 99A         0.0621
     62 H24       -12.6359  -16.9558  -27.8661 H         1 99A         0.0748
     63 H25        -8.3769  -16.5096  -27.4847 H         1 99A         0.0838
     64 H26       -12.4646  -15.9441  -29.2903 H         1 99A         0.1869
     65 H27       -12.7825  -14.9837  -31.3607 H         1 99A         0.0683
     66 H28       -11.0084  -15.0740  -31.6272 H         1 99A         0.0683
     67 H29       -11.2750  -13.0296  -32.9424 H         1 99A         0.0557
     68 H30       -11.0420  -10.5577  -32.8441 H         1 99A         0.0599
     69 H31       -11.5069   -9.3803  -30.7101 H         1 99A         0.0559
     70 H32       -12.0069  -10.6303  -28.6317 H         1 99A         0.0599
     71 H33       -12.2108  -13.1204  -28.7164 H         1 99A         0.0557
@<TRIPOS>BOND
     1    1    2 1  
     2    2    3 ar 
     3    2   11 ar 
     4    3    4 ar 
     5    4    5 1  
     6    4    8 ar 
     7    5    6 2  
     8    5    7 am 
     9    8    9 1  
    10    8   10 ar 
    11   10   11 ar 
    12   11   12 1  
    13   12   13 2  
    14   12   14 am 
    15   14   15 1  
    16   15   16 1  
    17   15   17 1  
    18   16   21 1  
    19   17   18 1  
    20   18   19 1  
    21   18   22 1  
    22   19   20 1  
    23   20   21 1  
    24   21   22 1  
    25   22   23 1  
    26   23   24 ar 
    27   23   26 ar 
    28   24   25 ar 
    29   25   28 ar 
    30   26   27 ar 
    31   27   28 ar 
    32   28   29 1  
    33   29   30 2  
    34   29   31 am 
    35   31   32 1  
    36   32   33 1  
    37   33   34 ar 
    38   33   38 ar 
    39   34   35 ar 
    40   35   36 ar 
    41   36   37 ar 
    42   37   38 ar 
    43    1   39 1  
    44    1   40 1  
    45    1   41 1  
    46    3   42 1  
    47    7   43 1  
    48    7   44 1  
    49    9   45 1  
    50    9   46 1  
    51    9   47 1  
    52   10   48 1  
    53   14   49 1  
    54   15   50 1  
    55   16   51 1  
    56   16   52 1  
    57   17   53 1  
    58   17   54 1  
    59   18   55 1  
    60   19   56 1  
    61   19   57 1  
    62   20   58 1  
    63   20   59 1  
    64   21   60 1  
    65   24   61 1  
    66   25   62 1  
    67   27   63 1  
    68   31   64 1  
    69   32   65 1  
    70   32   66 1  
    71   34   67 1  
    72   35   68 1  
    73   36   69 1  
    74   37   70 1  
    75   38   71 1  
@<TRIPOS>SUBSTRUCTURE
     1 99A         1

