### 
### Created by X-TOOL on Mon Sep 10 21:13:11 2018
### 

@<TRIPOS>MOLECULE
4awq_ligand
   68    72     1     0     0
SMALL
GAST_HUCK


@<TRIPOS>ATOM
      1 C20        -3.9120    5.4300    1.3370 C.3       1 592        -0.0293
      2 C13        -3.7550    4.0100    0.7610 C.ar      1 592         0.0039
      3 C14        -3.9880    2.9010    1.5940 C.ar      1 592         0.0979
      4 O2         -4.3300    3.2070    2.8830 O.3       1 592        -0.3239
      5 C19        -4.6800    2.1600    3.7490 C.3       1 592         0.0578
      6 C15        -3.8580    1.5790    1.1330 C.ar      1 592        -0.0352
      7 C16        -3.5590    1.3490   -0.2100 C.ar      1 592        -0.0720
      8 C1         -3.3250    2.4370   -1.0470 C.ar      1 592        -0.0597
      9 C12        -3.4570    3.7530   -0.5790 C.ar      1 592         0.0427
     10 C10        -3.2170    4.8950   -1.5650 C.2       1 592         0.1976
     11 O1         -2.3640    5.7480   -1.3680 O.2       1 592        -0.3887
     12 N1         -4.0030    4.8290   -2.6540 N.am      1 592        -0.2843
     13 C4         -3.9700    5.7980   -3.7550 C.3       1 592         0.0456
     14 C5         -2.6360    5.7390   -4.5990 C.3       1 592        -0.0066
     15 C3         -5.2270    5.5630   -4.6840 C.3       1 592        -0.0066
     16 C2         -5.0020    4.4430   -5.7550 C.3       1 592         0.0443
     17 C8         -4.5990    3.1240   -5.1460 C.3       1 592        -0.0275
     18 C7         -3.0430    3.2230   -5.1030 C.3       1 592        -0.0275
     19 C6         -2.6520    4.6090   -5.6440 C.3       1 592         0.0443
     20 N4         -3.8360    4.9150   -6.4890 N.pl3     1 592        -0.2853
     21 C21        -3.8800    5.7400   -7.6010 C.ar      1 592         0.1191
     22 C26        -5.1130    6.0120   -8.2490 C.ar      1 592        -0.0105
     23 C25        -5.1160    6.8580   -9.3490 C.ar      1 592        -0.0346
     24 N2         -2.7370    6.3510   -8.0200 N.ar      1 592        -0.2779
     25 C23        -2.6980    7.1440   -9.0980 C.ar      1 592         0.0165
     26 C24        -3.8930    7.4400   -9.7670 C.ar      1 592         0.0632
     27 C27        -3.8420    8.3160  -10.9840 C.2       1 592         0.2048
     28 O3         -2.7770    8.7960  -11.3660 O.2       1 592        -0.3876
     29 N3         -5.0430    8.5070  -11.5980 N.am      1 592        -0.2756
     30 C11        -5.1160    9.2520  -12.8890 C.3       1 592         0.0638
     31 C17        -5.0190   10.7640  -12.7700 C.ar      1 592        -0.0211
     32 C18        -4.7600   11.5310  -13.9090 C.ar      1 592        -0.0584
     33 C22        -4.6820   12.9200  -13.8150 C.ar      1 592        -0.0685
     34 C28        -4.8850   13.5300  -12.5690 C.ar      1 592        -0.0687
     35 C9         -5.1180   12.7830  -11.4190 C.ar      1 592        -0.0685
     36 C29        -5.2050   11.3760  -11.5160 C.ar      1 592        -0.0584
     37 H1         -4.1447    5.3666    2.4102 H         1 592         0.0382
     38 H2         -4.7290    5.9493    0.8147 H         1 592         0.0382
     39 H3         -2.9744    5.9880    1.1975 H         1 592         0.0382
     40 H4         -4.9260    2.5702    4.7396 H         1 592         0.0574
     41 H5         -3.8348    1.4620    3.8408 H         1 592         0.0574
     42 H6         -5.5536    1.6270    3.3456 H         1 592         0.0574
     43 H7         -3.9889    0.7464    1.8148 H         1 592         0.0556
     44 H8         -3.5095    0.3375   -0.5966 H         1 592         0.0543
     45 H9         -3.0360    2.2643   -2.0774 H         1 592         0.0556
     46 H10        -4.6518    4.0706   -2.7175 H         1 592         0.1845
     47 H11        -4.0431    6.8057   -3.3201 H         1 592         0.0557
     48 H12        -1.7914    5.5744   -3.9137 H         1 592         0.0310
     49 H13        -2.5044    6.6992   -5.1192 H         1 592         0.0310
     50 H14        -5.4572    6.5039   -5.2053 H         1 592         0.0310
     51 H15        -6.0801    5.2758   -4.0518 H         1 592         0.0310
     52 H16        -5.8871    4.3213   -6.3967 H         1 592         0.0559
     53 H17        -4.9250    2.2818   -5.7740 H         1 592         0.0288
     54 H18        -5.0167    3.0106   -4.1347 H         1 592         0.0288
     55 H19        -2.5992    2.4362   -5.7306 H         1 592         0.0288
     56 H20        -2.6881    3.1102   -4.0680 H         1 592         0.0288
     57 H21        -1.7032    4.5740   -6.1995 H         1 592         0.0559
     58 H22        -6.0348    5.5674   -7.8915 H         1 592         0.0621
     59 H23        -6.0374    7.0700   -9.8792 H         1 592         0.0748
     60 H24        -1.7562    7.5509   -9.4479 H         1 592         0.0838
     61 H25        -5.8782    8.1469  -11.1824 H         1 592         0.1869
     62 H26        -6.0759    9.0093  -13.3682 H         1 592         0.0683
     63 H27        -4.2897    8.9073  -13.5280 H         1 592         0.0683
     64 H28        -4.6194   11.0451  -14.8677 H         1 592         0.0557
     65 H29        -4.4676   13.5194  -14.6924 H         1 592         0.0599
     66 H30        -4.8597   14.6115  -12.5001 H         1 592         0.0559
     67 H31        -5.2315   13.2745  -10.4595 H         1 592         0.0599
     68 H32        -5.4121   10.7763  -10.6371 H         1 592         0.0557
@<TRIPOS>BOND
     1    1    2 1  
     2    2    3 ar 
     3    2    9 ar 
     4    3    4 1  
     5    3    6 ar 
     6    4    5 1  
     7    6    7 ar 
     8    7    8 ar 
     9    8    9 ar 
    10    9   10 1  
    11   10   11 2  
    12   10   12 am 
    13   12   13 1  
    14   13   14 1  
    15   13   15 1  
    16   14   19 1  
    17   15   16 1  
    18   16   17 1  
    19   16   20 1  
    20   17   18 1  
    21   18   19 1  
    22   19   20 1  
    23   20   21 1  
    24   21   22 ar 
    25   21   24 ar 
    26   22   23 ar 
    27   23   26 ar 
    28   24   25 ar 
    29   25   26 ar 
    30   26   27 1  
    31   27   28 2  
    32   27   29 am 
    33   29   30 1  
    34   30   31 1  
    35   31   32 ar 
    36   31   36 ar 
    37   32   33 ar 
    38   33   34 ar 
    39   34   35 ar 
    40   35   36 ar 
    41    1   37 1  
    42    1   38 1  
    43    1   39 1  
    44    5   40 1  
    45    5   41 1  
    46    5   42 1  
    47    6   43 1  
    48    7   44 1  
    49    8   45 1  
    50   12   46 1  
    51   13   47 1  
    52   14   48 1  
    53   14   49 1  
    54   15   50 1  
    55   15   51 1  
    56   16   52 1  
    57   17   53 1  
    58   17   54 1  
    59   18   55 1  
    60   18   56 1  
    61   19   57 1  
    62   22   58 1  
    63   23   59 1  
    64   25   60 1  
    65   29   61 1  
    66   30   62 1  
    67   30   63 1  
    68   32   64 1  
    69   33   65 1  
    70   34   66 1  
    71   35   67 1  
    72   36   68 1  
@<TRIPOS>SUBSTRUCTURE
     1 592         1

