### 
### Created by X-TOOL on Mon Sep 10 21:13:08 2018
### 

@<TRIPOS>MOLECULE
4ax9_ligand
   73    76     1     0     0
SMALL
GAST_HUCK


@<TRIPOS>ATOM
      1 N1         17.7370  -12.9750   21.1270 N.am      1 N5N        -0.2555
      2 C2         18.6830  -13.7220   20.3520 C.3       1 N5N         0.0470
      3 C3         16.8790  -13.6150   22.0190 C.2       1 N5N         0.2043
      4 C4         17.6590  -11.5820   20.8440 C.3       1 N5N         0.0864
      5 C5         20.0700  -13.1470   20.0650 C.3       1 N5N        -0.0274
      6 C6         19.9200  -14.3280   20.9770 C.3       1 N5N        -0.0274
      7 C7         16.9460  -15.1600   22.1650 C.3       1 N5N         0.1431
      8 O8         16.0580  -12.9750   22.6910 O.2       1 N5N        -0.3945
      9 C9         16.6660  -11.6270   19.6790 C.2       1 N5N         0.0572
     10 N10        16.4850  -15.6460   23.4110 N.am      1 N5N        -0.2232
     11 C11        15.9770  -15.6560   21.0550 C.3       1 N5N         0.0740
     12 O12        16.5900  -10.5570   18.8560 O.co2     1 N5N        -0.5669
     13 O13        15.9200  -12.5530   19.3650 O.co2     1 N5N        -0.5669
     14 S14        17.4120  -16.7460   24.1380 S.o2      1 N5N         0.0706
     15 C15        14.4840  -15.3310   21.3120 C.2       1 N5N         0.1801
     16 C16        18.7430  -15.8260   24.5750 C.ar      1 N5N         0.1089
     17 O17        16.6880  -17.0720   25.2910 O.2       1 N5N        -0.1501
     18 O18        17.6620  -17.6840   23.1350 O.2       1 N5N        -0.1501
     19 N19        13.8870  -14.2270   20.7230 N.am      1 N5N        -0.2864
     20 O20        13.7860  -16.0850   22.0300 O.2       1 N5N        -0.3968
     21 C21        20.0400  -16.0170   24.1530 C.ar      1 N5N        -0.0274
     22 C22        18.4750  -14.7500   25.4650 C.ar      1 N5N        -0.0345
     23 C23        12.4990  -13.8980   20.8990 C.3       1 N5N         0.0369
     24 C24        21.0570  -15.1400   24.6180 C.ar      1 N5N        -0.0160
     25 C25        19.4330  -13.8990   25.9250 C.ar      1 N5N        -0.0522
     26 C26        12.1900  -12.4500   21.3330 C.3       1 N5N         0.0124
     27 C27        20.7480  -14.0800   25.5100 C.ar      1 N5N        -0.0178
     28 C28        22.3990  -15.2940   24.2120 C.ar      1 N5N        -0.0540
     29 C29        12.5760  -12.3160   22.8090 C.3       1 N5N         0.0695
     30 C30        12.9710  -11.4340   20.5020 C.3       1 N5N        -0.0420
     31 C31        21.7610  -13.2020   25.9700 C.ar      1 N5N        -0.0540
     32 C32        23.3630  -14.4350   24.6580 C.ar      1 N5N        -0.0612
     33 N33        12.4380  -10.9660   23.3380 N.pl3     1 N5N        -0.2594
     34 C34        12.6880  -10.0320   21.0300 C.3       1 N5N        -0.0192
     35 C35        23.0470  -13.3790   25.5470 C.ar      1 N5N        -0.0612
     36 C36        13.0380   -9.9160   22.5120 C.3       1 N5N         0.0649
     37 C37        11.2250  -10.7710   24.1160 C.cat     1 N5N         0.2903
     38 N38        10.4600  -11.9530   24.3330 N.pl3     1 N5N        -0.2848
     39 N39        10.8860   -9.6050   24.5720 N.pl3     1 N5N        -0.2848
     40 H1         18.1451  -14.2758   19.5684 H         1 N5N         0.0559
     41 H2         18.6319  -11.1681   20.5404 H         1 N5N         0.0692
     42 H3         17.2671  -11.0094   21.6975 H         1 N5N         0.0692
     43 H4         20.3553  -12.1673   20.4759 H         1 N5N         0.0288
     44 H5         20.5232  -13.2737   19.0708 H         1 N5N         0.0288
     45 H6         20.2685  -15.3190   20.6508 H         1 N5N         0.0288
     46 H7         20.1006  -14.2126   22.0559 H         1 N5N         0.0288
     47 H8         17.9726  -15.5160   21.9938 H         1 N5N         0.0779
     48 H9         15.6303  -15.3245   23.8186 H         1 N5N         0.1707
     49 H10        16.0812  -16.7478   20.9709 H         1 N5N         0.0547
     50 H11        16.2724  -15.1852   20.1057 H         1 N5N         0.0547
     51 H12        14.4486  -13.6315   20.1486 H         1 N5N         0.1851
     52 H13        20.2822  -16.8267   23.4742 H         1 N5N         0.0643
     53 H14        17.4535  -14.5992   25.7948 H         1 N5N         0.0637
     54 H15        12.0892  -14.5723   21.6654 H         1 N5N         0.0524
     55 H16        11.9879  -14.0773   19.9416 H         1 N5N         0.0524
     56 H17        19.1751  -13.0938   26.6034 H         1 N5N         0.0624
     57 H18        11.1139  -12.2563   21.2125 H         1 N5N         0.0354
     58 H19        22.6678  -16.1011   23.5401 H         1 N5N         0.0624
     59 H20        13.6255  -12.6257   22.9214 H         1 N5N         0.0694
     60 H21        11.9311  -12.9854   23.3972 H         1 N5N         0.0694
     61 H22        12.6581  -11.5010   19.4496 H         1 N5N         0.0271
     62 H23        14.0477  -11.6457   20.5786 H         1 N5N         0.0271
     63 H24        21.5166  -12.3961   26.6525 H         1 N5N         0.0624
     64 H25        24.3868  -14.5638   24.3259 H         1 N5N         0.0618
     65 H26        11.6196   -9.8073   20.8956 H         1 N5N         0.0299
     66 H27        13.2895   -9.3070   20.4620 H         1 N5N         0.0299
     67 H28        23.8272  -12.7103   25.8921 H         1 N5N         0.0618
     68 H29        14.1315   -9.9727   22.6169 H         1 N5N         0.0690
     69 H30        12.6846   -8.9407   22.8778 H         1 N5N         0.0690
     70 H31         9.5848  -11.9079   24.8743 H         1 N5N         0.2615
     71 H32        10.7820  -12.8527   23.9486 H         1 N5N         0.2615
     72 H33        11.4802   -8.7853   24.3825 H         1 N5N         0.2615
     73 H34        10.0226   -9.4988   25.1236 H         1 N5N         0.2615
@<TRIPOS>BOND
     1    1    2 1  
     2    1    3 am 
     3    1    4 1  
     4    2    5 1  
     5    2    6 1  
     6    3    7 1  
     7    3    8 2  
     8    4    9 1  
     9    5    6 1  
    10    7   10 1  
    11    7   11 1  
    12    9   12 ar 
    13    9   13 ar 
    14   10   14 am 
    15   11   15 1  
    16   14   16 1  
    17   14   17 2  
    18   14   18 2  
    19   15   19 am 
    20   15   20 2  
    21   16   21 ar 
    22   16   22 ar 
    23   19   23 1  
    24   21   24 ar 
    25   22   25 ar 
    26   23   26 1  
    27   24   27 ar 
    28   24   28 ar 
    29   25   27 ar 
    30   26   29 1  
    31   26   30 1  
    32   27   31 ar 
    33   28   32 ar 
    34   29   33 1  
    35   30   34 1  
    36   31   35 ar 
    37   32   35 ar 
    38   33   36 1  
    39   33   37 ar 
    40   34   36 1  
    41   37   38 ar 
    42   37   39 ar 
    43    2   40 1  
    44    4   41 1  
    45    4   42 1  
    46    5   43 1  
    47    5   44 1  
    48    6   45 1  
    49    6   46 1  
    50    7   47 1  
    51   10   48 1  
    52   11   49 1  
    53   11   50 1  
    54   19   51 1  
    55   21   52 1  
    56   22   53 1  
    57   23   54 1  
    58   23   55 1  
    59   25   56 1  
    60   26   57 1  
    61   28   58 1  
    62   29   59 1  
    63   29   60 1  
    64   30   61 1  
    65   30   62 1  
    66   31   63 1  
    67   32   64 1  
    68   34   65 1  
    69   34   66 1  
    70   35   67 1  
    71   36   68 1  
    72   36   69 1  
    73   38   70 1  
    74   38   71 1  
    75   39   72 1  
    76   39   73 1  
@<TRIPOS>SUBSTRUCTURE
     1 N5N         1

