### 
### Created by X-TOOL on Mon Sep 10 21:13:11 2018
### 

@<TRIPOS>MOLECULE
4axa_ligand
   39    41     1     0     0
SMALL
GAST_HUCK


@<TRIPOS>ATOM
      1 N1         10.3670    7.2050    3.8540 N.4       1 RKD         0.2100
      2 C2         11.0950    8.1630    2.9800 C.3       1 RKD        -0.0457
      3 C4         11.4510   10.5790    2.2470 C.ar      1 RKD        -0.0492
      4 C5         11.8940   11.8410    2.6190 C.ar      1 RKD        -0.0509
      5 C6         12.4950   12.6720    1.7070 C.ar      1 RKD        -0.0272
      6 C7         12.6610   12.2550    0.4180 C.ar      1 RKD         0.0626
      7 O7         11.2700    9.9320    4.5830 O.3       1 RKD        -0.4457
      8 CL8        13.4240   13.3150   -0.7320 Cl        1 RKD        -0.0501
      9 C9         12.2360   11.0150    0.0160 C.ar      1 RKD        -0.0272
     10 C10        11.6300   10.1750    0.9290 C.ar      1 RKD        -0.0509
     11 C11         9.2450    9.7410    3.2550 C.ar      1 RKD        -0.0512
     12 C12         8.5300    9.4390    2.1050 C.ar      1 RKD        -0.0537
     13 C13         7.1470    9.5100    2.0910 C.ar      1 RKD        -0.0390
     14 C14         6.4360    9.8880    3.2290 C.ar      1 RKD        -0.0093
     15 C15         7.1570   10.1890    4.3810 C.ar      1 RKD        -0.0390
     16 C16         8.5360   10.1170    4.3920 C.ar      1 RKD        -0.0537
     17 C17         4.9570    9.9600    3.2070 C.2       1 RKD         0.0233
     18 C18         4.1100   10.0260    4.3000 C.2       1 RKD         0.0150
     19 N19         2.8350   10.0770    3.9340 N.2       1 RKD        -0.2091
     20 N20         2.8710   10.0410    2.5840 N.pl3     1 RKD        -0.2076
     21 C21         4.1250    9.9700    2.1200 C.2       1 RKD         0.0758
     22 C60        10.7820    9.6600    3.2710 C.3       1 RKD         0.0857
     23 H1         10.6220    6.2622    3.6046 H         1 RKD         0.1982
     24 H2          9.3738    7.3276    3.7329 H         1 RKD         0.1982
     25 H3         10.6118    7.3757    4.8168 H         1 RKD         0.1982
     26 H4         10.8237    7.9510    1.9353 H         1 RKD         0.0664
     27 H5         12.1746    8.0036    3.1181 H         1 RKD         0.0664
     28 H6         11.7636   12.1741    3.6423 H         1 RKD         0.0776
     29 H7         12.8364   13.6555    2.0091 H         1 RKD         0.0680
     30 H8         12.2088    9.7884    4.6066 H         1 RKD         0.1863
     31 H9         12.3747   10.6965   -1.0108 H         1 RKD         0.0680
     32 H10        11.2916    9.1939    0.6159 H         1 RKD         0.0776
     33 H11         9.0602    9.1439    1.2067 H         1 RKD         0.0773
     34 H12         6.6092    9.2680    1.1814 H         1 RKD         0.0645
     35 H13         6.6293   10.4837    5.2809 H         1 RKD         0.0645
     36 H14         9.0751   10.3573    5.3012 H         1 RKD         0.0773
     37 H15         4.4487   10.0350    5.3350 H         1 RKD         0.0703
     38 H16         2.0343   10.0653    1.9838 H         1 RKD         0.2640
     39 H17         4.4264    9.9281    1.0744 H         1 RKD         0.1148
@<TRIPOS>BOND
     1    2    1 1  
     2   22    2 1  
     3    3    4 ar 
     4    3   10 ar 
     5   22    3 1  
     6    4    5 ar 
     7    5    6 ar 
     8    6    8 1  
     9    9    6 ar 
    10   22    7 1  
    11   10    9 ar 
    12   11   12 ar 
    13   11   16 ar 
    14   11   22 1  
    15   12   13 ar 
    16   13   14 ar 
    17   14   15 ar 
    18   14   17 1  
    19   15   16 ar 
    20   17   18 1  
    21   17   21 2  
    22   18   19 2  
    23   19   20 1  
    24   20   21 1  
    25    1   23 1  
    26    1   24 1  
    27    1   25 1  
    28    2   26 1  
    29    2   27 1  
    30    4   28 1  
    31    5   29 1  
    32    7   30 1  
    33    9   31 1  
    34   10   32 1  
    35   12   33 1  
    36   13   34 1  
    37   15   35 1  
    38   16   36 1  
    39   18   37 1  
    40   20   38 1  
    41   21   39 1  
@<TRIPOS>SUBSTRUCTURE
     1 RKD         1

