### 
### Created by X-TOOL on Mon Sep 10 21:13:12 2018
### 

@<TRIPOS>MOLECULE
4ayp_ligand
   48    49     1     0     0
SMALL
GAST_HUCK


@<TRIPOS>ATOM
      1 O12       -27.3730  -14.8440  -14.3440 O.3       1 SMD        -0.3857
      2 C12       -27.6430  -13.5110  -13.9120 C.3       1 SMD         0.1189
      3 C13       -27.5580  -12.6200  -15.1350 C.3       1 SMD         0.1126
      4 O13       -28.3010  -13.2160  -16.2050 O.3       1 SMD        -0.3865
      5 C14       -28.0890  -11.2290  -14.8100 C.3       1 SMD         0.1118
      6 O14       -27.2980  -10.6220  -13.7860 O.3       1 SMD        -0.3865
      7 C15       -29.5510  -11.2920  -14.3450 C.3       1 SMD         0.1115
      8 C16       -30.4720  -10.9430  -15.5130 C.3       1 SMD         0.0730
      9 O16       -31.8530  -11.0800  -15.2030 O.3       1 SMD        -0.3924
     10 O15       -29.9660  -12.6030  -13.9100 O.3       1 SMD        -0.3553
     11 C11       -29.0200  -13.4110  -13.2050 C.3       1 SMD         0.1335
     12 S22       -28.7020  -12.9060  -11.4820 S.3       1 SMD        -0.1160
     13 C22       -30.2590  -13.3220  -10.6560 C.3       1 SMD         0.0869
     14 C21       -30.3310  -12.5080   -9.3640 C.3       1 SMD         0.1735
     15 O21       -31.6460  -12.6030   -8.8510 O.3       1 SMD        -0.3533
     16 C27       -31.8040  -11.8930   -7.6140 C.3       1 SMD         0.0395
     17 O25       -29.3740  -12.9780   -8.4150 O.3       1 SMD        -0.3420
     18 C23       -30.4140  -14.8120  -10.3120 C.3       1 SMD         0.1000
     19 O23       -30.2340  -15.6000  -11.4880 O.3       1 SMD        -0.3879
     20 C24       -29.4390  -15.2590   -9.2280 C.3       1 SMD         0.1105
     21 O24       -29.7360  -16.5900   -8.8100 O.3       1 SMD        -0.3865
     22 C25       -29.5590  -14.3430   -8.0150 C.3       1 SMD         0.1129
     23 C26       -28.5190  -14.6210   -6.9550 C.3       1 SMD         0.0730
     24 O26       -28.7580  -13.7340   -5.8600 O.3       1 SMD        -0.3924
     25 H1        -27.4181  -15.4323  -13.5994 H         1 SMD         0.2100
     26 H2        -26.8690  -13.2032  -13.1935 H         1 SMD         0.0655
     27 H3        -26.5050  -12.5314  -15.4406 H         1 SMD         0.0647
     28 H4        -28.2495  -12.6595  -16.9732 H         1 SMD         0.2100
     29 H5        -28.0322  -10.6114  -15.7185 H         1 SMD         0.0647
     30 H6        -26.3986  -10.5493  -14.0834 H         1 SMD         0.2100
     31 H7        -29.6889  -10.5740  -13.5232 H         1 SMD         0.0646
     32 H8        -30.2357  -11.6103  -16.3550 H         1 SMD         0.0584
     33 H9        -30.2824   -9.9002  -15.8072 H         1 SMD         0.0584
     34 H10       -32.0331  -11.9793  -14.9555 H         1 SMD         0.2095
     35 H11       -29.4505  -14.4228  -13.1732 H         1 SMD         0.0740
     36 H12       -31.0898  -13.0348  -11.3173 H         1 SMD         0.0489
     37 H13       -30.1101  -11.4545   -9.5903 H         1 SMD         0.0922
     38 H14       -32.8402  -11.9989   -7.2603 H         1 SMD         0.0525
     39 H15       -31.5771  -10.8282   -7.7708 H         1 SMD         0.0525
     40 H16       -31.1159  -12.3078   -6.8627 H         1 SMD         0.0525
     41 H17       -31.4359  -14.9716   -9.9375 H         1 SMD         0.0633
     42 H18       -30.3308  -16.5195  -11.2696 H         1 SMD         0.2099
     43 H19       -28.4135  -15.2173   -9.6236 H         1 SMD         0.0646
     44 H20       -29.6640  -17.1776   -9.5530 H         1 SMD         0.2100
     45 H21       -30.5609  -14.4714   -7.5795 H         1 SMD         0.0647
     46 H22       -27.5129  -14.4467   -7.3640 H         1 SMD         0.0584
     47 H23       -28.6012  -15.6641   -6.6155 H         1 SMD         0.0584
     48 H24       -28.6891  -12.8356   -6.1608 H         1 SMD         0.2095
@<TRIPOS>BOND
     1    1    2 1  
     2    2    3 1  
     3    2   11 1  
     4    3    4 1  
     5    3    5 1  
     6    5    6 1  
     7    5    7 1  
     8    7    8 1  
     9    7   10 1  
    10    8    9 1  
    11   10   11 1  
    12   11   12 1  
    13   12   13 1  
    14   13   14 1  
    15   13   18 1  
    16   14   15 1  
    17   14   17 1  
    18   15   16 1  
    19   17   22 1  
    20   18   19 1  
    21   18   20 1  
    22   20   21 1  
    23   20   22 1  
    24   22   23 1  
    25   23   24 1  
    26    1   25 1  
    27    2   26 1  
    28    3   27 1  
    29    4   28 1  
    30    5   29 1  
    31    6   30 1  
    32    7   31 1  
    33    8   32 1  
    34    8   33 1  
    35    9   34 1  
    36   11   35 1  
    37   13   36 1  
    38   14   37 1  
    39   16   38 1  
    40   16   39 1  
    41   16   40 1  
    42   18   41 1  
    43   19   42 1  
    44   20   43 1  
    45   21   44 1  
    46   22   45 1  
    47   23   46 1  
    48   23   47 1  
    49   24   48 1  
@<TRIPOS>SUBSTRUCTURE
     1 SMD         1

