### 
### Created by X-TOOL on Mon Sep 10 21:13:12 2018
### 

@<TRIPOS>MOLECULE
4ayq_ligand
   26    27     1     0     0
SMALL
GAST_HUCK


@<TRIPOS>ATOM
      1 C1          2.8400  -31.8050  -19.8990 C.2       1 MVL         0.1465
      2 N10         4.1660  -31.9290  -19.7440 N.pl3     1 MVL        -0.2404
      3 C3          2.7330  -30.0420  -18.2030 C.3       1 MVL         0.1253
      4 C4          4.2090  -29.7600  -18.5240 C.3       1 MVL         0.1183
      5 C5          5.0020  -30.9950  -18.9290 C.3       1 MVL         0.1196
      6 C6          5.5160  -31.7260  -17.6830 C.3       1 MVL         0.0773
      7 C7          3.4990  -33.6170  -20.9670 C.2       1 MVL        -0.0364
      8 C8          4.5820  -33.0430  -20.4070 C.2       1 MVL         0.0285
      9 N1          2.4410  -32.8390  -20.6410 N.2       1 MVL        -0.3367
     10 O3          2.6140  -30.9240  -17.0920 O.3       1 MVL        -0.3839
     11 O2          0.7300  -31.0920  -18.9740 O.3       1 MVL        -0.3699
     12 O4          4.2840  -28.8170  -19.5920 O.3       1 MVL        -0.3858
     13 C2          2.0270  -30.6760  -19.3810 C.3       1 MVL         0.1586
     14 O6          6.2480  -32.9080  -18.0070 O.3       1 MVL        -0.3918
     15 H1          2.2408  -29.0887  -17.9603 H         1 MVL         0.0675
     16 H2          4.6766  -29.3291  -17.6264 H         1 MVL         0.0654
     17 H3          5.8632  -30.6745  -19.5337 H         1 MVL         0.0704
     18 H4          4.6555  -32.0043  -17.0569 H         1 MVL         0.0589
     19 H5          6.1737  -31.0464  -17.1212 H         1 MVL         0.0589
     20 H6          3.4792  -34.5275  -21.5642 H         1 MVL         0.0408
     21 H7          5.6068  -33.4054  -20.4730 H         1 MVL         0.0796
     22 H8          3.0226  -30.5293  -16.3306 H         1 MVL         0.2103
     23 H9          0.2812  -31.4913  -19.7100 H         1 MVL         0.2138
     24 H10         3.7944  -28.0369  -19.3591 H         1 MVL         0.2100
     25 H11         1.9199  -29.9284  -20.1808 H         1 MVL         0.0858
     26 H12         5.6864  -33.5054  -18.4869 H         1 MVL         0.2095
@<TRIPOS>BOND
     1    1    2 1  
     2    1    9 2  
     3   13    1 1  
     4    2    5 1  
     5    2    8 1  
     6    3    4 1  
     7    3   10 1  
     8    3   13 1  
     9    4    5 1  
    10    4   12 1  
    11    5    6 1  
    12    6   14 1  
    13    8    7 2  
    14    7    9 1  
    15   13   11 1  
    16    3   15 1  
    17    4   16 1  
    18    5   17 1  
    19    6   18 1  
    20    6   19 1  
    21    7   20 1  
    22    8   21 1  
    23   10   22 1  
    24   11   23 1  
    25   12   24 1  
    26   13   25 1  
    27   14   26 1  
@<TRIPOS>SUBSTRUCTURE
     1 MVL         1

