### 
### Created by X-TOOL on Mon Sep 10 21:13:12 2018
### 

@<TRIPOS>MOLECULE
4ayr_ligand
   25    25     1     0     0
SMALL
GAST_HUCK


@<TRIPOS>ATOM
      1 O4          4.3720   28.8010    2.8460 O.3       1 IFL        -0.3884
      2 C4          4.2470   29.7620    1.7850 C.3       1 IFL         0.0986
      3 C3          2.7590   30.0870    1.5900 C.3       1 IFL         0.1497
      4 O3          2.5840   30.9180    0.4270 O.3       1 IFL        -0.3811
      5 C2          2.1650   30.8680    2.6990 C.3       1 IFL         0.1091
      6 N           2.9520   32.0610    3.0060 N.4       1 IFL         0.2513
      7 C7          4.4090   31.8670    3.2200 C.3       1 IFL        -0.0236
      8 C5          5.0740   30.9970    2.1420 C.3       1 IFL         0.0509
      9 C6          5.4610   31.7690    0.8780 C.3       1 IFL         0.0543
     10 O6          6.2220   32.9530    1.1930 O.3       1 IFL        -0.3945
     11 O2          0.8620   31.1980    2.4110 O.3       1 IFL        -0.3504
     12 H1          3.8959   28.0120    2.6148 H         1 IFL         0.2099
     13 H2          4.6398   29.3319    0.8519 H         1 IFL         0.0627
     14 H3          2.2089   29.1420    1.4704 H         1 IFL         0.0704
     15 H4          2.9072   30.4598   -0.3398 H         1 IFL         0.2103
     16 H5          2.1625   30.2301    3.5951 H         1 IFL         0.1211
     17 H6          2.5723   32.4687    3.8461 H         1 IFL         0.2042
     18 H7          2.8399   32.7057    2.2393 H         1 IFL         0.2042
     19 H8          4.5566   31.3844    4.1974 H         1 IFL         0.0819
     20 H9          4.8956   32.8535    3.2209 H         1 IFL         0.0819
     21 H10         6.0128   30.6311    2.5834 H         1 IFL         0.0401
     22 H11         4.5451   32.0643    0.3452 H         1 IFL         0.0562
     23 H12         6.0667   31.1164    0.2321 H         1 IFL         0.0562
     24 H13         5.7027   33.5238    1.7471 H         1 IFL         0.2094
     25 H14         0.4742   31.6350    3.1601 H         1 IFL         0.2155
@<TRIPOS>BOND
     1    1    2 1  
     2    2    3 1  
     3    2    8 1  
     4    3    4 1  
     5    3    5 1  
     6    5    6 1  
     7    5   11 1  
     8    6    7 1  
     9    7    8 1  
    10    8    9 1  
    11    9   10 1  
    12    1   12 1  
    13    2   13 1  
    14    3   14 1  
    15    4   15 1  
    16    5   16 1  
    17    6   17 1  
    18    6   18 1  
    19    7   19 1  
    20    7   20 1  
    21    8   21 1  
    22    9   22 1  
    23    9   23 1  
    24   10   24 1  
    25   11   25 1  
@<TRIPOS>SUBSTRUCTURE
     1 IFL         1

