### 
### Created by X-TOOL on Mon Sep 10 21:13:12 2018
### 

@<TRIPOS>MOLECULE
4ayu_ligand
   21    21     1     0     0
SMALL
GAST_HUCK


@<TRIPOS>ATOM
      1 C7        -93.6140    9.5810  -19.7850 C.2       1 N8P         0.1771
      2 O9        -92.4320    9.7500  -20.1180 O.2       1 N8P        -0.3971
      3 C8        -94.5090   10.7260  -19.4990 C.3       1 N8P         0.0259
      4 N         -94.1290    8.2620  -19.6640 N.am      1 N8P        -0.2577
      5 CA        -95.4680    7.9410  -19.2570 C.3       1 N8P         0.0971
      6 CB        -95.4690    6.4590  -19.0160 C.3       1 N8P        -0.0159
      7 CG        -94.3850    5.9310  -19.8630 C.3       1 N8P        -0.0288
      8 CD        -93.3650    7.0460  -19.8910 C.3       1 N8P         0.0361
      9 C         -96.5340    8.3130  -20.2610 C.2       1 N8P         0.0603
     10 O         -96.2030    8.6260  -21.4360 O.co2     1 N8P        -0.5666
     11 OXT       -97.7410    8.2870  -19.9100 O.co2     1 N8P        -0.5666
     12 H         -95.5063   10.3521  -19.2242 H         1 N8P         0.0467
     13 H         -94.5892   11.3611  -20.3935 H         1 N8P         0.0467
     14 H         -94.0962   11.3152  -18.6668 H         1 N8P         0.0467
     15 H         -95.6899    8.4689  -18.3178 H         1 N8P         0.0728
     16 H         -96.4350    6.0211  -19.3077 H         1 N8P         0.0306
     17 H         -95.2722    6.2401  -17.9561 H         1 N8P         0.0306
     18 H         -94.7523    5.7119  -20.8764 H         1 N8P         0.0286
     19 H         -93.9548    5.0189  -19.4237 H         1 N8P         0.0286
     20 H         -92.6171    6.9055  -19.0967 H         1 N8P         0.0524
     21 H         -92.8602    7.0834  -20.8676 H         1 N8P         0.0524
@<TRIPOS>BOND
     1    1    2 2  
     2    1    3 1  
     3    1    4 am 
     4    4    5 1  
     5    4    8 1  
     6    5    6 1  
     7    5    9 1  
     8    6    7 1  
     9    7    8 1  
    10    9   10 ar 
    11    9   11 ar 
    12    3   12 1  
    13    3   13 1  
    14    3   14 1  
    15    5   15 1  
    16    6   16 1  
    17    6   17 1  
    18    7   18 1  
    19    7   19 1  
    20    8   20 1  
    21    8   21 1  
@<TRIPOS>SUBSTRUCTURE
     1 N8P         1

