### 
### Created by X-TOOL on Mon Sep 10 21:13:08 2018
### 

@<TRIPOS>MOLECULE
4ayv_ligand
   79    82     1     0     0
SMALL
GAST_HUCK


@<TRIPOS>ATOM
      1 C20        29.5220   17.6380   23.6890 C.3       1 9MQ         0.0369
      2 C27        30.8390   18.3690   24.0410 C.3       1 9MQ         0.0124
      3 C32        31.3550   18.0230   25.4550 C.3       1 9MQ         0.0695
      4 C33        31.9390   18.0500   22.9780 C.3       1 9MQ        -0.0420
      5 N37        32.5790   18.8780   25.6450 N.pl3     1 9MQ        -0.2594
      6 C38        33.1470   18.9460   23.2170 C.3       1 9MQ        -0.0192
      7 C40        33.7130   18.6960   24.6470 C.3       1 9MQ         0.0649
      8 C41        32.4270   20.0940   26.3010 C.cat     1 9MQ         0.2903
      9 N42        33.5130   20.8500   26.3420 N.pl3     1 9MQ        -0.2848
     10 N43        31.2690   20.4210   26.8120 N.pl3     1 9MQ        -0.2848
     11 N3         29.7500   13.4180   26.6610 N.am      1 9MQ        -0.2232
     12 C1         29.8930   13.1300   25.2750 C.3       1 9MQ         0.1432
     13 C2         31.3070   13.5900   24.8610 C.2       1 9MQ         0.2059
     14 O6         31.9250   14.4320   25.5460 O.2       1 9MQ        -0.3944
     15 C4         28.8640   13.9020   24.4000 C.3       1 9MQ         0.0740
     16 C8         28.8340   15.4080   24.5570 C.2       1 9MQ         0.1801
     17 O15        28.2160   15.9780   25.4840 O.2       1 9MQ        -0.3968
     18 N14        29.5500   16.1520   23.5980 N.am      1 9MQ        -0.2864
     19 S7         29.3100   12.2750   27.7580 S.o2      1 9MQ         0.0706
     20 O13        28.3600   11.4260   27.1480 O.2       1 9MQ        -0.1501
     21 O12        29.0630   13.0620   28.9540 O.2       1 9MQ        -0.1501
     22 C18        30.7640   10.0600   27.3130 C.ar      1 9MQ        -0.0274
     23 C11        30.6550   11.3050   27.9310 C.ar      1 9MQ         0.1089
     24 C19        31.7320   11.7770   28.7590 C.ar      1 9MQ        -0.0345
     25 C26        32.8630   11.0470   28.9660 C.ar      1 9MQ        -0.0522
     26 C35        34.1770    9.0060   28.5940 C.ar      1 9MQ        -0.0540
     27 C39        34.2830    7.7690   28.0090 C.ar      1 9MQ        -0.0612
     28 C36        33.2400    7.2410   27.1760 C.ar      1 9MQ        -0.0612
     29 C31        32.0880    7.9720   26.9330 C.ar      1 9MQ        -0.0540
     30 C25        31.9400    9.2660   27.5250 C.ar      1 9MQ        -0.0160
     31 C30        33.0030    9.7730   28.3620 C.ar      1 9MQ        -0.0178
     32 N5         31.8680   13.0410   23.7070 N.am      1 9MQ        -0.2473
     33 C9         31.1810   11.9550   22.9330 C.3       1 9MQ         0.0694
     34 C10        33.0980   13.5900   23.1120 C.3       1 9MQ         0.0883
     35 C16        32.1270   10.8190   22.7310 C.ar      1 9MQ        -0.0206
     36 C17        32.6770   14.5420   21.9980 C.2       1 9MQ         0.0574
     37 C21        32.7400   10.1950   23.8550 C.ar      1 9MQ        -0.0584
     38 C22        32.4150   10.4040   21.4390 C.ar      1 9MQ        -0.0584
     39 O23        33.6120   14.6840   21.0680 O.co2     1 9MQ        -0.5669
     40 O24        31.6230   15.1370   21.8670 O.co2     1 9MQ        -0.5669
     41 C28        33.6560    9.1490   23.6740 C.ar      1 9MQ        -0.0685
     42 C29        33.3350    9.3500   21.2520 C.ar      1 9MQ        -0.0685
     43 C34        33.9590    8.7220   22.3530 C.ar      1 9MQ        -0.0687
     44 H          29.2575   17.9839   22.6898 H         1 9MQ         0.0524
     45 H          28.8380   17.8647   24.5068 H         1 9MQ         0.0524
     46 H          30.6178   19.4363   24.0319 H         1 9MQ         0.0354
     47 H          31.5852   16.9620   25.5519 H         1 9MQ         0.0694
     48 H          30.6025   18.2206   26.2184 H         1 9MQ         0.0694
     49 H          31.5432   18.2309   21.9786 H         1 9MQ         0.0271
     50 H          32.2374   17.0053   23.0648 H         1 9MQ         0.0271
     51 H          32.8461   19.9896   23.1253 H         1 9MQ         0.0299
     52 H          33.9166   18.7186   22.4794 H         1 9MQ         0.0299
     53 H          34.1174   17.6863   24.7190 H         1 9MQ         0.0690
     54 H          34.5170   19.4004   24.8605 H         1 9MQ         0.0690
     55 H          33.4826   21.7620   26.7977 H         1 9MQ         0.2615
     56 H          34.3801   20.5204   25.9179 H         1 9MQ         0.2615
     57 H          31.1552   21.3174   27.2853 H         1 9MQ         0.2615
     58 H          30.4793   19.7798   26.7374 H         1 9MQ         0.2615
     59 H          29.9269   14.3685   26.9860 H         1 9MQ         0.1707
     60 H          29.7280   12.0636   25.1215 H         1 9MQ         0.0779
     61 H          27.8806   13.5478   24.7092 H         1 9MQ         0.0547
     62 H          29.1480   13.7132   23.3647 H         1 9MQ         0.0547
     63 H          30.0748   15.6838   22.8592 H         1 9MQ         0.1851
     64 H          29.9615    9.6925   26.6734 H         1 9MQ         0.0643
     65 H          31.6400   12.7522   29.2372 H         1 9MQ         0.0637
     66 H          33.6598   11.4426   29.5958 H         1 9MQ         0.0624
     67 H          34.9777    9.3928   29.2244 H         1 9MQ         0.0624
     68 H          35.1798    7.1738   28.1809 H         1 9MQ         0.0618
     69 H          33.3555    6.2535   26.7293 H         1 9MQ         0.0618
     70 H          31.3021    7.5649   26.2968 H         1 9MQ         0.0624
     71 H          30.8636   12.3420   21.9647 H         1 9MQ         0.0687
     72 H          30.3081   11.6088   23.4865 H         1 9MQ         0.0687
     73 H          33.7222   12.7891   22.7157 H         1 9MQ         0.0693
     74 H          33.6852   14.1167   23.8642 H         1 9MQ         0.0693
     75 H          32.4955   10.5327   24.8621 H         1 9MQ         0.0557
     76 H          31.9393   10.8834   20.5834 H         1 9MQ         0.0557
     77 H          34.1279    8.6712   24.5325 H         1 9MQ         0.0599
     78 H          33.5679    9.0150   20.2413 H         1 9MQ         0.0599
     79 H          34.6705    7.9126   22.1897 H         1 9MQ         0.0559
@<TRIPOS>BOND
     1    1    2 1  
     2   18    1 1  
     3    2    3 1  
     4    2    4 1  
     5    3    5 1  
     6    4    6 1  
     7    5    7 1  
     8    5    8 ar 
     9    6    7 1  
    10    8    9 ar 
    11    8   10 ar 
    12   11   12 1  
    13   19   11 am 
    14   12   13 1  
    15   12   15 1  
    16   13   14 2  
    17   13   32 am 
    18   15   16 1  
    19   16   17 2  
    20   16   18 am 
    21   19   20 2  
    22   19   21 2  
    23   23   19 1  
    24   23   22 ar 
    25   22   30 ar 
    26   24   23 ar 
    27   25   24 ar 
    28   31   25 ar 
    29   26   27 ar 
    30   26   31 ar 
    31   27   28 ar 
    32   28   29 ar 
    33   29   30 ar 
    34   30   31 ar 
    35   32   33 1  
    36   32   34 1  
    37   33   35 1  
    38   34   36 1  
    39   35   37 ar 
    40   35   38 ar 
    41   36   39 ar 
    42   36   40 ar 
    43   37   41 ar 
    44   38   42 ar 
    45   41   43 ar 
    46   42   43 ar 
    47    1   44 1  
    48    1   45 1  
    49    2   46 1  
    50    3   47 1  
    51    3   48 1  
    52    4   49 1  
    53    4   50 1  
    54    6   51 1  
    55    6   52 1  
    56    7   53 1  
    57    7   54 1  
    58    9   55 1  
    59    9   56 1  
    60   10   57 1  
    61   10   58 1  
    62   11   59 1  
    63   12   60 1  
    64   15   61 1  
    65   15   62 1  
    66   18   63 1  
    67   22   64 1  
    68   24   65 1  
    69   25   66 1  
    70   26   67 1  
    71   27   68 1  
    72   28   69 1  
    73   29   70 1  
    74   33   71 1  
    75   33   72 1  
    76   34   73 1  
    77   34   74 1  
    78   37   75 1  
    79   38   76 1  
    80   41   77 1  
    81   42   78 1  
    82   43   79 1  
@<TRIPOS>SUBSTRUCTURE
     1 9MQ         1

