### 
### Created by X-TOOL on Mon Sep 10 21:13:08 2018
### 

@<TRIPOS>MOLECULE
4ayy_ligand
   79    82     1     0     0
SMALL
GAST_HUCK


@<TRIPOS>ATOM
      1 C20        29.5640   17.7300   23.4910 C.3       1 9MX         0.0369
      2 C27        30.9530   18.3840   23.6240 C.3       1 9MX         0.0124
      3 C32        31.3890   18.3680   25.0910 C.3       1 9MX         0.0695
      4 C33        31.9960   17.6880   22.7530 C.3       1 9MX        -0.0420
      5 N37        32.6740   18.9930   25.3520 N.pl3     1 9MX        -0.2594
      6 C38        33.4130   18.0870   23.1160 C.3       1 9MX        -0.0192
      7 C40        33.4670   19.2010   24.1530 C.3       1 9MX         0.0649
      8 C41        32.5850   20.0970   26.3130 C.cat     1 9MX         0.2903
      9 N43        31.2670   20.3120   26.8370 N.pl3     1 9MX        -0.2848
     10 N42        33.6300   20.8030   26.6660 N.pl3     1 9MX        -0.2848
     11 N3         29.4700   13.4370   26.6140 N.am      1 9MX        -0.2232
     12 C1         29.6730   13.3400   25.1930 C.3       1 9MX         0.1431
     13 C2         31.1430   13.7460   24.8330 C.2       1 9MX         0.2043
     14 O6         31.7370   14.6350   25.4800 O.2       1 9MX        -0.3945
     15 C4         28.6260   14.0900   24.3030 C.3       1 9MX         0.0740
     16 C8         28.6610   15.6220   24.3470 C.2       1 9MX         0.1801
     17 O15        27.9170   16.2470   25.1430 O.2       1 9MX        -0.3968
     18 N14        29.5030   16.2970   23.4930 N.am      1 9MX        -0.2864
     19 S7         29.1590   12.2070   27.6450 S.o2      1 9MX         0.0706
     20 O12        28.8270   12.7870   28.8980 O.2       1 9MX        -0.1501
     21 O13        28.2170   11.3520   27.0330 O.2       1 9MX        -0.1501
     22 C18        30.7720   10.0930   27.2600 C.ar      1 9MX        -0.0274
     23 C11        30.5840   11.3240   27.8610 C.ar      1 9MX         0.1089
     24 C19        31.6070   11.8410   28.7060 C.ar      1 9MX        -0.0345
     25 C26        32.7700   11.1520   28.9240 C.ar      1 9MX        -0.0522
     26 C35        34.1730    9.1510   28.5150 C.ar      1 9MX        -0.0540
     27 C39        34.3360    7.9290   27.9000 C.ar      1 9MX        -0.0612
     28 C36        33.3310    7.3820   27.0600 C.ar      1 9MX        -0.0612
     29 C31        32.1680    8.0830   26.8470 C.ar      1 9MX        -0.0540
     30 C25        31.9650    9.3530   27.4650 C.ar      1 9MX        -0.0160
     31 C30        32.9790    9.8910   28.3080 C.ar      1 9MX        -0.0178
     32 N5         31.7810   13.0840   23.8000 N.am      1 9MX        -0.2558
     33 C21        31.0250   12.4100   22.7610 C.3       1 9MX         0.0973
     34 C28        31.5490   10.9830   22.5040 C.3       1 9MX        -0.0151
     35 C10        33.0650   10.9090   22.3340 C.3       1 9MX        -0.0384
     36 C16        33.8230   11.7880   23.3200 C.3       1 9MX        -0.0296
     37 C9         33.1940   13.1710   23.4970 C.3       1 9MX         0.0363
     38 C17        30.9370   13.2140   21.4660 C.2       1 9MX         0.0603
     39 O23        31.1350   12.4680   20.3380 O.co2     1 9MX        -0.5666
     40 O24        30.7180   14.4300   21.3340 O.co2     1 9MX        -0.5666
     41 C29        33.5290    9.4700   22.4580 C.3       1 9MX        -0.0622
     42 H          29.1872   18.0380   22.5157 H         1 9MX         0.0524
     43 H          29.0047   18.0484   24.3707 H         1 9MX         0.0524
     44 H          30.8759   19.4138   23.2752 H         1 9MX         0.0354
     45 H          31.4813   17.3217   25.3821 H         1 9MX         0.0694
     46 H          30.6429   18.9340   25.6488 H         1 9MX         0.0694
     47 H          31.8188   17.9792   21.7177 H         1 9MX         0.0271
     48 H          31.8992   16.6131   22.9055 H         1 9MX         0.0271
     49 H          33.8990   18.4507   22.2107 H         1 9MX         0.0299
     50 H          33.9070   17.2128   23.5401 H         1 9MX         0.0299
     51 H          34.5049   19.2654   24.4796 H         1 9MX         0.0690
     52 H          33.0628   20.0900   23.6689 H         1 9MX         0.0690
     53 H          31.1051   21.0485   27.5239 H         1 9MX         0.2615
     54 H          30.4917   19.7284   26.5227 H         1 9MX         0.2615
     55 H          33.5311   21.5537   27.3494 H         1 9MX         0.2615
     56 H          34.5428   20.6021   26.2575 H         1 9MX         0.2615
     57 H          29.5260   14.3708   27.0207 H         1 9MX         0.1707
     58 H          29.5061   12.2915   24.9464 H         1 9MX         0.0779
     59 H          27.6459   13.8000   24.6817 H         1 9MX         0.0547
     60 H          28.8522   13.8129   23.2734 H         1 9MX         0.0547
     61 H          30.0938   15.7692   22.8505 H         1 9MX         0.1851
     62 H          29.9911    9.6846   26.6185 H         1 9MX         0.0643
     63 H          31.4610   12.8067   29.1900 H         1 9MX         0.0637
     64 H          33.5377   11.5736   29.5728 H         1 9MX         0.0624
     65 H          34.9580    9.5484   29.1583 H         1 9MX         0.0624
     66 H          35.2574    7.3697   28.0621 H         1 9MX         0.0618
     67 H          33.4807    6.4116   26.5866 H         1 9MX         0.0618
     68 H          31.3953    7.6657   26.2014 H         1 9MX         0.0624
     69 H          30.0064   12.3269   23.1399 H         1 9MX         0.0728
     70 H          31.0987   10.6320   21.5755 H         1 9MX         0.0308
     71 H          31.2878   10.3779   23.3722 H         1 9MX         0.0308
     72 H          33.2890   11.2916   21.3382 H         1 9MX         0.0301
     73 H          34.8310   11.9299   22.9303 H         1 9MX         0.0287
     74 H          33.8057   11.2897   24.2893 H         1 9MX         0.0287
     75 H          33.6925   13.6704   24.3278 H         1 9MX         0.0524
     76 H          33.3111   13.7226   22.5642 H         1 9MX         0.0524
     77 H          33.2577    9.0856   23.4412 H         1 9MX         0.0232
     78 H          33.0503    8.8674   21.6861 H         1 9MX         0.0232
     79 H          34.6112    9.4267   22.3355 H         1 9MX         0.0232
@<TRIPOS>BOND
     1    1    2 1  
     2   18    1 1  
     3    2    3 1  
     4    2    4 1  
     5    3    5 1  
     6    4    6 1  
     7    5    7 1  
     8    5    8 ar 
     9    6    7 1  
    10    8    9 ar 
    11    8   10 ar 
    12   11   12 1  
    13   19   11 am 
    14   12   13 1  
    15   12   15 1  
    16   13   14 2  
    17   13   32 am 
    18   15   16 1  
    19   16   17 2  
    20   16   18 am 
    21   19   20 2  
    22   19   21 2  
    23   23   19 1  
    24   23   22 ar 
    25   22   30 ar 
    26   24   23 ar 
    27   25   24 ar 
    28   31   25 ar 
    29   26   27 ar 
    30   26   31 ar 
    31   27   28 ar 
    32   28   29 ar 
    33   29   30 ar 
    34   30   31 ar 
    35   32   33 1  
    36   32   37 1  
    37   33   34 1  
    38   33   38 1  
    39   34   35 1  
    40   35   36 1  
    41   35   41 1  
    42   36   37 1  
    43   38   39 ar 
    44   38   40 ar 
    45    1   42 1  
    46    1   43 1  
    47    2   44 1  
    48    3   45 1  
    49    3   46 1  
    50    4   47 1  
    51    4   48 1  
    52    6   49 1  
    53    6   50 1  
    54    7   51 1  
    55    7   52 1  
    56    9   53 1  
    57    9   54 1  
    58   10   55 1  
    59   10   56 1  
    60   11   57 1  
    61   12   58 1  
    62   15   59 1  
    63   15   60 1  
    64   18   61 1  
    65   22   62 1  
    66   24   63 1  
    67   25   64 1  
    68   26   65 1  
    69   27   66 1  
    70   28   67 1  
    71   29   68 1  
    72   33   69 1  
    73   34   70 1  
    74   34   71 1  
    75   35   72 1  
    76   36   73 1  
    77   36   74 1  
    78   37   75 1  
    79   37   76 1  
    80   41   77 1  
    81   41   78 1  
    82   41   79 1  
@<TRIPOS>SUBSTRUCTURE
     1 9MX         1

