### 
### Created by X-TOOL on Mon Sep 10 21:13:12 2018
### 

@<TRIPOS>MOLECULE
4az0_ligand
   45    47     1     0     0
SMALL
GAST_HUCK


@<TRIPOS>ATOM
      1 C26       -36.2270    9.5390   15.4780 C.3       1 S61        -0.0336
      2 C25       -35.0660    8.7130   15.9760 C.ar      1 S61        -0.0418
      3 C24       -35.2550    7.3440   16.1780 C.ar      1 S61        -0.0671
      4 C23       -34.2180    6.5230   16.5810 C.ar      1 S61        -0.0755
      5 C22       -32.9710    7.0520   16.7970 C.ar      1 S61        -0.0754
      6 C21       -32.7540    8.4080   16.6140 C.ar      1 S61        -0.0646
      7 C20       -33.7860    9.2540   16.2070 C.ar      1 S61        -0.0147
      8 C16       -33.5220   10.7350   15.9900 C.3       1 S61         0.0841
      9 C17       -32.0720   11.2100   15.7410 C.3       1 S61         0.0320
     10 C18       -31.4710   10.7410   14.4370 C.2       1 S61         0.0388
     11 O27       -30.3230   10.3620   14.3520 O.co2     1 S61        -0.5688
     12 O19       -32.2810   10.7940   13.4170 O.co2     1 S61        -0.5688
     13 N15       -34.0680   11.4350   17.1510 N.am      1 S61        -0.2716
     14 C14       -34.7000   12.6190   17.1910 C.2       1 S61         0.2075
     15 O28       -34.9970   13.2620   16.1840 O.2       1 S61        -0.3853
     16 C10       -34.9970   13.1500   18.5480 C.2       1 S61         0.0908
     17 N9        -34.7850   12.2670   19.5470 N.2       1 S61        -0.1991
     18 C11       -35.4520   14.3870   19.0370 C.2       1 S61        -0.0027
     19 C12       -35.5280   14.2680   20.4140 C.2       1 S61         0.2248
     20 O13       -35.8900   15.0890   21.4200 O.3       1 S61        -0.3003
     21 N7        -35.1130   12.9690   20.6940 N.pl3     1 S61        -0.1288
     22 C5        -34.9930   12.3210   21.9540 C.ar      1 S61         0.1477
     23 C4        -33.7530   12.2720   22.5890 C.ar      1 S61        -0.0272
     24 C3        -33.6390   11.6950   23.8500 C.ar      1 S61        -0.0700
     25 C2        -34.7470   11.1610   24.4860 C.ar      1 S61        -0.0706
     26 C1        -35.9890   11.1890   23.8720 C.ar      1 S61        -0.0320
     27 C6        -36.0910   11.7630   22.6290 C.ar      1 S61         0.1677
     28 F8        -37.3000   11.8050   22.0260 F         1 S61        -0.1857
     29 H         -36.5533    9.1585   14.5101 H         1 S61         0.0376
     30 H         -37.0491    9.4749   16.1909 H         1 S61         0.0376
     31 H         -35.9142   10.5780   15.3747 H         1 S61         0.0376
     32 H         -36.2426    6.9129   16.0142 H         1 S61         0.0537
     33 H         -34.3912    5.4568   16.7269 H         1 S61         0.0541
     34 H         -32.1516    6.4061   17.1123 H         1 S61         0.0541
     35 H         -31.7608    8.8206   16.7909 H         1 S61         0.0538
     36 H         -34.0009   10.9657   15.0384 H         1 S61         0.0722
     37 H         -31.4595   10.7941   16.5410 H         1 S61         0.0474
     38 H         -32.0959   12.2992   15.7064 H         1 S61         0.0474
     39 H         -33.9541   10.9625   18.0478 H         1 S61         0.1874
     40 H         -35.6975   15.2694   18.4460 H         1 S61         0.0244
     41 H         -35.1492   15.2045   22.0196 H         1 S61         0.2554
     42 H         -32.8725   12.6858   22.0975 H         1 S61         0.0573
     43 H         -32.6671   11.6630   24.3424 H         1 S61         0.0565
     44 H         -34.6417   10.7160   25.4754 H         1 S61         0.0547
     45 H         -36.8643   10.7653   24.3643 H         1 S61         0.0585
@<TRIPOS>BOND
     1    1    2 1  
     2    2    3 ar 
     3    2    7 ar 
     4    3    4 ar 
     5    4    5 ar 
     6    5    6 ar 
     7    6    7 ar 
     8    7    8 1  
     9    8    9 1  
    10    8   13 1  
    11    9   10 1  
    12   10   11 ar 
    13   10   12 ar 
    14   13   14 am 
    15   14   15 2  
    16   14   16 1  
    17   16   17 2  
    18   16   18 1  
    19   17   21 1  
    20   18   19 2  
    21   19   20 1  
    22   19   21 1  
    23   21   22 1  
    24   22   23 ar 
    25   22   27 ar 
    26   23   24 ar 
    27   24   25 ar 
    28   25   26 ar 
    29   26   27 ar 
    30   27   28 1  
    31    1   29 1  
    32    1   30 1  
    33    1   31 1  
    34    3   32 1  
    35    4   33 1  
    36    5   34 1  
    37    6   35 1  
    38    8   36 1  
    39    9   37 1  
    40    9   38 1  
    41   13   39 1  
    42   18   40 1  
    43   20   41 1  
    44   23   42 1  
    45   24   43 1  
    46   25   44 1  
    47   26   45 1  
@<TRIPOS>SUBSTRUCTURE
     1 S61         1

