### 
### Created by X-TOOL on Mon Sep 10 21:13:08 2018
### 

@<TRIPOS>MOLECULE
4az2_ligand
   67    70     1     0     0
SMALL
GAST_HUCK


@<TRIPOS>ATOM
      1 N12        30.4020   13.2940   24.1520 N.am      1 9MU        -0.2235
      2 C15        29.4670   13.7990   25.2030 C.3       1 9MU         0.1356
      3 C17        29.1270   15.2790   24.9440 C.2       1 9MU         0.1998
      4 O20        28.3660   15.8740   25.7070 O.2       1 9MU        -0.3948
      5 C16        28.1650   12.9530   25.3460 C.3       1 9MU         0.0179
      6 C18        28.5550   11.6340   26.0070 C.ar      1 9MU        -0.0390
      7 C21        28.7050   11.5810   27.4570 C.ar      1 9MU        -0.0601
      8 C22        28.8520   10.4580   25.2160 C.ar      1 9MU        -0.0601
      9 C24        29.1620   10.3850   28.0920 C.ar      1 9MU        -0.0686
     10 C25        29.3030    9.2690   25.8610 C.ar      1 9MU        -0.0686
     11 C27        29.4600    9.2360   27.2820 C.ar      1 9MU        -0.0687
     12 S11        32.0500   13.2000   24.4410 S.o2      1 9MU         0.0706
     13 O14        32.3020   14.2650   25.3840 O.2       1 9MU        -0.1501
     14 O13        32.7500   13.1370   23.2370 O.2       1 9MU        -0.1501
     15 C3         32.4710   11.6600   26.6110 C.ar      1 9MU        -0.0274
     16 C7         32.3400   11.7490   25.2160 C.ar      1 9MU         0.1089
     17 C9         32.5770   10.5550   24.4440 C.ar      1 9MU        -0.0345
     18 C5         32.9460    9.3510   25.0250 C.ar      1 9MU        -0.0522
     19 C6         33.4770    8.0490   27.0660 C.ar      1 9MU        -0.0540
     20 C10        33.5990    8.0170   28.4400 C.ar      1 9MU        -0.0612
     21 C8         33.3620    9.1710   29.2380 C.ar      1 9MU        -0.0612
     22 C4         32.9980   10.3650   28.6510 C.ar      1 9MU        -0.0540
     23 C1         32.8570   10.4400   27.2300 C.ar      1 9MU        -0.0160
     24 C2         33.0980    9.2720   26.4330 C.ar      1 9MU        -0.0178
     25 N19        29.7300   15.8930   23.8630 N.am      1 9MU        -0.2849
     26 C23        29.5070   17.3030   23.5000 C.3       1 9MU         0.0369
     27 C26        30.7560   18.2080   23.7690 C.3       1 9MU         0.0124
     28 C28        31.1850   18.1050   25.2770 C.3       1 9MU         0.0695
     29 C29        31.9300   17.8520   22.8110 C.3       1 9MU        -0.0420
     30 N30        32.3940   18.9750   25.4330 N.pl3     1 9MU        -0.2594
     31 C31        33.1550   18.7320   23.1060 C.3       1 9MU        -0.0192
     32 C32        33.5990   18.6520   24.6080 C.3       1 9MU         0.0649
     33 C33        32.3420   20.0960   26.3190 C.cat     1 9MU         0.2903
     34 N34        33.4560   20.8780   26.4390 N.pl3     1 9MU        -0.2848
     35 N35        31.2690   20.3120   26.9520 N.pl3     1 9MU        -0.2848
     36 H          30.0322   13.0028   23.2471 H         1 9MU         0.1708
     37 H          29.9914   13.7011   26.1535 H         1 9MU         0.0776
     38 H          27.7136   12.7748   24.3700 H         1 9MU         0.0469
     39 H          27.4277   13.4820   25.9498 H         1 9MU         0.0469
     40 H          28.4674   12.4579   28.0592 H         1 9MU         0.0557
     41 H          28.7314   10.4816   24.1329 H         1 9MU         0.0557
     42 H          29.2827   10.3449   29.1746 H         1 9MU         0.0599
     43 H          29.5289    8.3822   25.2689 H         1 9MU         0.0599
     44 H          29.8124    8.3219   27.7598 H         1 9MU         0.0559
     45 H          32.2743   12.5374   27.2271 H         1 9MU         0.0643
     46 H          32.4617   10.6002   23.3611 H         1 9MU         0.0637
     47 H          33.1180    8.4718   24.4041 H         1 9MU         0.0624
     48 H          33.6670    7.1546   26.4727 H         1 9MU         0.0624
     49 H          33.8841    7.0842   28.9264 H         1 9MU         0.0618
     50 H          33.4689    9.1111   30.3211 H         1 9MU         0.0618
     51 H          32.8189   11.2463   29.2668 H         1 9MU         0.0624
     52 H          30.3635   15.3403   23.2854 H         1 9MU         0.1851
     53 H          28.6868   17.6781   24.1121 H         1 9MU         0.0524
     54 H          29.2927   17.3413   22.4320 H         1 9MU         0.0524
     55 H          30.4835   19.2434   23.5643 H         1 9MU         0.0354
     56 H          31.4073   17.0736   25.5509 H         1 9MU         0.0694
     57 H          30.3804   18.4317   25.9358 H         1 9MU         0.0694
     58 H          31.6113   18.0237   21.7829 H         1 9MU         0.0271
     59 H          32.2021   16.8069   22.9590 H         1 9MU         0.0271
     60 H          32.8886   19.7660   22.8872 H         1 9MU         0.0299
     61 H          33.9816   18.3777   22.4901 H         1 9MU         0.0299
     62 H          33.9776   17.6584   24.8477 H         1 9MU         0.0690
     63 H          34.4072   19.3547   24.8110 H         1 9MU         0.0690
     64 H          34.2954   20.6554   25.9040 H         1 9MU         0.2615
     65 H          33.4482   21.6844   27.0635 H         1 9MU         0.2615
     66 H          30.4680   19.6936   26.8240 H         1 9MU         0.2615
     67 H          31.2044   21.1047   27.5906 H         1 9MU         0.2615
@<TRIPOS>BOND
     1    1    2 1  
     2   12    1 am 
     3    2    3 1  
     4    2    5 1  
     5    3    4 2  
     6    3   25 am 
     7    5    6 1  
     8    6    7 ar 
     9    6    8 ar 
    10    7    9 ar 
    11    8   10 ar 
    12    9   11 ar 
    13   10   11 ar 
    14   12   13 2  
    15   12   14 2  
    16   16   12 1  
    17   16   15 ar 
    18   15   23 ar 
    19   17   16 ar 
    20   18   17 ar 
    21   24   18 ar 
    22   19   20 ar 
    23   19   24 ar 
    24   20   21 ar 
    25   21   22 ar 
    26   22   23 ar 
    27   23   24 ar 
    28   25   26 1  
    29   26   27 1  
    30   27   28 1  
    31   27   29 1  
    32   28   30 1  
    33   29   31 1  
    34   30   32 1  
    35   30   33 ar 
    36   31   32 1  
    37   33   34 ar 
    38   33   35 ar 
    39    1   36 1  
    40    2   37 1  
    41    5   38 1  
    42    5   39 1  
    43    7   40 1  
    44    8   41 1  
    45    9   42 1  
    46   10   43 1  
    47   11   44 1  
    48   15   45 1  
    49   17   46 1  
    50   18   47 1  
    51   19   48 1  
    52   20   49 1  
    53   21   50 1  
    54   22   51 1  
    55   25   52 1  
    56   26   53 1  
    57   26   54 1  
    58   27   55 1  
    59   28   56 1  
    60   28   57 1  
    61   29   58 1  
    62   29   59 1  
    63   31   60 1  
    64   31   61 1  
    65   32   62 1  
    66   32   63 1  
    67   34   64 1  
    68   34   65 1  
    69   35   66 1  
    70   35   67 1  
@<TRIPOS>SUBSTRUCTURE
     1 9MU         1

