### 
### Created by X-TOOL on Mon Sep 10 21:13:09 2018
### 

@<TRIPOS>MOLECULE
4az3_ligand
   64    66     1     0     0
SMALL
GAST_HUCK


@<TRIPOS>ATOM
      1 C35       -36.2570    9.5860   15.4020 C.3       1 S35        -0.0336
      2 C30       -35.0480    8.7390   15.8270 C.ar      1 S35        -0.0418
      3 C31       -35.2460    7.3580   15.9480 C.ar      1 S35        -0.0671
      4 C32       -34.1980    6.5160   16.3310 C.ar      1 S35        -0.0755
      5 C33       -32.9390    7.0600   16.5960 C.ar      1 S35        -0.0754
      6 C34       -32.7350    8.4370   16.4730 C.ar      1 S35        -0.0646
      7 C29       -33.7740    9.2990   16.0790 C.ar      1 S35        -0.0147
      8 C24       -33.5290   10.8340   15.9660 C.3       1 S35         0.0841
      9 C25       -32.0610   11.2200   15.6830 C.3       1 S35         0.0320
     10 C26       -31.5580   10.8240   14.2860 C.2       1 S35         0.0388
     11 O28       -32.3350   10.9850   13.3220 O.co2     1 S35        -0.5688
     12 O27       -30.3800   10.4170   14.2100 O.co2     1 S35        -0.5688
     13 N23       -33.9400   11.4910   17.2190 N.am      1 S35        -0.2716
     14 C21       -34.5870   12.6590   17.3070 C.2       1 S35         0.2075
     15 O22       -34.9460   13.3540   16.3530 O.2       1 S35        -0.3853
     16 C10       -34.8410   13.1040   18.7530 C.2       1 S35         0.0909
     17 N9        -34.7920   12.2730   19.7910 N.2       1 S35        -0.1991
     18 C11       -35.0910   14.3430   19.1730 C.2       1 S35        -0.0025
     19 C12       -35.2330   14.2080   20.4940 C.2       1 S35         0.2274
     20 O13       -35.4530   15.2000   21.4170 O.3       1 S35        -0.2817
     21 C14       -36.4210   16.2360   21.0980 C.3       1 S35         0.1023
     22 C15       -35.7530   17.6350   21.1320 C.3       1 S35         0.0882
     23 C17       -36.6870   18.8680   21.3740 C.3       1 S35        -0.0091
     24 C19       -35.9900   20.1210   20.8340 C.3       1 S35        -0.0576
     25 C20       -38.0300   18.7430   20.6350 C.3       1 S35        -0.0576
     26 C18       -36.9720   19.0880   22.8700 C.3       1 S35        -0.0576
     27 O16       -34.6310   17.6280   22.0330 O.3       1 S35        -0.3886
     28 N8        -34.9870   12.9340   20.8080 N.pl3     1 S35        -0.1286
     29 C6        -35.0460   12.3890   22.0230 C.ar      1 S35         0.1477
     30 C5        -33.8760   12.1840   22.7630 C.ar      1 S35        -0.0272
     31 C4        -33.9450   11.5770   24.0220 C.ar      1 S35        -0.0700
     32 C3        -35.1770   11.1610   24.5370 C.ar      1 S35        -0.0706
     33 C2        -36.3450   11.3540   23.7920 C.ar      1 S35        -0.0320
     34 C1        -36.2770   11.9570   22.5300 C.ar      1 S35         0.1677
     35 F7        -37.4020   12.1360   21.8080 F         1 S35        -0.1857
     36 H1        -37.1319    8.9334   15.2651 H         1 S35         0.0376
     37 H2        -36.0307   10.0992   14.4557 H         1 S35         0.0376
     38 H3        -36.4742   10.3318   16.1808 H         1 S35         0.0376
     39 H4        -36.2235    6.9370   15.7422 H         1 S35         0.0537
     40 H5        -34.3612    5.4482   16.4217 H         1 S35         0.0541
     41 H6        -32.1214    6.4149   16.8966 H         1 S35         0.0541
     42 H7        -31.7553    8.8494   16.6857 H         1 S35         0.0538
     43 H8        -34.1484   11.2146   15.1405 H         1 S35         0.0722
     44 H9        -31.4247   10.7243   16.4309 H         1 S35         0.0474
     45 H10       -31.9662   12.3110   15.7861 H         1 S35         0.0474
     46 H11       -33.7168   11.0252   18.0753 H         1 S35         0.1874
     47 H12       -35.1628   15.2527   18.5786 H         1 S35         0.0244
     48 H13       -37.2376   16.2072   21.8345 H         1 S35         0.0647
     49 H14       -36.8276   16.0538   20.0923 H         1 S35         0.0647
     50 H15       -35.3399   17.7843   20.1235 H         1 S35         0.0626
     51 H16       -36.6342   20.9977   20.9966 H         1 S35         0.0236
     52 H17       -35.8005   19.9999   19.7573 H         1 S35         0.0236
     53 H18       -35.0350   20.2651   21.3605 H         1 S35         0.0236
     54 H19       -38.5649   17.8517   20.9948 H         1 S35         0.0236
     55 H20       -37.8466   18.6492   19.5545 H         1 S35         0.0236
     56 H21       -38.6391   19.6386   20.8272 H         1 S35         0.0236
     57 H22       -36.0208   19.1797   23.4148 H         1 S35         0.0236
     58 H23       -37.5396   18.2325   23.2648 H         1 S35         0.0236
     59 H24       -37.5592   20.0090   22.9999 H         1 S35         0.0236
     60 H25       -34.0892   16.8679   21.8564 H         1 S35         0.2099
     61 H26       -32.9182   12.4948   22.3617 H         1 S35         0.0573
     62 H27       -33.0402   11.4287   24.6003 H         1 S35         0.0565
     63 H28       -35.2266   10.6898   25.5120 H         1 S35         0.0547
     64 H29       -37.3017   11.0371   24.1911 H         1 S35         0.0585
@<TRIPOS>BOND
     1    1    2 1  
     2    2    3 ar 
     3    2    7 ar 
     4    3    4 ar 
     5    4    5 ar 
     6    5    6 ar 
     7    6    7 ar 
     8    7    8 1  
     9    8    9 1  
    10    8   13 1  
    11    9   10 1  
    12   10   11 ar 
    13   10   12 ar 
    14   13   14 am 
    15   14   15 2  
    16   14   16 1  
    17   16   17 2  
    18   16   18 1  
    19   17   28 1  
    20   18   19 2  
    21   19   20 1  
    22   19   28 1  
    23   20   21 1  
    24   21   22 1  
    25   22   23 1  
    26   22   27 1  
    27   23   24 1  
    28   23   25 1  
    29   23   26 1  
    30   28   29 1  
    31   29   30 ar 
    32   29   34 ar 
    33   30   31 ar 
    34   31   32 ar 
    35   32   33 ar 
    36   33   34 ar 
    37   34   35 1  
    38    1   36 1  
    39    1   37 1  
    40    1   38 1  
    41    3   39 1  
    42    4   40 1  
    43    5   41 1  
    44    6   42 1  
    45    8   43 1  
    46    9   44 1  
    47    9   45 1  
    48   13   46 1  
    49   18   47 1  
    50   21   48 1  
    51   21   49 1  
    52   22   50 1  
    53   24   51 1  
    54   24   52 1  
    55   24   53 1  
    56   25   54 1  
    57   25   55 1  
    58   25   56 1  
    59   26   57 1  
    60   26   58 1  
    61   26   59 1  
    62   27   60 1  
    63   30   61 1  
    64   31   62 1  
    65   32   63 1  
    66   33   64 1  
@<TRIPOS>SUBSTRUCTURE
     1 S35         1

