### 
### Created by X-TOOL on Mon Sep 10 21:13:12 2018
### 

@<TRIPOS>MOLECULE
4az5_ligand
   30    31     1     0     0
SMALL
GAST_HUCK


@<TRIPOS>ATOM
      1 O4         14.3680   30.8060   26.0800 O.3       1 NGW        -0.3864
      2 C4         15.3180   29.8140   25.7090 C.3       1 NGW         0.1146
      3 C3         14.9360   29.2450   24.3490 C.3       1 NGW         0.1290
      4 C5         16.7180   30.4870   25.6090 C.3       1 NGW         0.1117
      5 O3         13.7050   28.5150   24.4690 O.3       1 NGW        -0.3834
      6 C2         16.0260   28.2390   23.9430 C.3       1 NGW         0.0439
      7 N2         15.9270   27.8290   22.5270 N.4       1 NGW         0.2431
      8 C1         17.4920   28.7710   24.0720 C.3       1 NGW         0.1543
      9 C7         16.3340   28.9530   21.6680 C.3       1 NGW         0.0249
     10 C8         16.7000   28.5040   20.2530 C.3       1 NGW        -0.0116
     11 S1         17.6560   29.7980   22.5560 S.3       1 NGW        -0.0719
     12 O5         17.7180   29.5250   25.2620 O.3       1 NGW        -0.3520
     13 C6         17.2520   31.1690   26.8910 C.3       1 NGW         0.0730
     14 O6         17.2330   30.2290   27.9730 O.3       1 NGW        -0.3924
     15 H1         14.6013   31.1648   26.9281 H         1 NGW         0.2100
     16 H2         15.3384   29.0103   26.4597 H         1 NGW         0.0648
     17 H3         14.8416   30.0487   23.6039 H         1 NGW         0.0678
     18 H4         16.6538   31.2481   24.8174 H         1 NGW         0.0646
     19 H5         13.4652   28.1593   23.6214 H         1 NGW         0.2102
     20 H6         15.9090   27.3554   24.5876 H         1 NGW         0.0912
     21 H7         14.9756   27.5711   22.3164 H         1 NGW         0.2030
     22 H8         16.5334   27.0411   22.3610 H         1 NGW         0.2030
     23 H9         18.2058   27.9343   24.0517 H         1 NGW         0.0773
     24 H10        15.4863   29.6476   21.5735 H         1 NGW         0.0972
     25 H11        16.9954   29.3791   19.6556 H         1 NGW         0.0293
     26 H12        15.8307   28.0179   19.7861 H         1 NGW         0.0293
     27 H13        17.5373   27.7921   20.2992 H         1 NGW         0.0293
     28 H14        16.6148   32.0299   27.1415 H         1 NGW         0.0584
     29 H15        18.2830   31.5129   26.7216 H         1 NGW         0.0584
     30 H16        17.7835   29.4860   27.7552 H         1 NGW         0.2095
@<TRIPOS>BOND
     1    1    2 1  
     2    2    3 1  
     3    2    4 1  
     4    3    5 1  
     5    3    6 1  
     6    4   12 1  
     7    4   13 1  
     8    6    7 1  
     9    6    8 1  
    10    7    9 1  
    11    8   11 1  
    12    8   12 1  
    13    9   10 1  
    14    9   11 1  
    15   13   14 1  
    16    1   15 1  
    17    2   16 1  
    18    3   17 1  
    19    4   18 1  
    20    5   19 1  
    21    6   20 1  
    22    7   21 1  
    23    7   22 1  
    24    8   23 1  
    25    9   24 1  
    26   10   25 1  
    27   10   26 1  
    28   10   27 1  
    29   13   28 1  
    30   13   29 1  
    31   14   30 1  
@<TRIPOS>SUBSTRUCTURE
     1 NGW         1

