### 
### Created by X-TOOL on Mon Sep 10 21:13:12 2018
### 

@<TRIPOS>MOLECULE
4az6_ligand
   44    45     1     0     0
SMALL
GAST_HUCK


@<TRIPOS>ATOM
      1 CAH        16.6440   28.3000   20.6800 C.3       1 OAN         0.0258
      2 CAG        16.6780   28.5570   22.1850 C.2       1 OAN         0.1755
      3 OAN        17.3190   29.4780   22.6700 O.2       1 OAN        -0.3972
      4 NAI        15.9240   27.7410   22.9320 N.am      1 OAN        -0.2641
      5 CAB        15.7670   27.9320   24.3740 C.3       1 OAN         0.1483
      6 CAC        14.8260   29.1540   24.5970 C.3       1 OAN         0.1223
      7 OAJ        13.4560   28.7200   24.5300 O.3       1 OAN        -0.3842
      8 CAD        15.1110   29.7540   25.9620 C.3       1 OAN         0.1187
      9 OAK        14.2170   30.8200   26.2140 O.3       1 OAN        -0.3859
     10 CAE        16.5170   30.3370   25.8870 C.3       1 OAN         0.1375
     11 CAF        16.9500   31.0220   27.1510 C.3       1 OAN         0.0780
     12 OAM        16.9440   30.1440   28.2870 O.3       1 OAN        -0.3919
     13 OAL        17.4890   29.2220   25.6960 O.3       1 OAN        -0.2871
     14 CAA        17.0840   28.0710   25.1210 C.2       1 OAN         0.1893
     15 NAY        17.8700   27.0350   25.2180 N.2       1 OAN        -0.1541
     16 OAQ        19.0210   27.3280   25.9370 O.3       1 OAN        -0.1506
     17 CAP        19.6060   26.2770   26.5620 C.2       1 OAN         0.3788
     18 OAR        19.0500   25.1810   26.6520 O.2       1 OAN        -0.3643
     19 NAO        20.8270   26.5840   26.9810 N.am      1 OAN        -0.2057
     20 CAS        21.7170   25.8240   27.7060 C.ar      1 OAN         0.0683
     21 CAT        22.6870   26.4880   28.4290 C.ar      1 OAN        -0.0414
     22 CAU        23.6510   25.8660   29.2020 C.ar      1 OAN        -0.0756
     23 CAV        23.6480   24.4710   29.2540 C.ar      1 OAN        -0.0773
     24 CAW        22.6780   23.7710   28.5440 C.ar      1 OAN        -0.0756
     25 CAX        21.7150   24.4560   27.7890 C.ar      1 OAN        -0.0414
     26 H1         16.0092   27.4262   20.4715 H         1 OAN         0.0467
     27 H2         17.6645   28.1066   20.3179 H         1 OAN         0.0467
     28 H3         16.2337   29.1821   20.1665 H         1 OAN         0.0467
     29 H4         15.4534   26.9770   22.4905 H         1 OAN         0.1888
     30 H5         15.2654   27.0397   24.7766 H         1 OAN         0.0821
     31 H6         15.0096   29.9087   23.8181 H         1 OAN         0.0672
     32 H7         13.2868   28.3401   23.6759 H         1 OAN         0.2103
     33 H8         15.0356   28.9903   26.7501 H         1 OAN         0.0653
     34 H9         14.4009   31.1906   27.0692 H         1 OAN         0.2100
     35 H10        16.5670   31.0443   25.0461 H         1 OAN         0.0708
     36 H11        16.2650   31.8594   27.3499 H         1 OAN         0.0588
     37 H12        17.9703   31.4083   27.0102 H         1 OAN         0.0588
     38 H13        16.0652   29.8098   28.4228 H         1 OAN         0.2095
     39 H14        21.1467   27.4990   26.7347 H         1 OAN         0.2276
     40 H15        22.6940   27.5712   28.3884 H         1 OAN         0.0501
     41 H16        24.3860   26.4440   29.7504 H         1 OAN         0.0577
     42 H17        24.3908   23.9409   29.8392 H         1 OAN         0.0487
     43 H18        22.6664   22.6875   28.5746 H         1 OAN         0.0577
     44 H19        20.9543   23.8926   27.2608 H         1 OAN         0.0501
@<TRIPOS>BOND
     1    1    2 1  
     2    2    3 2  
     3    2    4 am 
     4    4    5 1  
     5    5    6 1  
     6    5   14 1  
     7    6    7 1  
     8    6    8 1  
     9    8    9 1  
    10    8   10 1  
    11   10   11 1  
    12   10   13 1  
    13   11   12 1  
    14   13   14 1  
    15   14   15 2  
    16   15   16 1  
    17   16   17 1  
    18   17   18 2  
    19   17   19 am 
    20   19   20 1  
    21   20   21 ar 
    22   20   25 ar 
    23   21   22 ar 
    24   22   23 ar 
    25   23   24 ar 
    26   24   25 ar 
    27    1   26 1  
    28    1   27 1  
    29    1   28 1  
    30    4   29 1  
    31    5   30 1  
    32    6   31 1  
    33    7   32 1  
    34    8   33 1  
    35    9   34 1  
    36   10   35 1  
    37   11   36 1  
    38   11   37 1  
    39   12   38 1  
    40   19   39 1  
    41   21   40 1  
    42   22   41 1  
    43   23   42 1  
    44   24   43 1  
    45   25   44 1  
@<TRIPOS>SUBSTRUCTURE
     1 OAN         1

