### 
### Created by X-TOOL on Mon Sep 10 21:13:13 2018
### 

@<TRIPOS>MOLECULE
4azb_ligand
   44    45     1     0     0
SMALL
GAST_HUCK


@<TRIPOS>ATOM
      1 CAH        36.2290   15.4990  -16.9760 C.3       1 OAN         0.0258
      2 CAG        36.0890   15.6870  -18.4950 C.2       1 OAN         0.1755
      3 OAN        35.1340   15.2160  -19.1050 O.2       1 OAN        -0.3972
      4 NAI        37.0720   16.3670  -19.0730 N.am      1 OAN        -0.2641
      5 CAB        37.0880   16.6630  -20.5130 C.3       1 OAN         0.1483
      6 CAC        36.1550   17.8340  -20.7770 C.3       1 OAN         0.1223
      7 OAJ        36.8930   19.0390  -20.6260 O.3       1 OAN        -0.3842
      8 CAD        35.6090   17.7210  -22.1930 C.3       1 OAN         0.1187
      9 OAK        34.8660   18.8830  -22.5290 O.3       1 OAN        -0.3859
     10 CAE        34.6940   16.5080  -22.2470 C.3       1 OAN         0.1375
     11 CAF        34.0150   16.3380  -23.6270 C.3       1 OAN         0.0780
     12 OAM        35.0190   16.1560  -24.6290 O.3       1 OAN        -0.3919
     13 OAL        35.4530   15.3260  -21.9630 O.3       1 OAN        -0.2871
     14 CAA        36.6650   15.4490  -21.3560 C.2       1 OAN         0.1893
     15 NAY        37.4820   14.4230  -21.5400 N.2       1 OAN        -0.1541
     16 OAQ        36.9510   13.4310  -22.3060 O.3       1 OAN        -0.1506
     17 CAP        37.8850   12.6740  -22.9320 C.2       1 OAN         0.3788
     18 OAR        39.0950   12.8000  -22.7140 O.2       1 OAN        -0.3643
     19 NAO        37.3980   11.7680  -23.7760 N.am      1 OAN        -0.2057
     20 CAS        36.0780   11.6710  -24.0140 C.ar      1 OAN         0.0683
     21 CAT        35.3040   10.7230  -23.3580 C.ar      1 OAN        -0.0414
     22 CAU        33.9460   10.6240  -23.6230 C.ar      1 OAN        -0.0756
     23 CAV        33.3400   11.4800  -24.5410 C.ar      1 OAN        -0.0773
     24 CAW        34.1070   12.4290  -25.2010 C.ar      1 OAN        -0.0756
     25 CAX        35.4720   12.5180  -24.9380 C.ar      1 OAN        -0.0414
     26 H1         37.1473   15.9948  -16.6283 H         1 OAN         0.0467
     27 H2         36.2812   14.4253  -16.7427 H         1 OAN         0.0467
     28 H3         35.3588   15.9424  -16.4699 H         1 OAN         0.0467
     29 H4         37.8306   16.6902  -18.5072 H         1 OAN         0.1888
     30 H5         38.1106   16.9464  -20.8027 H         1 OAN         0.0821
     31 H6         35.3216   17.8185  -20.0592 H         1 OAN         0.0672
     32 H7         37.2368   19.0898  -19.7418 H         1 OAN         0.2103
     33 H8         36.4396   17.5975  -22.9035 H         1 OAN         0.0653
     34 H9         34.5317   18.7988  -23.4142 H         1 OAN         0.2100
     35 H10        33.9115   16.6282  -21.4834 H         1 OAN         0.0708
     36 H11        33.4235   17.2361  -23.8585 H         1 OAN         0.0588
     37 H12        33.3540   15.4590  -23.6054 H         1 OAN         0.0588
     38 H13        35.5891   16.9156  -24.6461 H         1 OAN         0.2095
     39 H14        38.0267   11.1462  -24.2431 H         1 OAN         0.2276
     40 H15        35.7629   10.0575  -22.6358 H         1 OAN         0.0501
     41 H16        33.3515    9.8752  -23.1122 H         1 OAN         0.0577
     42 H17        32.2767   11.4047  -24.7379 H         1 OAN         0.0487
     43 H18        33.6461   13.0984  -25.9183 H         1 OAN         0.0577
     44 H19        36.0702   13.2564  -25.4595 H         1 OAN         0.0501
@<TRIPOS>BOND
     1    1    2 1  
     2    2    3 2  
     3    2    4 am 
     4    4    5 1  
     5    5    6 1  
     6    5   14 1  
     7    6    7 1  
     8    6    8 1  
     9    8    9 1  
    10    8   10 1  
    11   10   11 1  
    12   10   13 1  
    13   11   12 1  
    14   13   14 1  
    15   14   15 2  
    16   15   16 1  
    17   16   17 1  
    18   17   18 2  
    19   17   19 am 
    20   19   20 1  
    21   20   21 ar 
    22   20   25 ar 
    23   21   22 ar 
    24   22   23 ar 
    25   23   24 ar 
    26   24   25 ar 
    27    1   26 1  
    28    1   27 1  
    29    1   28 1  
    30    4   29 1  
    31    5   30 1  
    32    6   31 1  
    33    7   32 1  
    34    8   33 1  
    35    9   34 1  
    36   10   35 1  
    37   11   36 1  
    38   11   37 1  
    39   12   38 1  
    40   19   39 1  
    41   21   40 1  
    42   22   41 1  
    43   23   42 1  
    44   24   43 1  
    45   25   44 1  
@<TRIPOS>SUBSTRUCTURE
     1 OAN         1

