### 
### Created by X-TOOL on Mon Sep 10 21:13:14 2018
### 

@<TRIPOS>MOLECULE
4azc_ligand
   30    31     1     0     0
SMALL
GAST_HUCK


@<TRIPOS>ATOM
      1 O4        -31.9980  -22.2530  -51.7560 O.3       1 NGW        -0.3864
      2 C4        -32.6900  -22.5500  -52.9670 C.3       1 NGW         0.1146
      3 C3        -31.7360  -22.2960  -54.1220 C.3       1 NGW         0.1290
      4 C5        -33.1400  -24.0030  -52.9780 C.3       1 NGW         0.1117
      5 O3        -31.2800  -20.9300  -54.0710 O.3       1 NGW        -0.3834
      6 C2        -32.4100  -22.6430  -55.4800 C.3       1 NGW         0.0439
      7 N2        -31.4290  -22.6800  -56.5890 N.4       1 NGW         0.2431
      8 C1        -33.0720  -24.0470  -55.4600 C.3       1 NGW         0.1543
      9 C7        -30.5100  -23.8160  -56.3480 C.3       1 NGW         0.0249
     10 C8        -29.7360  -24.1800  -57.6230 C.3       1 NGW        -0.0116
     11 S1        -31.6270  -25.1380  -55.7860 S.3       1 NGW        -0.0719
     12 O5        -33.8140  -24.3720  -54.2120 O.3       1 NGW        -0.3520
     13 C6        -34.1530  -24.2970  -51.8560 C.3       1 NGW         0.0730
     14 O6        -35.3000  -23.4600  -51.9990 O.3       1 NGW        -0.3924
     15 H1        -32.5756  -22.4046  -51.0172 H         1 NGW         0.2100
     16 H2        -33.5701  -21.8968  -53.0605 H         1 NGW         0.0648
     17 H3        -30.8620  -22.9531  -54.0022 H         1 NGW         0.0678
     18 H4        -32.2507  -24.6367  -52.8453 H         1 NGW         0.0646
     19 H5        -30.6834  -20.7694  -54.7925 H         1 NGW         0.2102
     20 H6        -33.1741  -21.8802  -55.6905 H         1 NGW         0.0912
     21 H7        -30.9078  -21.8176  -56.6138 H         1 NGW         0.2030
     22 H8        -31.9087  -22.8081  -57.4662 H         1 NGW         0.2030
     23 H9        -33.7890  -24.1261  -56.2905 H         1 NGW         0.0773
     24 H10       -29.7871  -23.5683  -55.5568 H         1 NGW         0.0972
     25 H11       -29.0629  -25.0247  -57.4147 H         1 NGW         0.0293
     26 H12       -29.1449  -23.3131  -57.9533 H         1 NGW         0.0293
     27 H13       -30.4455  -24.4631  -58.4145 H         1 NGW         0.0293
     28 H14       -33.6818  -24.1048  -50.8808 H         1 NGW         0.0584
     29 H15       -34.4626  -25.3510  -51.9123 H         1 NGW         0.0584
     30 H16       -35.0343  -22.5494  -51.9491 H         1 NGW         0.2095
@<TRIPOS>BOND
     1    1    2 1  
     2    2    3 1  
     3    2    4 1  
     4    3    5 1  
     5    3    6 1  
     6    4   12 1  
     7    4   13 1  
     8    6    7 1  
     9    6    8 1  
    10    7    9 1  
    11    8   11 1  
    12    8   12 1  
    13    9   10 1  
    14    9   11 1  
    15   13   14 1  
    16    1   15 1  
    17    2   16 1  
    18    3   17 1  
    19    4   18 1  
    20    5   19 1  
    21    6   20 1  
    22    7   21 1  
    23    7   22 1  
    24    8   23 1  
    25    9   24 1  
    26   10   25 1  
    27   10   26 1  
    28   10   27 1  
    29   13   28 1  
    30   13   29 1  
    31   14   30 1  
@<TRIPOS>SUBSTRUCTURE
     1 NGW         1

