### 
### Created by X-TOOL on Mon Sep 10 21:13:11 2018
### 

@<TRIPOS>MOLECULE
4aze_ligand
   36    39     1     0     0
SMALL
GAST_HUCK


@<TRIPOS>ATOM
      1 CAA       -38.2640  -19.3670   25.0830 C.ar      1 3RA        -0.0360
      2 CAB       -38.0660  -18.0870   24.5790 C.ar      1 3RA        -0.0702
      3 CAC       -37.8160  -17.8390   23.2400 C.ar      1 3RA        -0.0723
      4 CAD       -37.7450  -18.9100   22.3760 C.ar      1 3RA        -0.0702
      5 CAE       -37.9340  -20.2030   22.8710 C.ar      1 3RA        -0.0360
      6 CAF       -38.1920  -20.4400   24.2190 C.ar      1 3RA         0.0722
      7 NAG       -38.3790  -21.6870   24.6360 N.pl3     1 3RA        -0.2341
      8 CAH       -37.8670  -22.1410   25.7720 C.2       1 3RA         0.1902
      9 NAI       -37.2150  -21.4330   26.6940 N.2       1 3RA        -0.2220
     10 CAJ       -36.8410  -22.2760   27.6490 C.2       1 3RA         0.1323
     11 CAK       -37.3080  -23.5170   27.2650 C.2       1 3RA         0.2464
     12 NAL       -37.9260  -23.4150   26.1070 N.2       1 3RA        -0.2645
     13 OAM       -37.1760  -24.5610   27.9020 O.2       1 3RA        -0.3094
     14 CAN       -36.1510  -22.1290   28.8580 C.3       1 3RA         0.0517
     15 CAO       -35.6010  -20.9340   29.3480 C.ar      1 3RA        -0.0390
     16 CAP       -35.8350  -19.6940   28.7680 C.ar      1 3RA        -0.0354
     17 CAQ       -35.2480  -18.5640   29.2960 C.ar      1 3RA         0.1183
     18 CAR       -34.4400  -18.6560   30.4200 C.ar      1 3RA         0.1173
     19 CAS       -34.2130  -19.8830   31.0090 C.ar      1 3RA        -0.0464
     20 CAT       -34.8010  -21.0200   30.4820 C.ar      1 3RA        -0.0757
     21 OAU       -35.3080  -17.2640   28.9090 O.3       1 3RA        -0.2924
     22 CAV       -34.1450  -16.6840   29.5010 C.3       1 3RA         0.1857
     23 OAW       -34.0000  -17.4170   30.7430 O.3       1 3RA        -0.2948
     24 H1        -38.4713  -19.5194   26.1360 H         1 3RA         0.0546
     25 H2        -38.1091  -17.2473   25.2632 H         1 3RA         0.0590
     26 H3        -37.6793  -16.8258   22.8797 H         1 3RA         0.0528
     27 H4        -37.5445  -18.7511   21.3226 H         1 3RA         0.0590
     28 H5        -37.8784  -21.0432   22.1883 H         1 3RA         0.0546
     29 H6        -38.9424  -22.3249   24.0558 H         1 3RA         0.2268
     30 H7        -35.3076  -22.8326   28.7976 H         1 3RA         0.0714
     31 H8        -36.8535  -22.4645   29.6351 H         1 3RA         0.0714
     32 H9        -36.4794  -19.6147   27.8999 H         1 3RA         0.0461
     33 H10       -33.5755  -19.9564   31.8826 H         1 3RA         0.0496
     34 H11       -34.6371  -21.9813   30.9553 H         1 3RA         0.0448
     35 H12       -34.2939  -15.6110   29.6922 H         1 3RA         0.0971
     36 H13       -33.2643  -16.8229   28.8568 H         1 3RA         0.0971
@<TRIPOS>BOND
     1    1    2 ar 
     2    1    6 ar 
     3    2    3 ar 
     4    3    4 ar 
     5    4    5 ar 
     6    5    6 ar 
     7    6    7 1  
     8    7    8 1  
     9    8    9 1  
    10    8   12 2  
    11    9   10 2  
    12   10   11 1  
    13   10   14 1  
    14   11   12 1  
    15   11   13 2  
    16   14   15 1  
    17   15   16 ar 
    18   15   20 ar 
    19   16   17 ar 
    20   17   18 ar 
    21   17   21 1  
    22   18   19 ar 
    23   18   23 1  
    24   19   20 ar 
    25   21   22 1  
    26   22   23 1  
    27    1   24 1  
    28    2   25 1  
    29    3   26 1  
    30    4   27 1  
    31    5   28 1  
    32    7   29 1  
    33   14   30 1  
    34   14   31 1  
    35   16   32 1  
    36   19   33 1  
    37   20   34 1  
    38   22   35 1  
    39   22   36 1  
@<TRIPOS>SUBSTRUCTURE
     1 3RA         1

