### 
### Created by X-TOOL on Mon Sep 10 21:13:16 2018
### 

@<TRIPOS>MOLECULE
4azi_ligand
   44    45     1     0     0
SMALL
GAST_HUCK


@<TRIPOS>ATOM
      1 CAH       -26.1750   34.9190   -7.4960 C.3       1 OAN         0.0258
      2 CAG       -25.1780   35.0420   -8.6580 C.2       1 OAN         0.1755
      3 OAN       -24.8670   34.0550   -9.3090 O.2       1 OAN        -0.3972
      4 NAI       -24.6960   36.2680   -8.8720 N.am      1 OAN        -0.2641
      5 CAB       -23.7380   36.6240   -9.9400 C.3       1 OAN         0.1483
      6 CAC       -24.4930   36.8620  -11.2490 C.3       1 OAN         0.1223
      7 OAJ       -25.0150   38.1970  -11.2590 O.3       1 OAN        -0.3842
      8 CAD       -23.5870   36.6550  -12.4540 C.3       1 OAN         0.1187
      9 OAK       -24.3570   36.9210  -13.6180 O.3       1 OAN        -0.3859
     10 CAE       -23.1000   35.1980  -12.4790 C.3       1 OAN         0.1375
     11 CAF       -22.1340   34.8640  -13.6200 C.3       1 OAN         0.0780
     12 OAM       -20.9100   35.5890  -13.4650 O.3       1 OAN        -0.3919
     13 OAL       -22.4720   34.7930  -11.2330 O.3       1 OAN        -0.2871
     14 CAA       -22.6320   35.5610  -10.1120 C.2       1 OAN         0.1893
     15 NAY       -21.7850   35.3510   -9.1270 N.2       1 OAN        -0.1541
     16 OAQ       -20.8320   34.4010   -9.3490 O.3       1 OAN        -0.1506
     17 CAP       -19.6470   34.6300   -8.7090 C.2       1 OAN         0.3788
     18 OAR       -18.7420   33.7970   -8.7850 O.2       1 OAN        -0.3643
     19 NAO       -19.5420   35.7810   -8.0270 N.am      1 OAN        -0.2057
     20 CAS       -18.4790   36.1640   -7.3030 C.ar      1 OAN         0.0683
     21 CAT       -18.6970   36.5720   -5.9870 C.ar      1 OAN        -0.0414
     22 CAU       -17.6310   36.9850   -5.1880 C.ar      1 OAN        -0.0756
     23 CAV       -16.3360   36.9890   -5.7030 C.ar      1 OAN        -0.0773
     24 CAW       -16.1070   36.5830   -7.0250 C.ar      1 OAN        -0.0756
     25 CAX       -17.1760   36.1730   -7.8270 C.ar      1 OAN        -0.0414
     26 H1        -26.3262   35.9069   -7.0365 H         1 OAN         0.0467
     27 H2        -25.7773   34.2218   -6.7438 H         1 OAN         0.0467
     28 H3        -27.1355   34.5403   -7.8755 H         1 OAN         0.0467
     29 H4        -25.0058   36.9998   -8.2650 H         1 OAN         0.1888
     30 H5        -23.2487   37.5666   -9.6534 H         1 OAN         0.0821
     31 H6        -25.3285   36.1491  -11.3101 H         1 OAN         0.0672
     32 H7        -25.6071   38.3098  -10.5248 H         1 OAN         0.2103
     33 H8        -22.7248   37.3363  -12.4045 H         1 OAN         0.0653
     34 H9        -23.8156   36.7994  -14.3891 H         1 OAN         0.2100
     35 H10       -23.9963   34.5757  -12.6180 H         1 OAN         0.0708
     36 H11       -22.5979   35.1368  -14.5794 H         1 OAN         0.0588
     37 H12       -21.9200   33.7851  -13.6098 H         1 OAN         0.0588
     38 H13       -20.5063   35.3535  -12.6379 H         1 OAN         0.2095
     39 H14       -20.3218   36.4061   -8.0612 H         1 OAN         0.2276
     40 H15       -19.7026   36.5680   -5.5822 H         1 OAN         0.0501
     41 H16       -17.8097   37.3027   -4.1671 H         1 OAN         0.0577
     42 H17       -15.5063   37.3059   -5.0816 H         1 OAN         0.0487
     43 H18       -15.0998   36.5870   -7.4258 H         1 OAN         0.0577
     44 H19       -16.9997   35.8628   -8.8506 H         1 OAN         0.0501
@<TRIPOS>BOND
     1    1    2 1  
     2    2    3 2  
     3    2    4 am 
     4    4    5 1  
     5    5    6 1  
     6    5   14 1  
     7    6    7 1  
     8    6    8 1  
     9    8    9 1  
    10    8   10 1  
    11   10   11 1  
    12   10   13 1  
    13   11   12 1  
    14   13   14 1  
    15   14   15 2  
    16   15   16 1  
    17   16   17 1  
    18   17   18 2  
    19   17   19 am 
    20   19   20 1  
    21   20   21 ar 
    22   20   25 ar 
    23   21   22 ar 
    24   22   23 ar 
    25   23   24 ar 
    26   24   25 ar 
    27    1   26 1  
    28    1   27 1  
    29    1   28 1  
    30    4   29 1  
    31    5   30 1  
    32    6   31 1  
    33    7   32 1  
    34    8   33 1  
    35    9   34 1  
    36   10   35 1  
    37   11   36 1  
    38   11   37 1  
    39   12   38 1  
    40   19   39 1  
    41   21   40 1  
    42   22   41 1  
    43   23   42 1  
    44   24   43 1  
    45   25   44 1  
@<TRIPOS>SUBSTRUCTURE
     1 OAN         1

