### 
### Created by X-TOOL on Mon Sep 10 21:13:10 2018
### 

@<TRIPOS>MOLECULE
4azt_ligand
   40    43     1     0     0
SMALL
GAST_HUCK


@<TRIPOS>ATOM
      1 N14        15.7620  -56.0660   14.9240 N.pl3     1 LY2        -0.2584
      2 C15        15.2500  -54.6800   15.0640 C.3       1 LY2         0.0607
      3 C19        14.8350  -57.0760   14.3350 C.3       1 LY2         0.0607
      4 C11        16.9640  -56.0320   14.3210 C.2       1 LY2         0.2138
      5 C16        13.8200  -54.6340   15.4670 C.3       1 LY2         0.0689
      6 O17        13.0780  -55.3620   14.4770 O.3       1 LY2        -0.3756
      7 C18        13.3730  -56.7870   14.6880 C.3       1 LY2         0.0689
      8 C1         21.4440  -54.4580   12.7670 C.ar      1 LY2        -0.0650
      9 C2         20.8370  -55.7270   12.7960 C.ar      1 LY2        -0.0511
     10 C6         20.7670  -53.3280   13.2420 C.ar      1 LY2        -0.0555
     11 C3         19.5360  -55.8940   13.2810 C.ar      1 LY2         0.0550
     12 C4         18.8920  -54.7600   13.7570 C.ar      1 LY2         0.1607
     13 C9         18.8910  -57.1450   13.3360 C.2       1 LY2         0.0869
     14 C5         19.4590  -53.4990   13.7410 C.ar      1 LY2         0.0263
     15 O12        17.6080  -54.8260   14.2600 O.3       1 LY2        -0.2039
     16 C20        18.6700  -52.4650   14.2330 C.ar      1 LY2        -0.0190
     17 C25        18.7010  -51.1950   13.6520 C.ar      1 LY2        -0.0564
     18 C24        17.8770  -50.1540   14.1300 C.ar      1 LY2        -0.0628
     19 C21        17.7870  -52.7110   15.2910 C.ar      1 LY2        -0.0564
     20 C22        16.9760  -51.6740   15.7760 C.ar      1 LY2        -0.0628
     21 C23        17.0160  -50.3930   15.2040 C.ar      1 LY2        -0.0632
     22 C10        17.6030  -57.2030   13.8810 C.2       1 LY2         0.0079
     23 O13        19.3940  -58.1900   12.8940 O.2       1 LY2        -0.4341
     24 H1         15.3600  -54.1651   14.0982 H         1 LY2         0.0555
     25 H2         15.8474  -54.1597   15.8271 H         1 LY2         0.0555
     26 H3         15.1032  -58.0711   14.7195 H         1 LY2         0.0555
     27 H4         14.9452  -57.0637   13.2406 H         1 LY2         0.0555
     28 H5         13.4728  -53.5910   15.5071 H         1 LY2         0.0581
     29 H6         13.6911  -55.1016   16.4543 H         1 LY2         0.0581
     30 H7         13.1951  -57.0437   15.7427 H         1 LY2         0.0581
     31 H8         12.7165  -57.3938   14.0471 H         1 LY2         0.0581
     32 H9         22.4481  -54.3538   12.3721 H         1 LY2         0.0553
     33 H10        21.3868  -56.5893   12.4365 H         1 LY2         0.0641
     34 H11        21.2347  -52.3502   13.2266 H         1 LY2         0.0631
     35 H12        19.3694  -51.0060   12.8198 H         1 LY2         0.0609
     36 H13        17.9118  -49.1746   13.6666 H         1 LY2         0.0614
     37 H14        17.7301  -53.6988   15.7338 H         1 LY2         0.0609
     38 H15        16.3068  -51.8655   16.6070 H         1 LY2         0.0614
     39 H16        16.3870  -49.5993   15.5905 H         1 LY2         0.0605
     40 H17        17.0933  -58.1617   13.9644 H         1 LY2         0.0124
@<TRIPOS>BOND
     1    1    2 1  
     2    1    3 1  
     3    4    1 1  
     4    2    5 1  
     5    3    7 1  
     6   15    4 1  
     7    4   22 2  
     8    5    6 1  
     9    7    6 1  
    10    9    8 ar 
    11   10    8 ar 
    12   11    9 ar 
    13   14   10 ar 
    14   12   11 ar 
    15   11   13 1  
    16   12   14 ar 
    17   12   15 1  
    18   13   22 1  
    19   13   23 2  
    20   14   16 1  
    21   16   17 ar 
    22   16   19 ar 
    23   17   18 ar 
    24   18   21 ar 
    25   19   20 ar 
    26   20   21 ar 
    27    2   24 1  
    28    2   25 1  
    29    3   26 1  
    30    3   27 1  
    31    5   28 1  
    32    5   29 1  
    33    7   30 1  
    34    7   31 1  
    35    8   32 1  
    36    9   33 1  
    37   10   34 1  
    38   17   35 1  
    39   18   36 1  
    40   19   37 1  
    41   20   38 1  
    42   21   39 1  
    43   22   40 1  
@<TRIPOS>SUBSTRUCTURE
     1 LY2         1

