### 
### Created by X-TOOL on Mon Sep 10 21:13:09 2018
### 

@<TRIPOS>MOLECULE
4azy_ligand
   49    53     1     0     0
SMALL
GAST_HUCK


@<TRIPOS>ATOM
      1 C1          8.2810    3.0250  -18.2660 C.ar      1 7F3        -0.0444
      2 C2          7.7380    2.6200  -19.4940 C.ar      1 7F3        -0.0553
      3 C3          6.3820    2.8480  -19.7560 C.ar      1 7F3        -0.0314
      4 C4          5.5500    3.3770  -18.7610 C.ar      1 7F3         0.0685
      5 C5          6.0860    3.7580  -17.5170 C.ar      1 7F3         0.1558
      6 C6          7.4590    3.5860  -17.2770 C.ar      1 7F3        -0.0092
      7 F7          5.2880    4.3430  -16.5850 F         1 7F3        -0.1783
      8 C8          4.1840    3.3980  -19.3330 C.cat     1 7F3         0.2324
      9 N9          4.1810    2.9500  -20.5440 N.pl3     1 7F3        -0.3099
     10 C10         5.5350    2.5630  -20.9970 C.3       1 7F3         0.1245
     11 C11         5.7060    1.0900  -21.3190 C.ar      1 7F3        -0.0346
     12 C12         6.5160    0.6550  -22.3850 C.ar      1 7F3        -0.0503
     13 C13         6.7180   -0.7030  -22.6130 C.ar      1 7F3        -0.0044
     14 C14         6.1280   -1.6380  -21.7650 C.ar      1 7F3         0.1680
     15 C15         5.3320   -1.2260  -20.6780 C.ar      1 7F3         0.0500
     16 C16         5.1550    0.1470  -20.4700 C.ar      1 7F3        -0.0408
     17 C17         4.7120   -2.2120  -19.7110 C.ar      1 7F3         0.0397
     18 C18         5.4520   -3.2990  -19.1640 C.ar      1 7F3         0.0362
     19 N19         4.8990   -4.1080  -18.2490 N.ar      1 7F3        -0.2630
     20 C20         3.6430   -3.8390  -17.8710 C.ar      1 7F3         0.0890
     21 N21         2.8710   -2.8480  -18.3160 N.ar      1 7F3        -0.2630
     22 C22         3.3860   -2.0400  -19.2450 C.ar      1 7F3         0.0362
     23 F23         6.3350   -2.9450  -21.9610 F         1 7F3        -0.1609
     24 C24         5.8660    3.4360  -22.2120 C.ar      1 7F3         0.0085
     25 C25         7.0800    4.1420  -22.3190 C.ar      1 7F3        -0.0008
     26 C26         7.3370    4.9510  -23.4270 C.ar      1 7F3         0.0576
     27 N27         6.5180    5.0190  -24.4600 N.ar      1 7F3        -0.2449
     28 C28         5.3740    4.3420  -24.3950 C.ar      1 7F3         0.1405
     29 C29         4.9830    3.5540  -23.3080 C.ar      1 7F3         0.0027
     30 C30         4.4350    4.4930  -25.5640 C.3       1 7F3         0.4009
     31 F31         4.9410    3.8260  -26.6580 F         1 7F3        -0.2123
     32 F32         3.1810    3.9740  -25.3000 F         1 7F3        -0.2123
     33 F33         4.2250    5.8190  -25.8810 F         1 7F3        -0.2123
     34 N34         3.0540    3.8180  -18.6680 N.pl3     1 7F3        -0.2717
     35 H1          9.3420    2.9039  -18.0799 H         1 7F3         0.0661
     36 H2          8.3634    2.1343  -20.2343 H         1 7F3         0.0732
     37 H3          7.8842    3.8871  -16.3264 H         1 7F3         0.0765
     38 H4          3.3350    2.8713  -21.1263 H         1 7F3         0.3027
     39 H5          6.9867    1.3844  -23.0342 H         1 7F3         0.0772
     40 H6          7.3304   -1.0312  -23.4450 H         1 7F3         0.0669
     41 H7          4.5701    0.4804  -19.6204 H         1 7F3         0.0779
     42 H8          6.4709   -3.4737  -19.4902 H         1 7F3         0.0938
     43 H9          3.2090   -4.4955  -17.1256 H         1 7F3         0.1117
     44 H10         2.7788   -1.2384  -19.6497 H         1 7F3         0.0938
     45 H11         7.8219    4.0563  -21.5333 H         1 7F3         0.1058
     46 H12         8.2432    5.5458  -23.4397 H         1 7F3         0.0973
     47 H13         4.0254    3.0460  -23.3066 H         1 7F3         0.1098
     48 H14         3.1247    4.1653  -17.7009 H         1 7F3         0.3182
     49 H15         2.1379    3.7849  -19.1376 H         1 7F3         0.3182
@<TRIPOS>BOND
     1    1    2 ar 
     2    1    6 ar 
     3    2    3 ar 
     4    3    4 ar 
     5    3   10 1  
     6    4    5 ar 
     7    4    8 1  
     8    5    6 ar 
     9    5    7 1  
    10    8    9 ar 
    11    8   34 ar 
    12    9   10 1  
    13   10   11 1  
    14   10   24 1  
    15   11   12 ar 
    16   11   16 ar 
    17   12   13 ar 
    18   13   14 ar 
    19   14   15 ar 
    20   14   23 1  
    21   15   16 ar 
    22   15   17 1  
    23   17   18 ar 
    24   17   22 ar 
    25   18   19 ar 
    26   19   20 ar 
    27   20   21 ar 
    28   21   22 ar 
    29   24   25 ar 
    30   24   29 ar 
    31   25   26 ar 
    32   26   27 ar 
    33   27   28 ar 
    34   28   29 ar 
    35   28   30 1  
    36   30   31 1  
    37   30   32 1  
    38   30   33 1  
    39    1   35 1  
    40    2   36 1  
    41    6   37 1  
    42    9   38 1  
    43   12   39 1  
    44   13   40 1  
    45   16   41 1  
    46   18   42 1  
    47   20   43 1  
    48   22   44 1  
    49   25   45 1  
    50   26   46 1  
    51   29   47 1  
    52   34   48 1  
    53   34   49 1  
@<TRIPOS>SUBSTRUCTURE
     1 7F3         1

