### 
### Created by X-TOOL on Mon Sep 10 21:13:09 2018
### 

@<TRIPOS>MOLECULE
4b00_ligand
   62    66     1     0     0
SMALL
GAST_HUCK


@<TRIPOS>ATOM
      1 C1          7.4070    8.0310  -22.7420 C.3       1 I6X        -0.0312
      2 C2          7.9850    6.6420  -22.9300 C.3       1 I6X         0.0837
      3 N3          6.9370    5.6560  -23.1440 N.am      1 I6X        -0.1658
      4 C4          6.7130    4.7870  -22.0930 C.2       1 I6X         0.1080
      5 C5          5.7900    3.8150  -22.1410 C.2       1 I6X        -0.0183
      6 C6          4.9700    3.7420  -23.3430 C.2       1 I6X        -0.0615
      7 C7          5.1170    4.5700  -24.3930 C.2       1 I6X         0.0351
      8 C8          6.1790    5.6260  -24.3200 C.2       1 I6X         0.2619
      9 O9          6.3100    6.3960  -25.2630 O.2       1 I6X        -0.3733
     10 C10         4.2890    4.4770  -25.6300 C.3       1 I6X        -0.0244
     11 C11         5.5620    2.8120  -21.0190 C.3       1 I6X         0.0777
     12 C12         6.3750    3.1150  -19.7890 C.ar      1 I6X        -0.0664
     13 C13         7.7430    3.0340  -19.5900 C.ar      1 I6X        -0.0683
     14 C14         8.2610    3.3830  -18.3530 C.ar      1 I6X        -0.0529
     15 C15         7.4290    3.8200  -17.3360 C.ar      1 I6X        -0.0169
     16 C16         6.0570    3.8700  -17.5320 C.ar      1 I6X         0.1476
     17 C17         5.5570    3.5110  -18.7710 C.ar      1 I6X         0.0551
     18 C18         4.1960    3.4430  -19.3060 C.cat     1 I6X         0.2233
     19 N19         4.1830    3.0320  -20.5330 N.pl3     1 I6X        -0.3365
     20 N20         3.0770    3.7260  -18.5590 N.pl3     1 I6X        -0.2728
     21 F21         5.2860    4.3020  -16.5230 F         1 I6X        -0.1805
     22 C22         5.8560    1.3770  -21.4190 C.ar      1 I6X        -0.0682
     23 C23         6.6660    1.0800  -22.5070 C.ar      1 I6X        -0.0638
     24 C24         6.9510   -0.2350  -22.8390 C.ar      1 I6X        -0.0500
     25 C25         6.4390   -1.2560  -22.0600 C.ar      1 I6X        -0.0415
     26 C26         5.6380   -1.0060  -20.9590 C.ar      1 I6X        -0.0005
     27 C27         5.3620    0.3220  -20.6550 C.ar      1 I6X        -0.0550
     28 C28         5.1520   -2.1100  -20.1190 C.ar      1 I6X         0.0127
     29 C29         3.9610   -2.0860  -19.4070 C.ar      1 I6X        -0.0200
     30 C30         3.6380   -3.1260  -18.5580 C.ar      1 I6X         0.0522
     31 C31         4.5050   -4.1970  -18.4710 C.ar      1 I6X         0.0258
     32 N32         5.6470   -4.2860  -19.1580 N.ar      1 I6X        -0.2955
     33 C33         5.9360   -3.2410  -19.9410 C.ar      1 I6X         0.0184
     34 C34         2.4740   -3.1740  -17.7480 C.1       1 I6X        -0.0580
     35 C35         1.4920   -3.2190  -17.0620 C.1       1 I6X        -0.0969
     36 C36         0.2970   -3.2730  -16.2260 C.3       1 I6X        -0.0011
     37 H1          8.2243    8.7498  -22.5830 H         1 I6X         0.0262
     38 H2          6.7398    8.0353  -21.8675 H         1 I6X         0.0262
     39 H3          6.8376    8.3158  -23.6391 H         1 I6X         0.0262
     40 H4          8.5566    6.3674  -22.0312 H         1 I6X         0.0687
     41 H5          8.6545    6.6479  -23.8028 H         1 I6X         0.0687
     42 H6          7.3103    4.8959  -21.1889 H         1 I6X         0.1669
     43 H7          4.1971    2.9766  -23.3942 H         1 I6X         0.0549
     44 H8          3.5624    3.6580  -25.5241 H         1 I6X         0.0393
     45 H9          4.9409    4.2793  -26.4936 H         1 I6X         0.0393
     46 H10         3.7530    5.4250  -25.7846 H         1 I6X         0.0393
     47 H11         8.3975    2.7032  -20.3883 H         1 I6X         0.0665
     48 H12         9.3288    3.3132  -18.1797 H         1 I6X         0.0639
     49 H13         7.8509    4.1236  -16.3848 H         1 I6X         0.0700
     50 H14         3.3317    2.8796  -21.0924 H         1 I6X         0.2971
     51 H15         3.1755    4.0493  -17.5860 H         1 I6X         0.3181
     52 H16         2.1402    3.6147  -18.9723 H         1 I6X         0.3181
     53 H17         7.0798    1.8853  -23.1031 H         1 I6X         0.0703
     54 H18         7.5690   -0.4607  -23.7005 H         1 I6X         0.0650
     55 H19         6.6717   -2.2826  -22.3190 H         1 I6X         0.0724
     56 H20         4.7414    0.5442  -19.7944 H         1 I6X         0.0712
     57 H21         3.2821   -1.2482  -19.5177 H         1 I6X         0.0750
     58 H22         4.2438   -5.0128  -17.8067 H         1 I6X         0.0830
     59 H23         6.8709   -3.2813  -20.4882 H         1 I6X         0.0825
     60 H24        -0.5725   -2.9313  -16.8067 H         1 I6X         0.0365
     61 H25         0.4322   -2.6210  -15.3504 H         1 I6X         0.0365
     62 H26         0.1304   -4.3073  -15.8908 H         1 I6X         0.0365
@<TRIPOS>BOND
     1    1    2 1  
     2    2    3 1  
     3    3    4 1  
     4    3    8 am 
     5    4    5 2  
     6    5    6 1  
     7    5   11 1  
     8    6    7 2  
     9    7    8 1  
    10    7   10 1  
    11    8    9 2  
    12   11   12 1  
    13   11   19 1  
    14   11   22 1  
    15   12   13 ar 
    16   12   17 ar 
    17   13   14 ar 
    18   14   15 ar 
    19   15   16 ar 
    20   16   17 ar 
    21   16   21 1  
    22   17   18 1  
    23   18   19 ar 
    24   18   20 ar 
    25   22   23 ar 
    26   22   27 ar 
    27   23   24 ar 
    28   24   25 ar 
    29   25   26 ar 
    30   26   27 ar 
    31   26   28 1  
    32   28   29 ar 
    33   28   33 ar 
    34   29   30 ar 
    35   30   31 ar 
    36   30   34 1  
    37   31   32 ar 
    38   32   33 ar 
    39   34   35 3  
    40   35   36 1  
    41    1   37 1  
    42    1   38 1  
    43    1   39 1  
    44    2   40 1  
    45    2   41 1  
    46    4   42 1  
    47    6   43 1  
    48   10   44 1  
    49   10   45 1  
    50   10   46 1  
    51   13   47 1  
    52   14   48 1  
    53   15   49 1  
    54   19   50 1  
    55   20   51 1  
    56   20   52 1  
    57   23   53 1  
    58   24   54 1  
    59   25   55 1  
    60   27   56 1  
    61   29   57 1  
    62   31   58 1  
    63   33   59 1  
    64   36   60 1  
    65   36   61 1  
    66   36   62 1  
@<TRIPOS>SUBSTRUCTURE
     1 I6X         1

