### 
### Created by X-TOOL on Mon Sep 10 21:13:09 2018
### 

@<TRIPOS>MOLECULE
4b05_ligand
   49    53     1     0     0
SMALL
GAST_HUCK


@<TRIPOS>ATOM
      1 C1          8.1610    3.3190  -18.3450 C.ar      1 32D        -0.0437
      2 C2          7.6400    2.9580  -19.5770 C.ar      1 32D        -0.0544
      3 C3          6.2770    3.0760  -19.7920 C.ar      1 32D        -0.0298
      4 C4          5.4800    3.5280  -18.7840 C.ar      1 32D         0.0694
      5 C5          5.9770    3.9060  -17.5480 C.ar      1 32D         0.1564
      6 C6          7.3400    3.7970  -17.3350 C.ar      1 32D        -0.0087
      7 F7          5.2130    4.4070  -16.5580 F         1 32D        -0.1781
      8 C8          4.1170    3.5120  -19.3240 C.cat     1 32D         0.2330
      9 N9          4.0820    3.0720  -20.5470 N.pl3     1 32D        -0.3087
     10 C10         5.4540    2.7750  -21.0260 C.3       1 32D         0.1200
     11 C11         5.6710    1.3070  -21.3290 C.ar      1 32D        -0.0311
     12 C12         6.5360    0.9060  -22.3370 C.ar      1 32D        -0.0496
     13 C13         6.7260   -0.4340  -22.6020 C.ar      1 32D        -0.0405
     14 C14         6.0860   -1.3950  -21.8400 C.ar      1 32D        -0.0324
     15 C15         5.2340   -1.0330  -20.8130 C.ar      1 32D         0.0140
     16 C16         5.0460    0.3230  -20.5780 C.ar      1 32D        -0.0402
     17 C17         4.6280   -2.0420  -19.9520 C.ar      1 32D         0.0392
     18 C18         5.3190   -3.1660  -19.5380 C.ar      1 32D         0.0371
     19 N19         4.8560   -4.0740  -18.6700 N.ar      1 32D        -0.2623
     20 C20         3.6220   -3.8310  -18.2040 C.ar      1 32D         0.0896
     21 N21         2.8260   -2.8090  -18.5430 N.ar      1 32D        -0.2623
     22 C22         3.3640   -1.9370  -19.4080 C.ar      1 32D         0.0371
     23 C24         5.7520    3.6940  -22.2230 C.ar      1 32D        -0.0253
     24 C25         6.9300    4.4150  -22.1970 C.ar      1 32D        -0.0337
     25 C26         7.2710    5.2430  -23.2350 C.ar      1 32D         0.0206
     26 N27         6.5160    5.4010  -24.3230 N.ar      1 32D        -0.2726
     27 C28         5.3590    4.7380  -24.3740 C.ar      1 32D         0.1108
     28 C29         4.9460    3.8690  -23.3600 C.ar      1 32D        -0.0194
     29 C30         4.5960    4.9460  -25.6540 C.3       1 32D         0.2928
     30 F31         3.4530    5.7240  -25.6200 F         1 32D        -0.1903
     31 F32         4.3210    3.7920  -26.3130 F         1 32D        -0.1903
     32 N34         3.0330    3.8580  -18.5610 N.pl3     1 32D        -0.2717
     33 H1          9.2264    3.2264  -18.1680 H         1 32D         0.0663
     34 H2          8.2902    2.5884  -20.3617 H         1 32D         0.0737
     35 H3          7.7651    4.0848  -16.3803 H         1 32D         0.0770
     36 H4          3.2243    2.9475  -21.1035 H         1 32D         0.3030
     37 H5          7.0658    1.6507  -22.9199 H         1 32D         0.0778
     38 H6          7.3804   -0.7359  -23.4118 H         1 32D         0.0675
     39 H7          6.2546   -2.4449  -22.0507 H         1 32D         0.0797
     40 H8          4.3836    0.6244  -19.7746 H         1 32D         0.0788
     41 H9          6.3103   -3.3238  -19.9472 H         1 32D         0.0944
     42 H10         3.2288   -4.5340  -17.4786 H         1 32D         0.1122
     43 H11         2.7608   -1.0857  -19.7021 H         1 32D         0.0944
     44 H12         7.5935    4.3249  -21.3446 H         1 32D         0.0784
     45 H13         8.2005    5.7968  -23.1682 H         1 32D         0.0848
     46 H14         4.0083    3.3328  -23.4507 H         1 32D         0.0786
     47 H15         5.2969    5.5001  -26.2957 H         1 32D         0.1221
     48 H16         3.1683    4.1975  -17.5980 H         1 32D         0.3182
     49 H17         2.0827    3.7786  -18.9504 H         1 32D         0.3182
@<TRIPOS>BOND
     1    1    2 ar 
     2    1    6 ar 
     3    2    3 ar 
     4    3    4 ar 
     5    3   10 1  
     6    4    5 ar 
     7    4    8 1  
     8    5    6 ar 
     9    5    7 1  
    10    8    9 ar 
    11    8   32 ar 
    12    9   10 1  
    13   10   11 1  
    14   10   23 1  
    15   11   12 ar 
    16   11   16 ar 
    17   12   13 ar 
    18   13   14 ar 
    19   14   15 ar 
    20   15   16 ar 
    21   15   17 1  
    22   17   18 ar 
    23   17   22 ar 
    24   18   19 ar 
    25   19   20 ar 
    26   20   21 ar 
    27   21   22 ar 
    28   23   24 ar 
    29   23   28 ar 
    30   24   25 ar 
    31   25   26 ar 
    32   26   27 ar 
    33   27   28 ar 
    34   27   29 1  
    35   29   30 1  
    36   29   31 1  
    37    1   33 1  
    38    2   34 1  
    39    6   35 1  
    40    9   36 1  
    41   12   37 1  
    42   13   38 1  
    43   14   39 1  
    44   16   40 1  
    45   18   41 1  
    46   20   42 1  
    47   22   43 1  
    48   24   44 1  
    49   25   45 1  
    50   28   46 1  
    51   29   47 1  
    52   32   48 1  
    53   32   49 1  
@<TRIPOS>SUBSTRUCTURE
     1 32D         1

