### 
### Created by X-TOOL on Mon Sep 10 21:13:10 2018
### 

@<TRIPOS>MOLECULE
4b0b_ligand
   24    25     1     0     0
SMALL
GAST_HUCK


@<TRIPOS>ATOM
      1 N1         22.5810   18.3240   14.5760 N.ar      1 54F        -0.2700
      2 C2         22.2150   17.0220   14.5250 C.ar      1 54F         0.1895
      3 C3         21.9120   16.3600   15.7050 C.ar      1 54F         0.0002
      4 C4         21.9480   17.0370   16.9210 C.ar      1 54F        -0.0501
      5 C5         22.2420   18.3870   16.9560 C.ar      1 54F        -0.0450
      6 C6         22.5060   19.0500   15.7500 C.ar      1 54F         0.0005
      7 N8         24.7900   17.0730    9.3640 N.pl3     1 54F        -0.3389
      8 C9         23.6470   17.0950   10.0520 C.ar      1 54F         0.0272
      9 C10        23.6080   16.7310   11.4010 C.ar      1 54F        -0.0118
     10 C11        22.4290   16.7940   12.1290 C.ar      1 54F         0.1086
     11 C12        21.2600   17.0820   11.4380 C.ar      1 54F        -0.0410
     12 C13        21.2890   17.4690   10.0980 C.ar      1 54F        -0.0807
     13 C14        22.4960   17.5250    9.4100 C.ar      1 54F        -0.0548
     14 OAK        22.3300   16.2540   13.4010 O.3       1 54F        -0.2421
     15 H1         21.6456   15.3095   15.6806 H         1 54F         0.0647
     16 H2         21.7449   16.5039   17.8427 H         1 54F         0.0708
     17 H3         22.2679   18.9226   17.8981 H         1 54F         0.0620
     18 H4         22.6503   20.1243   15.7378 H         1 54F         0.0791
     19 H5         25.6588   16.7576    9.8186 H         1 54F         0.1717
     20 H6         24.8036   17.3714    8.3783 H         1 54F         0.1717
     21 H7         24.5160   16.3932   11.8873 H         1 54F         0.0446
     22 H8         20.3071   17.0048   11.9490 H         1 54F         0.0447
     23 H9         20.3664   17.7272    9.5909 H         1 54F         0.0559
     24 H10        22.5362   17.8972    8.3927 H         1 54F         0.0432
@<TRIPOS>BOND
     1    2    1 ar 
     2    1    6 ar 
     3    2    3 ar 
     4   14    2 1  
     5    3    4 ar 
     6    4    5 ar 
     7    6    5 ar 
     8    8    7 1  
     9    9    8 ar 
    10    8   13 ar 
    11   10    9 ar 
    12   10   11 ar 
    13   10   14 1  
    14   11   12 ar 
    15   12   13 ar 
    16    3   15 1  
    17    4   16 1  
    18    5   17 1  
    19    6   18 1  
    20    7   19 1  
    21    7   20 1  
    22    9   21 1  
    23   11   22 1  
    24   12   23 1  
    25   13   24 1  
@<TRIPOS>SUBSTRUCTURE
     1 54F         1

