### 
### Created by X-TOOL on Mon Sep 10 21:13:10 2018
### 

@<TRIPOS>MOLECULE
4b0c_ligand
   24    24     1     0     0
SMALL
GAST_HUCK


@<TRIPOS>ATOM
      1 CAA        20.1220  -14.2410   29.3770 C.3       1 C9H        -0.0653
      2 CAB        18.2440  -21.0500   24.7670 C.2       1 C9H         0.1119
      3 CAC        21.4320  -14.9680   29.0570 C.3       1 C9H        -0.0559
      4 CAD        21.4680  -15.4430   27.5890 C.3       1 C9H        -0.0524
      5 CAE        21.9530  -16.8930   27.4560 C.3       1 C9H        -0.0413
      6 CAF        20.8260  -17.8790   27.1170 C.3       1 C9H         0.0146
      7 NAG        17.5430  -19.9350   25.0240 N.2       1 C9H        -0.2695
      8 NAH        18.3000  -18.9900   25.2470 N.2       1 C9H        -0.2598
      9 NAI        19.5290  -20.7420   24.8520 N.pl3     1 C9H        -0.2212
     10 SAJ        20.9980  -18.5020   25.3920 S.3       1 C9H        -0.0416
     11 CAK        19.5430  -19.4510   25.1560 C.2       1 C9H         0.1966
     12 H          20.0233  -13.3705   28.7285 H         1 C9H         0.0230
     13 H          19.2830  -14.9166   29.2106 H         1 C9H         0.0230
     14 H          20.1310  -13.9204   30.4188 H         1 C9H         0.0230
     15 H          17.8308  -22.0307   24.5312 H         1 C9H         0.1260
     16 H          21.5110  -15.8407   29.7053 H         1 C9H         0.0263
     17 H          22.2596  -14.2771   29.2178 H         1 C9H         0.0263
     18 H          22.1624  -14.8034   27.0442 H         1 C9H         0.0266
     19 H          20.4545  -15.3882   27.1915 H         1 C9H         0.0266
     20 H          22.3739  -17.1900   28.4166 H         1 C9H         0.0275
     21 H          22.6767  -16.9259   26.6416 H         1 C9H         0.0275
     22 H          19.8694  -17.3650   27.2111 H         1 C9H         0.0408
     23 H          20.8807  -18.7244   27.8029 H         1 C9H         0.0408
     24 H          20.3292  -21.3594   24.7145 H         1 C9H         0.2466
@<TRIPOS>BOND
     1    3    1 1  
     2    2    7 2  
     3    9    2 1  
     4    4    3 1  
     5    5    4 1  
     6    6    5 1  
     7   10    6 1  
     8    8    7 1  
     9   11    8 2  
    10   11    9 1  
    11   10   11 1  
    12    1   12 1  
    13    1   13 1  
    14    1   14 1  
    15    2   15 1  
    16    3   16 1  
    17    3   17 1  
    18    4   18 1  
    19    4   19 1  
    20    5   20 1  
    21    5   21 1  
    22    6   22 1  
    23    6   23 1  
    24    9   24 1  
@<TRIPOS>SUBSTRUCTURE
     1 C9H         1

