### 
### Created by X-TOOL on Mon Sep 10 21:13:15 2018
### 

@<TRIPOS>MOLECULE
4b0g_ligand
   51    55     1     0     0
SMALL
GAST_HUCK


@<TRIPOS>ATOM
      1 C01       -22.1310   -6.2510  -15.1940 C.3       1 VEK         0.0081
      2 C02       -22.3150   -7.5290  -14.3330 C.2       1 VEK         0.1287
      3 C03       -21.4680   -8.7010  -14.3080 C.2       1 VEK        -0.0278
      4 C04       -22.0780   -9.6650  -13.3310 C.2       1 VEK         0.0554
      5 C05       -21.5800  -11.0920  -13.0040 C.3       1 VEK         0.0041
      6 N06       -22.3330  -11.9630  -13.8890 N.4       1 VEK         0.2488
      7 C07       -23.1520  -12.9770  -13.1960 C.3       1 VEK        -0.0097
      8 C08       -24.2660  -13.5150  -14.0870 C.3       1 VEK         0.0705
      9 N09       -23.8690  -13.7010  -15.4840 N.pl3     1 VEK        -0.2900
     10 C10       -24.5800  -14.6880  -16.3660 C.ar      1 VEK         0.0743
     11 C11       -24.5170  -14.5700  -17.7430 C.ar      1 VEK         0.0414
     12 BR        -23.7670  -12.9990  -18.5960 Br        1 VEK        -0.0636
     13 C13       -25.1170  -15.5640  -18.6350 C.ar      1 VEK        -0.0113
     14 N14       -25.7680  -16.6910  -18.0900 N.ar      1 VEK        -0.3011
     15 C15       -25.8310  -16.8480  -16.6820 C.ar      1 VEK         0.1405
     16 N16       -26.3900  -17.8420  -15.9210 N.pl3     1 VEK        -0.2404
     17 C17       -26.1730  -17.5140  -14.5550 C.2       1 VEK         0.1597
     18 C18       -26.6720  -18.2620  -13.4760 C.2       1 VEK         0.1326
     19 C19       -27.6630  -19.2870  -13.6230 C.2       1 VEK         0.0040
     20 N20       -27.9560  -19.7440  -12.3710 N.2       1 VEK        -0.3130
     21 C21       -27.1900  -19.0370  -11.4460 C.2       1 VEK         0.1053
     22 N22       -26.3930  -18.1130  -12.1490 N.pl3     1 VEK        -0.2400
     23 C23       -25.4390  -17.1760  -11.5340 C.3       1 VEK         0.0479
     24 N24       -25.4870  -16.3130  -14.5020 N.2       1 VEK        -0.3047
     25 C25       -25.2560  -15.8790  -15.8100 C.ar      1 VEK         0.0794
     26 C26       -22.3830  -13.6950  -15.7170 C.3       1 VEK         0.0705
     27 C27       -21.6580  -12.4510  -15.0950 C.3       1 VEK        -0.0097
     28 N28       -23.2560   -9.0870  -12.7990 N.2       1 VEK        -0.1681
     29 O29       -23.4160   -7.7420  -13.4070 O.3       1 VEK        -0.1810
     30 H1        -21.2209   -6.3479  -15.8042 H         1 VEK         0.0449
     31 H2        -22.0390   -5.3750  -14.5351 H         1 VEK         0.0449
     32 H3        -23.0025   -6.1242  -15.8530 H         1 VEK         0.0449
     33 H4        -20.5594   -8.8554  -14.8881 H         1 VEK         0.0260
     34 H5        -21.7826  -11.3409  -11.9519 H         1 VEK         0.0963
     35 H6        -20.5013  -11.1799  -13.2005 H         1 VEK         0.0963
     36 H7        -23.0250  -11.3363  -14.2691 H         1 VEK         0.2048
     37 H8        -23.6013  -12.5205  -12.3017 H         1 VEK         0.0835
     38 H9        -22.5032  -13.8125  -12.8945 H         1 VEK         0.0835
     39 H10       -25.1066  -12.8062  -14.0571 H         1 VEK         0.0576
     40 H11       -24.5912  -14.4866  -13.6868 H         1 VEK         0.0576
     41 H12       -25.0613  -15.4346  -19.7098 H         1 VEK         0.0734
     42 H13       -26.8792  -18.6763  -16.2753 H         1 VEK         0.2318
     43 H14       -28.0998  -19.6354  -14.5577 H         1 VEK         0.0581
     44 H15       -27.2051  -19.1752  -10.3659 H         1 VEK         0.1284
     45 H16       -24.9570  -16.5754  -12.3194 H         1 VEK         0.0584
     46 H17       -24.6731  -17.7415  -10.9829 H         1 VEK         0.0584
     47 H18       -25.9739  -16.5108  -10.8401 H         1 VEK         0.0584
     48 H19       -22.2005  -13.6981  -16.8017 H         1 VEK         0.0576
     49 H20       -21.9568  -14.6056  -15.2708 H         1 VEK         0.0576
     50 H21       -20.6279  -12.7352  -14.8341 H         1 VEK         0.0835
     51 H22       -21.6377  -11.6431  -15.8412 H         1 VEK         0.0835
@<TRIPOS>BOND
     1    1    2 1  
     2    2    3 2  
     3    2   29 1  
     4    3    4 1  
     5    4    5 1  
     6    4   28 2  
     7    5    6 1  
     8    6    7 1  
     9    6   27 1  
    10    7    8 1  
    11    8    9 1  
    12    9   10 1  
    13    9   26 1  
    14   10   11 ar 
    15   10   25 ar 
    16   11   12 1  
    17   11   13 ar 
    18   13   14 ar 
    19   14   15 ar 
    20   15   16 1  
    21   15   25 ar 
    22   16   17 1  
    23   17   18 1  
    24   17   24 2  
    25   18   19 2  
    26   18   22 1  
    27   19   20 1  
    28   20   21 2  
    29   21   22 1  
    30   22   23 1  
    31   24   25 1  
    32   26   27 1  
    33   28   29 1  
    34    1   30 1  
    35    1   31 1  
    36    1   32 1  
    37    3   33 1  
    38    5   34 1  
    39    5   35 1  
    40    6   36 1  
    41    7   37 1  
    42    7   38 1  
    43    8   39 1  
    44    8   40 1  
    45   13   41 1  
    46   16   42 1  
    47   19   43 1  
    48   21   44 1  
    49   23   45 1  
    50   23   46 1  
    51   23   47 1  
    52   26   48 1  
    53   26   49 1  
    54   27   50 1  
    55   27   51 1  
@<TRIPOS>SUBSTRUCTURE
     1 VEK         1

