### 
### Created by X-TOOL on Sun Sep  9 21:52:02 2018
### 

@<TRIPOS>MOLECULE
4b0j_ligand
   19    20     1     0     0
SMALL
GAST_HUCK


@<TRIPOS>ATOM
      1 C10        44.5500   -6.1120  233.9390 C.2       1 NON        -0.0051
      2 C01        43.0140   -3.4670  236.4130 C.2       1 NON         0.1595
      3 C02        41.8200   -2.8230  236.5600 C.2       1 NON        -0.0212
      4 C03        41.7760   -2.0560  237.6710 C.2       1 NON         0.0511
      5 N04        42.9870   -2.1800  238.2520 N.2       1 NON        -0.1573
      6 O05        43.8220   -3.0930  237.4560 O.3       1 NON        -0.1787
      7 C06        40.5810   -1.1680  238.1700 C.3       1 NON         0.0831
      8 O07        39.4070   -1.8350  238.7880 O.3       1 NON        -0.3835
      9 C08        43.4320   -4.3530  235.3960 C.2       1 NON         0.0720
     10 S09        44.6540   -5.5460  235.5020 S.3       1 NON        -0.0358
     11 C11        43.5850   -5.3790  233.3730 C.2       1 NON        -0.0731
     12 C12        42.9830   -4.4370  234.1400 C.2       1 NON        -0.0643
     13 H          45.1389   -6.9053  233.4786 H         1 NON         0.0750
     14 H          40.9920   -2.9172  235.8575 H         1 NON         0.0371
     15 H          40.1930   -0.6850  237.2732 H         1 NON         0.0706
     16 H          41.0012   -0.5450  238.9596 H         1 NON         0.0706
     17 H          38.7610   -1.1720  239.0426 H         1 NON         0.2122
     18 H          43.2935   -5.5332  232.3341 H         1 NON         0.0428
     19 H          42.1894   -3.7940  233.7594 H         1 NON         0.0449
@<TRIPOS>BOND
     1   10    1 1  
     2    1   11 2  
     3    2    3 2  
     4    2    6 1  
     5    9    2 1  
     6    3    4 1  
     7    5    4 2  
     8    4    7 1  
     9    6    5 1  
    10    7    8 1  
    11    9   10 1  
    12    9   12 2  
    13   11   12 1  
    14    1   13 1  
    15    3   14 1  
    16    7   15 1  
    17    7   16 1  
    18    8   17 1  
    19   11   18 1  
    20   12   19 1  
@<TRIPOS>SUBSTRUCTURE
     1 NON         1

