### 
### Created by X-TOOL on Mon Sep 10 21:13:09 2018
### 

@<TRIPOS>MOLECULE
4b11_ligand
   58    62     1     0     0
SMALL
GAST_HUCK


@<TRIPOS>ATOM
      1 O2         26.2320   43.7460   60.7010 O.2       1 7I1        -0.3942
      2 C14        25.0210   43.4220   60.5370 C.2       1 7I1         0.2231
      3 N1         24.0980   44.1400   59.8470 N.am      1 7I1        -0.2756
      4 C15        24.3180   45.5010   59.2760 C.3       1 7I1         0.0656
      5 C16        23.5110   46.5120   60.1220 C.ar      1 7I1        -0.0105
      6 C25        24.1060   46.9360   61.2900 C.ar      1 7I1        -0.0102
      7 C24        25.3860   46.4380   61.5970 C.ar      1 7I1        -0.0547
      8 C23        26.0220   46.7880   62.7510 C.ar      1 7I1        -0.0625
      9 C22        25.4320   47.6710   63.6310 C.ar      1 7I1        -0.0629
     10 C21        24.1650   48.2120   63.3760 C.ar      1 7I1        -0.0569
     11 C20        23.4880   47.8500   62.1650 C.ar      1 7I1        -0.0242
     12 C19        22.2130   48.3530   61.9070 C.ar      1 7I1        -0.0631
     13 C18        21.6020   47.9290   60.7000 C.ar      1 7I1        -0.0706
     14 C17        22.2280   47.0340   59.8220 C.ar      1 7I1        -0.0588
     15 C2         24.4150   42.1860   61.1980 C.2       1 7I1         0.1788
     16 O          23.2160   41.8300   60.9930 O.3       1 7I1        -0.2589
     17 C3         22.9310   40.7030   61.7680 C.ar      1 7I1         0.1166
     18 C13        24.0430   40.3380   62.5050 C.ar      1 7I1         0.0395
     19 C1         24.9910   41.3430   62.1600 C.2       1 7I1        -0.0084
     20 C          26.3870   41.3750   62.7460 C.3       1 7I1        -0.0379
     21 C7         23.9480   39.2610   63.4130 C.ar      1 7I1         0.0924
     22 C6         22.7690   38.5240   63.4630 C.ar      1 7I1        -0.0447
     23 C5         21.6840   38.8300   62.6110 C.ar      1 7I1        -0.0812
     24 C4         21.7330   39.9660   61.8030 C.ar      1 7I1        -0.0412
     25 O1         25.1240   38.9020   64.1290 O.3       1 7I1        -0.3144
     26 C8         25.0430   38.3260   65.4670 C.3       1 7I1         0.0917
     27 C12        24.4730   39.4360   66.2990 C.3       1 7I1         0.0185
     28 C11        25.5070   40.5660   66.4740 C.3       1 7I1        -0.0309
     29 N          26.8430   40.1090   66.8460 N.4       1 7I1         0.2271
     30 C10        27.4510   38.9810   66.1460 C.3       1 7I1        -0.0309
     31 C9         26.4500   37.8470   65.8630 C.3       1 7I1         0.0185
     32 H          23.1812   43.7152   59.7079 H         1 7I1         0.1863
     33 H          23.9874   45.5311   58.2378 H         1 7I1         0.0694
     34 H          25.3784   45.7521   59.3005 H         1 7I1         0.0694
     35 H          25.8779   45.7601   60.8994 H         1 7I1         0.0628
     36 H          27.0016   46.3679   62.9793 H         1 7I1         0.0601
     37 H          25.9610   47.9531   64.5413 H         1 7I1         0.0616
     38 H          23.7017   48.8967   64.0864 H         1 7I1         0.0609
     39 H          21.7137   49.0347   62.5956 H         1 7I1         0.0542
     40 H          20.6133   48.3116   60.4467 H         1 7I1         0.0595
     41 H          21.7246   46.7372   58.9019 H         1 7I1         0.0530
     42 H          27.1178   41.2465   61.9476 H         1 7I1         0.0358
     43 H          26.5507   42.3331   63.2394 H         1 7I1         0.0358
     44 H          26.4938   40.5684   63.4713 H         1 7I1         0.0358
     45 H          22.6810   37.6987   64.1695 H         1 7I1         0.0438
     46 H          20.8100   38.1792   62.5852 H         1 7I1         0.0538
     47 H          20.8680   40.2739   61.2156 H         1 7I1         0.0459
     48 H          24.4114   37.4447   65.5792 H         1 7I1         0.0657
     49 H          24.2089   39.0428   67.2807 H         1 7I1         0.0346
     50 H          23.5918   39.8370   65.7983 H         1 7I1         0.0346
     51 H          25.1503   41.2035   67.2830 H         1 7I1         0.0815
     52 H          25.5975   41.0686   65.5110 H         1 7I1         0.0815
     53 H          26.7433   39.7874   67.8088 H         1 7I1         0.2013
     54 H          27.4513   40.8993   66.6320 H         1 7I1         0.2013
     55 H          28.2403   38.5794   66.7814 H         1 7I1         0.0815
     56 H          27.8246   39.3438   65.1885 H         1 7I1         0.0815
     57 H          26.8425   37.2764   65.0213 H         1 7I1         0.0346
     58 H          26.3456   37.2749   66.7849 H         1 7I1         0.0346
@<TRIPOS>BOND
     1    1    2 2  
     2    2    3 am 
     3    2   15 1  
     4    3    4 1  
     5    4    5 1  
     6    5    6 ar 
     7    5   14 ar 
     8    6    7 ar 
     9    6   11 ar 
    10    7    8 ar 
    11    8    9 ar 
    12    9   10 ar 
    13   10   11 ar 
    14   11   12 ar 
    15   12   13 ar 
    16   13   14 ar 
    17   15   16 1  
    18   15   19 2  
    19   16   17 1  
    20   17   18 ar 
    21   17   24 ar 
    22   18   19 1  
    23   18   21 ar 
    24   19   20 1  
    25   21   22 ar 
    26   21   25 1  
    27   22   23 ar 
    28   23   24 ar 
    29   25   26 1  
    30   26   27 1  
    31   26   31 1  
    32   27   28 1  
    33   28   29 1  
    34   29   30 1  
    35   30   31 1  
    36    3   32 1  
    37    4   33 1  
    38    4   34 1  
    39    7   35 1  
    40    8   36 1  
    41    9   37 1  
    42   10   38 1  
    43   12   39 1  
    44   13   40 1  
    45   14   41 1  
    46   20   42 1  
    47   20   43 1  
    48   20   44 1  
    49   22   45 1  
    50   23   46 1  
    51   24   47 1  
    52   26   48 1  
    53   27   49 1  
    54   27   50 1  
    55   28   51 1  
    56   28   52 1  
    57   29   53 1  
    58   29   54 1  
    59   30   55 1  
    60   30   56 1  
    61   31   57 1  
    62   31   58 1  
@<TRIPOS>SUBSTRUCTURE
     1 7I1         1

