### 
### Created by X-TOOL on Mon Sep 10 21:13:10 2018
### 

@<TRIPOS>MOLECULE
4b12_ligand
   53    56     1     0     0
SMALL
GAST_HUCK


@<TRIPOS>ATOM
      1 O2         23.1370   46.1030   60.5640 O.2       1 C23        -0.3897
      2 C14        23.9390   45.5640   61.3140 C.2       1 C23         0.1500
      3 C15        25.4120   45.9880   61.3060 C.3       1 C23         0.0307
      4 C16        25.5680   47.5200   60.9530 C.3       1 C23        -0.0044
      5 C17        25.2390   48.3980   62.1820 C.ar      1 C23        -0.0409
      6 C22        26.2230   48.6810   63.1500 C.ar      1 C23        -0.0602
      7 C21        25.9090   49.4500   64.2900 C.ar      1 C23        -0.0686
      8 C20        24.6130   49.9550   64.4510 C.ar      1 C23        -0.0687
      9 C19        23.6110   49.6290   63.5250 C.ar      1 C23        -0.0686
     10 C18        23.9120   48.8700   62.3930 C.ar      1 C23        -0.0602
     11 C2         23.4510   44.3400   62.0370 C.2       1 C23         0.1616
     12 O          22.2680   43.8970   61.8380 O.3       1 C23        -0.2603
     13 C3         22.1640   42.7280   62.5470 C.ar      1 C23         0.1169
     14 C13        23.3390   42.3960   63.2170 C.ar      1 C23         0.0403
     15 C1         24.1830   43.4800   62.8610 C.2       1 C23        -0.0090
     16 C          25.6170   43.5640   63.3560 C.3       1 C23        -0.0374
     17 C7         23.3940   41.2450   64.0340 C.ar      1 C23         0.0928
     18 C6         22.2480   40.4530   64.1120 C.ar      1 C23        -0.0444
     19 C5         21.0690   40.7570   63.4170 C.ar      1 C23        -0.0810
     20 C4         21.0130   41.9160   62.6460 C.ar      1 C23        -0.0409
     21 O1         24.5300   40.9150   64.7720 O.3       1 C23        -0.3142
     22 C8         24.4090   40.7300   66.1990 C.3       1 C23         0.0918
     23 C12        25.4720   39.7560   66.7520 C.3       1 C23         0.0185
     24 C11        26.8340   40.4180   66.8560 C.3       1 C23        -0.0309
     25 N          26.7720   41.7390   67.4670 N.4       1 C23         0.2271
     26 C10        25.7470   42.6700   67.0400 C.3       1 C23        -0.0309
     27 C9         24.3640   42.0480   66.9810 C.3       1 C23         0.0185
     28 H          25.9368   45.4032   60.5505 H         1 C23         0.0501
     29 H          25.8271   45.8173   62.2993 H         1 C23         0.0501
     30 H          24.8781   47.7686   60.1466 H         1 C23         0.0449
     31 H          26.5976   47.7093   60.6493 H         1 C23         0.0449
     32 H          27.2363   48.3021   63.0166 H         1 C23         0.0557
     33 H          26.6719   49.6503   65.0423 H         1 C23         0.0599
     34 H          24.3824   50.6024   65.2971 H         1 C23         0.0559
     35 H          22.5894   49.9711   63.6908 H         1 C23         0.0599
     36 H          23.1304   48.6382   61.6695 H         1 C23         0.0557
     37 H          26.2948   43.5726   62.5024 H         1 C23         0.0361
     38 H          25.7474   44.4787   63.9343 H         1 C23         0.0361
     39 H          25.8340   42.7008   63.9852 H         1 C23         0.0361
     40 H          22.2703   39.5616   64.7388 H         1 C23         0.0439
     41 H          20.2060   40.0941   63.4792 H         1 C23         0.0540
     42 H          20.0949   42.1917   62.1272 H         1 C23         0.0460
     43 H          23.4368   40.2628   66.3561 H         1 C23         0.0657
     44 H          25.5513   38.9089   66.0706 H         1 C23         0.0346
     45 H          25.1650   39.4402   67.7490 H         1 C23         0.0346
     46 H          27.2274   40.5345   65.8462 H         1 C23         0.0815
     47 H          27.4650   39.7884   67.4833 H         1 C23         0.0815
     48 H          27.6526   42.1858   67.2115 H         1 C23         0.2013
     49 H          26.5695   41.5618   68.4509 H         1 C23         0.2013
     50 H          26.0023   43.0051   66.0347 H         1 C23         0.0815
     51 H          25.7140   43.4819   67.7665 H         1 C23         0.0815
     52 H          24.0186   41.8492   67.9956 H         1 C23         0.0346
     53 H          23.6840   42.7370   66.4800 H         1 C23         0.0346
@<TRIPOS>BOND
     1    1    2 2  
     2    2    3 1  
     3    2   11 1  
     4    3    4 1  
     5    4    5 1  
     6    5    6 ar 
     7    5   10 ar 
     8    6    7 ar 
     9    7    8 ar 
    10    8    9 ar 
    11    9   10 ar 
    12   11   12 1  
    13   11   15 2  
    14   12   13 1  
    15   13   14 ar 
    16   13   20 ar 
    17   14   15 1  
    18   14   17 ar 
    19   15   16 1  
    20   17   18 ar 
    21   17   21 1  
    22   18   19 ar 
    23   19   20 ar 
    24   21   22 1  
    25   22   23 1  
    26   22   27 1  
    27   23   24 1  
    28   24   25 1  
    29   25   26 1  
    30   26   27 1  
    31    3   28 1  
    32    3   29 1  
    33    4   30 1  
    34    4   31 1  
    35    6   32 1  
    36    7   33 1  
    37    8   34 1  
    38    9   35 1  
    39   10   36 1  
    40   16   37 1  
    41   16   38 1  
    42   16   39 1  
    43   18   40 1  
    44   19   41 1  
    45   20   42 1  
    46   22   43 1  
    47   23   44 1  
    48   23   45 1  
    49   24   46 1  
    50   24   47 1  
    51   25   48 1  
    52   25   49 1  
    53   26   50 1  
    54   26   51 1  
    55   27   52 1  
    56   27   53 1  
@<TRIPOS>SUBSTRUCTURE
     1 C23         1

