### 
### Created by X-TOOL on Mon Sep 10 21:13:11 2018
### 

@<TRIPOS>MOLECULE
4b13_ligand
   53    57     1     0     0
SMALL
GAST_HUCK


@<TRIPOS>ATOM
      1 C          25.1840   42.2010   63.7330 C.3       1 X25        -0.0355
      2 C1         23.8700   42.0010   63.2080 C.2       1 X25        -0.0047
      3 C2         23.1110   42.6930   62.3590 C.2       1 X25         0.1799
      4 O          22.0540   42.2040   62.2530 O.3       1 X25        -0.2588
      5 C14        23.4970   43.9000   61.8150 C.2       1 X25         0.2467
      6 N1         24.6590   44.5010   62.0050 N.2       1 X25        -0.2750
      7 C15        24.5710   45.5140   61.2130 C.2       1 X25         0.0934
      8 C16        25.5690   46.5570   61.0650 C.3       1 X25         0.0324
      9 C17        25.3360   47.2400   62.3930 C.ar      1 X25        -0.0305
     10 C18        24.0770   47.6310   62.7440 C.ar      1 X25        -0.0584
     11 C19        23.9160   48.2750   63.9530 C.ar      1 X25        -0.0682
     12 C20        24.9720   48.5080   64.8100 C.ar      1 X25        -0.0685
     13 C21        26.2270   48.1080   64.4440 C.ar      1 X25        -0.0682
     14 C22        26.3720   47.4640   63.2500 C.ar      1 X25        -0.0584
     15 N2         23.4030   45.5250   60.6410 N.2       1 X25        -0.1392
     16 O2         22.7900   44.4550   61.0580 O.3       1 X25        -0.1532
     17 C3         22.0370   41.0880   62.9200 C.ar      1 X25         0.1175
     18 C13        23.2100   40.8930   63.6260 C.ar      1 X25         0.0429
     19 C4         20.9770   40.2090   63.0190 C.ar      1 X25        -0.0404
     20 C5         21.1480   39.1120   63.8190 C.ar      1 X25        -0.0805
     21 C6         22.3530   38.9490   64.5260 C.ar      1 X25        -0.0438
     22 C7         23.4180   39.8400   64.4490 C.ar      1 X25         0.0941
     23 O1         24.5560   39.6750   65.1770 O.3       1 X25        -0.3136
     24 C8         24.4780   39.4040   66.6330 C.3       1 X25         0.0920
     25 C9         25.1670   38.1330   67.1160 C.3       1 X25         0.0186
     26 C10        26.6560   38.3440   67.1540 C.3       1 X25        -0.0309
     27 N          27.0460   39.5620   67.8680 N.4       1 X25         0.2271
     28 C11        26.2010   40.7300   67.8620 C.3       1 X25        -0.0309
     29 C12        24.7150   40.5360   67.6160 C.3       1 X25         0.0186
     30 H          25.9017   42.2255   62.9130 H         1 X25         0.0371
     31 H          25.2173   43.1461   64.2751 H         1 X25         0.0371
     32 H          25.4317   41.3834   64.4100 H         1 X25         0.0371
     33 H          25.4682   47.1885   60.1823 H         1 X25         0.0597
     34 H          26.5875   46.2163   60.8788 H         1 X25         0.0597
     35 H          23.2259   47.4406   62.0902 H         1 X25         0.0560
     36 H          22.9202   48.6115   64.2414 H         1 X25         0.0600
     37 H          24.8077   49.0045   65.7663 H         1 X25         0.0561
     38 H          27.0863   48.2980   65.0871 H         1 X25         0.0600
     39 H          27.3641   47.1116   62.9678 H         1 X25         0.0560
     40 H          20.0438   40.3814   62.4828 H         1 X25         0.0460
     41 H          20.3553   38.3691   63.9078 H         1 X25         0.0544
     42 H          22.4579   38.0759   65.1700 H         1 X25         0.0440
     43 H          23.3994   39.2494   66.6612 H         1 X25         0.0657
     44 H          24.9360   37.3157   66.4328 H         1 X25         0.0346
     45 H          24.8118   37.8885   68.1171 H         1 X25         0.0346
     46 H          27.0035   38.4377   66.1251 H         1 X25         0.0815
     47 H          27.0972   37.4968   67.6791 H         1 X25         0.0815
     48 H          27.8936   39.8678   67.3901 H         1 X25         0.2013
     49 H          27.0679   39.2779   68.8474 H         1 X25         0.2013
     50 H          26.5544   41.3375   67.0288 H         1 X25         0.0815
     51 H          26.2752   41.1449   68.8672 H         1 X25         0.0815
     52 H          24.2303   40.2899   68.5608 H         1 X25         0.0346
     53 H          24.3033   41.4558   67.2006 H         1 X25         0.0346
@<TRIPOS>BOND
     1    1    2 1  
     2    2    3 2  
     3    2   18 1  
     4    3    4 1  
     5    3    5 1  
     6    4   17 1  
     7    5    6 2  
     8    5   16 1  
     9    6    7 1  
    10    7    8 1  
    11    7   15 2  
    12    8    9 1  
    13    9   10 ar 
    14    9   14 ar 
    15   10   11 ar 
    16   11   12 ar 
    17   12   13 ar 
    18   13   14 ar 
    19   15   16 1  
    20   17   18 ar 
    21   17   19 ar 
    22   18   22 ar 
    23   19   20 ar 
    24   20   21 ar 
    25   21   22 ar 
    26   22   23 1  
    27   23   24 1  
    28   24   25 1  
    29   24   29 1  
    30   25   26 1  
    31   26   27 1  
    32   27   28 1  
    33   28   29 1  
    34    1   30 1  
    35    1   31 1  
    36    1   32 1  
    37    8   33 1  
    38    8   34 1  
    39   10   35 1  
    40   11   36 1  
    41   12   37 1  
    42   13   38 1  
    43   14   39 1  
    44   19   40 1  
    45   20   41 1  
    46   21   42 1  
    47   24   43 1  
    48   25   44 1  
    49   25   45 1  
    50   26   46 1  
    51   26   47 1  
    52   27   48 1  
    53   27   49 1  
    54   28   50 1  
    55   28   51 1  
    56   29   52 1  
    57   29   53 1  
@<TRIPOS>SUBSTRUCTURE
     1 X25         1

