### 
### Created by X-TOOL on Mon Sep 10 21:13:12 2018
### 

@<TRIPOS>MOLECULE
4b14_ligand
   55    58     1     0     0
SMALL
GAST_HUCK


@<TRIPOS>ATOM
      1 C          25.5030   41.9930   63.8030 C.3       1 4XB        -0.0375
      2 N          26.3190   40.7780   68.1080 N.4       1 4XB         0.2271
      3 O          22.0240   42.1460   62.4870 O.3       1 4XB        -0.2577
      4 C1         24.0760   41.8180   63.4030 C.2       1 4XB        -0.0067
      5 O1         24.7130   39.3240   65.1470 O.3       1 4XB        -0.3142
      6 C2         23.2470   42.6710   62.5790 C.2       1 4XB         0.1907
      7 O2         22.6350   44.6690   61.5770 O.2       1 4XB        -0.3674
      8 C3         22.0470   40.9840   63.1660 C.ar      1 4XB         0.1169
      9 C4         20.9350   40.0730   63.3620 C.ar      1 4XB        -0.0410
     10 C5         21.1500   38.9390   64.1180 C.ar      1 4XB        -0.0810
     11 C6         22.3800   38.6680   64.7400 C.ar      1 4XB        -0.0445
     12 C7         23.4660   39.5620   64.5560 C.ar      1 4XB         0.0927
     13 C8         24.9390   38.8270   66.4830 C.3       1 4XB         0.0918
     14 C9         26.3830   38.5050   66.9500 C.3       1 4XB         0.0185
     15 C10        27.1260   39.7210   67.4840 C.3       1 4XB        -0.0309
     16 C11        24.9130   40.9680   67.7230 C.3       1 4XB        -0.0309
     17 C12        24.2180   39.6640   67.5090 C.3       1 4XB         0.0185
     18 C13        23.2780   40.7230   63.8040 C.ar      1 4XB         0.0401
     19 C14        23.5360   43.9810   61.9530 C.2       1 4XB         0.2807
     20 C15        21.2370   48.6840   63.3420 C.3       1 4XB         0.0592
     21 C19        25.0160   45.7850   61.3960 C.3       1 4XB         0.1066
     22 C20        24.9490   46.6880   62.5870 C.ar      1 4XB        -0.0220
     23 C21        26.0570   46.9690   63.4060 C.ar      1 4XB        -0.0689
     24 C22        25.8970   47.7910   64.5230 C.ar      1 4XB        -0.0771
     25 C23        24.6610   48.3810   64.8340 C.ar      1 4XB        -0.0401
     26 C24        23.5830   48.0680   63.9770 C.ar      1 4XB         0.0841
     27 C25        23.7260   47.2480   62.8780 C.ar      1 4XB        -0.0298
     28 OAQ        22.3550   48.5960   64.2320 O.3       1 4XB        -0.3230
     29 OAR        24.8860   44.4620   61.8410 O.3       1 4XB        -0.2665
     30 H          26.1277   42.0264   62.9104 H         1 4XB         0.0360
     31 H          25.6116   42.9242   64.3591 H         1 4XB         0.0360
     32 H          25.8084   41.1558   64.4306 H         1 4XB         0.0360
     33 H          26.7766   41.6443   67.8241 H         1 4XB         0.2013
     34 H          26.2766   40.5138   69.0923 H         1 4XB         0.2013
     35 H          19.9580   40.2785   62.9247 H         1 4XB         0.0460
     36 H          20.3341   38.2261   64.2372 H         1 4XB         0.0540
     37 H          22.4990   37.7785   65.3587 H         1 4XB         0.0439
     38 H          24.5115   37.8276   66.4023 H         1 4XB         0.0657
     39 H          26.9345   38.1343   66.0860 H         1 4XB         0.0346
     40 H          26.3139   37.7785   67.7596 H         1 4XB         0.0346
     41 H          27.7823   39.3462   68.2694 H         1 4XB         0.0815
     42 H          27.6007   40.1824   66.6180 H         1 4XB         0.0815
     43 H          24.8855   41.5292   66.7890 H         1 4XB         0.0815
     44 H          24.4054   41.4997   68.5278 H         1 4XB         0.0815
     45 H          24.1996   39.1194   68.4530 H         1 4XB         0.0346
     46 H          23.2078   39.8617   67.1505 H         1 4XB         0.0346
     47 H          21.5147   49.2748   62.4691 H         1 4XB         0.0577
     48 H          20.9457   47.6822   63.0265 H         1 4XB         0.0577
     49 H          20.4024   49.1618   63.8552 H         1 4XB         0.0577
     50 H          25.9675   45.9150   60.8805 H         1 4XB         0.0773
     51 H          24.2143   46.0258   60.6978 H         1 4XB         0.0773
     52 H          27.0343   46.5478   63.1703 H         1 4XB         0.0465
     53 H          26.7534   47.9798   65.1704 H         1 4XB         0.0572
     54 H          24.5403   49.0445   65.6903 H         1 4XB         0.0486
     55 H          22.8681   47.0426   62.2378 H         1 4XB         0.0479
@<TRIPOS>BOND
     1    4    1 1  
     2   15    2 1  
     3   16    2 1  
     4    6    3 1  
     5    3    8 1  
     6    6    4 2  
     7    4   18 1  
     8   12    5 1  
     9    5   13 1  
    10   19    6 1  
    11   19    7 2  
    12    8    9 ar 
    13   18    8 ar 
    14    9   10 ar 
    15   11   10 ar 
    16   12   11 ar 
    17   18   12 ar 
    18   13   14 1  
    19   13   17 1  
    20   14   15 1  
    21   17   16 1  
    22   29   19 1  
    23   28   20 1  
    24   22   21 1  
    25   21   29 1  
    26   22   23 ar 
    27   27   22 ar 
    28   24   23 ar 
    29   25   24 ar 
    30   26   25 ar 
    31   26   27 ar 
    32   26   28 1  
    33    1   30 1  
    34    1   31 1  
    35    1   32 1  
    36    2   33 1  
    37    2   34 1  
    38    9   35 1  
    39   10   36 1  
    40   11   37 1  
    41   13   38 1  
    42   14   39 1  
    43   14   40 1  
    44   15   41 1  
    45   15   42 1  
    46   16   43 1  
    47   16   44 1  
    48   17   45 1  
    49   17   46 1  
    50   20   47 1  
    51   20   48 1  
    52   20   49 1  
    53   21   50 1  
    54   21   51 1  
    55   23   52 1  
    56   24   53 1  
    57   25   54 1  
    58   27   55 1  
@<TRIPOS>SUBSTRUCTURE
     1 4XB         1

