### 
### Created by X-TOOL on Mon Sep 10 21:13:10 2018
### 

@<TRIPOS>MOLECULE
4b1c_ligand
   46    49     1     0     0
SMALL
GAST_HUCK


@<TRIPOS>ATOM
      1 C1          5.5840    2.4870  -20.6520 C.3       1 1B1         0.1596
      2 N1          4.1790    2.8010  -20.3620 N.pl3     1 1B1        -0.2696
      3 C2          4.1540    3.1200  -19.1080 C.cat     1 1B1         0.2678
      4 C4          6.1270    3.4660  -21.6450 C.3       1 1B1        -0.0067
      5 C5          5.8420    1.0800  -21.1230 C.ar      1 1B1         0.0105
      6 C6          5.4060    0.0310  -20.3510 C.ar      1 1B1        -0.0248
      7 C7          5.6320   -1.2830  -20.6850 C.ar      1 1B1         0.0185
      8 C8          6.3290   -1.5540  -21.8440 C.ar      1 1B1        -0.0246
      9 C9          6.7900   -0.5090  -22.6230 C.ar      1 1B1        -0.0309
     10 C10         6.5630    0.8030  -22.2660 C.ar      1 1B1        -0.0336
     11 N3          3.0640    3.4890  -18.3610 N.pl3     1 1B1        -0.2652
     12 C11         5.8580    3.2720  -17.0860 C.3       1 1B1         0.0001
     13 C13         5.7850    4.9210  -21.4630 C.3       1 1B1        -0.0526
     14 C12         5.2470    4.1570  -22.6500 C.3       1 1B1        -0.0526
     15 C14         5.1950   -2.3490  -19.8010 C.ar      1 1B1         0.0169
     16 C15         4.0080   -2.3270  -19.1080 C.ar      1 1B1        -0.0196
     17 C16         3.7350   -3.3950  -18.2720 C.ar      1 1B1         0.0523
     18 C17         4.6330   -4.4310  -18.1440 C.ar      1 1B1         0.0258
     19 C19         6.0140   -3.4410  -19.6000 C.ar      1 1B1         0.0188
     20 C21         2.5450   -3.4330  -17.5170 C.1       1 1B1        -0.0580
     21 N17         6.3760    2.6490  -19.4060 N.2       1 1B1        -0.3307
     22 N5          5.7930   -4.4860  -18.8000 N.ar      1 1B1        -0.2955
     23 C18         5.5190    3.0110  -18.5250 C.2       1 1B1         0.0798
     24 C22         1.5470   -3.4700  -16.8540 C.1       1 1B1        -0.0969
     25 C23         0.3430   -3.5170  -16.0580 C.3       1 1B1        -0.0011
     26 H1          3.3840    2.7733  -21.0163 H         1 1B1         0.3121
     27 H2          7.1428    3.1630  -21.9386 H         1 1B1         0.0263
     28 H3          4.8606    0.2486  -19.4398 H         1 1B1         0.0867
     29 H4          6.5141   -2.5796  -22.1421 H         1 1B1         0.0869
     30 H5          7.3403   -0.7254  -23.5315 H         1 1B1         0.0700
     31 H6          6.9479    1.6104  -22.8784 H         1 1B1         0.0858
     32 H7          3.1776    3.7205  -17.3638 H         1 1B1         0.3188
     33 H8          2.1321    3.5346  -18.7974 H         1 1B1         0.3188
     34 H9          6.9359    3.1183  -16.9296 H         1 1B1         0.0507
     35 H10         5.2921    2.5803  -16.4447 H         1 1B1         0.0507
     36 H11         5.5945    4.3087  -16.8294 H         1 1B1         0.0507
     37 H12         6.5576    5.6904  -21.6079 H         1 1B1         0.0262
     38 H13         5.1068    5.2301  -20.6540 H         1 1B1         0.0262
     39 H14         4.1766    3.9099  -22.7060 H         1 1B1         0.0262
     40 H15         5.6274    4.3702  -23.6598 H         1 1B1         0.0262
     41 H16         3.3114   -1.5031  -19.2127 H         1 1B1         0.0750
     42 H17         4.3837   -5.2458  -17.4739 H         1 1B1         0.0830
     43 H18         6.9444   -3.4513  -20.1561 H         1 1B1         0.0825
     44 H19         0.4765   -2.9036  -15.1547 H         1 1B1         0.0365
     45 H20         0.1360   -4.5575  -15.7673 H         1 1B1         0.0365
     46 H21        -0.5006   -3.1257  -16.6456 H         1 1B1         0.0365
@<TRIPOS>BOND
     1    1    2 1  
     2    1    4 1  
     3    1    5 1  
     4    1   21 1  
     5    2    3 ar 
     6    3   11 ar 
     7    3   23 1  
     8    4   13 1  
     9    4   14 1  
    10    5    6 ar 
    11    5   10 ar 
    12    6    7 ar 
    13    7    8 ar 
    14    7   15 1  
    15    8    9 ar 
    16    9   10 ar 
    17   23   12 1  
    18   13   14 1  
    19   15   16 ar 
    20   15   19 ar 
    21   16   17 ar 
    22   17   18 ar 
    23   17   20 1  
    24   18   22 ar 
    25   19   22 ar 
    26   20   24 3  
    27   21   23 2  
    28   24   25 1  
    29    2   26 1  
    30    4   27 1  
    31    6   28 1  
    32    8   29 1  
    33    9   30 1  
    34   10   31 1  
    35   11   32 1  
    36   11   33 1  
    37   12   34 1  
    38   12   35 1  
    39   12   36 1  
    40   13   37 1  
    41   13   38 1  
    42   14   39 1  
    43   14   40 1  
    44   16   41 1  
    45   18   42 1  
    46   19   43 1  
    47   25   44 1  
    48   25   45 1  
    49   25   46 1  
@<TRIPOS>SUBSTRUCTURE
     1 1B1         1

