### 
### Created by X-TOOL on Mon Sep 10 21:13:10 2018
### 

@<TRIPOS>MOLECULE
4b1d_ligand
   53    56     1     0     0
SMALL
GAST_HUCK


@<TRIPOS>ATOM
      1 C1          4.7110    4.3820  -25.5000 C.3       1 6TG        -0.0277
      2 C2          5.4900    4.4570  -24.2210 C.ar      1 6TG         0.0063
      3 C3          5.1330    3.5910  -23.2100 C.ar      1 6TG        -0.0561
      4 C4          5.8290    3.5610  -22.0080 C.ar      1 6TG        -0.0411
      5 C5          6.8880    4.4360  -21.8400 C.ar      1 6TG        -0.0561
      6 C6          7.2550    5.3240  -22.8340 C.ar      1 6TG         0.0063
      7 C7          6.5450    5.3440  -24.0230 C.ar      1 6TG         0.1280
      8 O8          6.9330    6.2180  -25.0380 O.3       1 6TG        -0.3057
      9 C9          6.1430    7.4240  -25.0090 C.3       1 6TG         0.0647
     10 C10         8.4090    6.2260  -22.5500 C.3       1 6TG        -0.0277
     11 C11         5.4510    2.5860  -20.9070 C.3       1 6TG         0.1447
     12 N12         6.2380    2.8010  -19.6680 N.2       1 6TG        -0.3608
     13 C13         5.3770    3.2130  -18.8030 C.2       1 6TG         0.0732
     14 C14         4.0100    3.2740  -19.3710 C.cat     1 6TG         0.2617
     15 N15         4.0420    2.8650  -20.5910 N.pl3     1 6TG        -0.2941
     16 N16         2.9360    3.6680  -18.6110 N.pl3     1 6TG        -0.2657
     17 C17         5.6500    3.4900  -17.3550 C.3       1 6TG        -0.0004
     18 C18         5.7170    1.1390  -21.2760 C.ar      1 6TG        -0.0212
     19 C19         6.5340    0.7710  -22.3420 C.ar      1 6TG        -0.0474
     20 C20         6.7660   -0.5690  -22.6290 C.ar      1 6TG        -0.0396
     21 C21         6.2090   -1.5590  -21.8380 C.ar      1 6TG        -0.0317
     22 C22         5.4220   -1.2220  -20.7490 C.ar      1 6TG         0.0150
     23 C23         5.1880    0.1240  -20.4880 C.ar      1 6TG        -0.0380
     24 C24         4.8680   -2.2350  -19.8590 C.ar      1 6TG         0.0394
     25 C25         3.5810   -2.1690  -19.3630 C.ar      1 6TG         0.0371
     26 N26         3.0810   -3.0170  -18.4550 N.ar      1 6TG        -0.2623
     27 C27         3.9180   -3.9960  -18.0730 C.ar      1 6TG         0.0896
     28 N28         5.1730   -4.2120  -18.4970 N.ar      1 6TG        -0.2623
     29 C29         5.6180   -3.3000  -19.3790 C.ar      1 6TG         0.0371
     30 H1          3.9339    3.6085  -25.4112 H         1 6TG         0.0376
     31 H2          5.3890    4.1272  -26.3279 H         1 6TG         0.0376
     32 H3          4.2385    5.3552  -25.6992 H         1 6TG         0.0376
     33 H4          4.2935    2.9208  -23.3554 H         1 6TG         0.0651
     34 H5          7.4420    4.4248  -20.9083 H         1 6TG         0.0651
     35 H6          6.4683    8.0949  -25.8177 H         1 6TG         0.0589
     36 H7          6.2765    7.9266  -24.0397 H         1 6TG         0.0589
     37 H8          5.0816    7.1705  -25.1475 H         1 6TG         0.0589
     38 H9          8.7999    6.0155  -21.5436 H         1 6TG         0.0376
     39 H10         8.0774    7.2735  -22.6028 H         1 6TG         0.0376
     40 H11         9.2006    6.0540  -23.2941 H         1 6TG         0.0376
     41 H12         3.2367    2.7545  -21.2236 H         1 6TG         0.3051
     42 H13         3.0781    3.9723  -17.6373 H         1 6TG         0.3188
     43 H14         1.9885    3.6592  -19.0148 H         1 6TG         0.3188
     44 H15         4.7248    3.8285  -16.8657 H         1 6TG         0.0507
     45 H16         6.4175    4.2733  -17.2699 H         1 6TG         0.0507
     46 H17         6.0078    2.5714  -16.8670 H         1 6TG         0.0507
     47 H18         6.9940    1.5379  -22.9546 H         1 6TG         0.0787
     48 H19         7.3859   -0.8400  -23.4760 H         1 6TG         0.0677
     49 H20         6.3894   -2.6020  -22.0716 H         1 6TG         0.0803
     50 H21         4.5701    0.3911  -19.6384 H         1 6TG         0.0798
     51 H22         2.9345   -1.3810  -19.7319 H         1 6TG         0.0944
     52 H23         3.5350   -4.6929  -17.3363 H         1 6TG         0.1122
     53 H24         6.6345   -3.4037  -19.7410 H         1 6TG         0.0944
@<TRIPOS>BOND
     1    1    2 1  
     2    2    3 ar 
     3    2    7 ar 
     4    3    4 ar 
     5    4    5 ar 
     6    4   11 1  
     7    5    6 ar 
     8    6    7 ar 
     9    6   10 1  
    10    7    8 1  
    11    8    9 1  
    12   11   12 1  
    13   11   15 1  
    14   11   18 1  
    15   12   13 2  
    16   13   14 1  
    17   13   17 1  
    18   14   15 ar 
    19   14   16 ar 
    20   18   19 ar 
    21   18   23 ar 
    22   19   20 ar 
    23   20   21 ar 
    24   21   22 ar 
    25   22   23 ar 
    26   22   24 1  
    27   24   25 ar 
    28   24   29 ar 
    29   25   26 ar 
    30   26   27 ar 
    31   27   28 ar 
    32   28   29 ar 
    33    1   30 1  
    34    1   31 1  
    35    1   32 1  
    36    3   33 1  
    37    5   34 1  
    38    9   35 1  
    39    9   36 1  
    40    9   37 1  
    41   10   38 1  
    42   10   39 1  
    43   10   40 1  
    44   15   41 1  
    45   16   42 1  
    46   16   43 1  
    47   17   44 1  
    48   17   45 1  
    49   17   46 1  
    50   19   47 1  
    51   20   48 1  
    52   21   49 1  
    53   23   50 1  
    54   25   51 1  
    55   27   52 1  
    56   29   53 1  
@<TRIPOS>SUBSTRUCTURE
     1 6TG         1

