### 
### Created by X-TOOL on Mon Sep 10 21:13:09 2018
### 

@<TRIPOS>MOLECULE
4b2d_ligand
   14    13     1     0     0
SMALL
GAST_HUCK


@<TRIPOS>ATOM
      1 N         -11.0230   -4.2890    2.0280 N.4       1 SER         0.2343
      2 CA        -10.1270   -4.3580    0.8410 C.3       1 SER         0.0519
      3 C         -10.8090   -5.1030   -0.3180 C.2       1 SER         0.0867
      4 O         -10.2930   -4.9670   -1.4470 O.co2     1 SER        -0.5642
      5 CB         -8.8090   -5.0300    1.2000 C.3       1 SER         0.0987
      6 OG         -9.0170   -6.3070    1.7890 O.3       1 SER        -0.3876
      7 OXT       -11.8200   -5.7880   -0.0670 O.co2     1 SER        -0.5642
      8 H1        -10.5557   -3.7973    2.7736 H         1 SER         0.2011
      9 H2        -11.2504   -5.2227    2.3321 H         1 SER         0.2011
     10 H3        -11.8695   -3.8002    1.7820 H         1 SER         0.2011
     11 H4         -9.9126   -3.3305    0.5119 H         1 SER         0.1047
     12 H5         -8.2655   -4.3923    1.9127 H         1 SER         0.0633
     13 H6         -8.2096   -5.1518    0.2858 H         1 SER         0.0633
     14 H7         -8.1772   -6.6977    2.0002 H         1 SER         0.2098
@<TRIPOS>BOND
     1    1    2 1  
     2    2    3 1  
     3    2    5 1  
     4    3    4 ar 
     5    3    7 ar 
     6    5    6 1  
     7    1    8 1  
     8    1    9 1  
     9    1   10 1  
    10    2   11 1  
    11    5   12 1  
    12    5   13 1  
    13    6   14 1  
@<TRIPOS>SUBSTRUCTURE
     1 SER         1

