### 
### Created by X-TOOL on Mon Sep 10 21:13:14 2018
### 

@<TRIPOS>MOLECULE
4b2i_ligand
   15    16     1     0     0
SMALL
GAST_HUCK


@<TRIPOS>ATOM
      1 C1         19.1670    7.7250   -2.1120 C.ar      1 LZ1         0.0875
      2 C2         20.2260    7.0810   -2.7330 C.ar      1 LZ1         0.0090
      3 C3         20.3400    5.6980   -2.6950 C.ar      1 LZ1        -0.0643
      4 C4         19.3700    4.9630   -2.0190 C.ar      1 LZ1        -0.0723
      5 C5         18.3080    5.6070   -1.4090 C.ar      1 LZ1        -0.0704
      6 C6         18.1940    6.9870   -1.4490 C.ar      1 LZ1        -0.0353
      7 N          19.3330    9.0270   -2.3290 N.pl3     1 LZ1        -0.2131
      8 C9         20.9670    8.0410   -3.2710 C.2       1 LZ1         0.0215
      9 N2         20.3640    9.1980   -2.9960 N.2       1 LZ1        -0.2057
     10 H1         21.1696    5.1992   -3.1830 H         1 LZ1         0.0591
     11 H2         19.4469    3.8828   -1.9704 H         1 LZ1         0.0532
     12 H3         17.5546    5.0234   -0.8925 H         1 LZ1         0.0579
     13 H4         17.3580    7.4839   -0.9701 H         1 LZ1         0.0559
     14 H5         18.7057    9.7732   -1.9963 H         1 LZ1         0.2453
     15 H6         21.8918    7.9091   -3.8307 H         1 LZ1         0.0716
@<TRIPOS>BOND
     1    1    2 ar 
     2    1    6 ar 
     3    1    7 1  
     4    2    3 ar 
     5    2    8 1  
     6    3    4 ar 
     7    4    5 ar 
     8    5    6 ar 
     9    7    9 1  
    10    8    9 2  
    11    3   10 1  
    12    4   11 1  
    13    5   12 1  
    14    6   13 1  
    15    7   14 1  
    16    8   15 1  
@<TRIPOS>SUBSTRUCTURE
     1 LZ1         1

