### 
### Created by X-TOOL on Mon Sep 10 21:13:14 2018
### 

@<TRIPOS>MOLECULE
4b2l_ligand
   31    32     1     0     0
SMALL
GAST_HUCK


@<TRIPOS>ATOM
      1 N          23.9010    7.1510   -5.5770 N.4       1 TR7         0.2399
      2 CA         22.5490    7.3770   -5.0360 C.3       1 TR7         0.0804
      3 C          21.8560    8.5110   -5.8000 C.2       1 TR7         0.2837
      4 O          20.4990    8.5020   -5.9130 O.3       1 TR7        -0.2758
      5 CB         22.6450    7.7650   -3.5630 C.3       1 TR7         0.0258
      6 CG         21.2500    7.9980   -2.9560 C.2       1 TR7        -0.0385
      7 CD1        20.6420    9.1700   -2.7540 C.2       1 TR7         0.0168
      8 CD2        20.3840    7.0090   -2.5150 C.ar      1 TR7        -0.0213
      9 NE1        19.4340    8.9730   -2.2010 N.pl3     1 TR7        -0.2890
     10 CE2        19.2570    7.6660   -2.0420 C.ar      1 TR7         0.0603
     11 CE3        20.4640    5.6220   -2.4730 C.ar      1 TR7        -0.0747
     12 CZ2        18.2000    6.9380   -1.5230 C.ar      1 TR7        -0.0443
     13 CZ3        19.3990    4.8910   -1.9490 C.ar      1 TR7        -0.0792
     14 CH2        18.2830    5.5600   -1.4830 C.ar      1 TR7        -0.0768
     15 OXT        22.5110    9.4210   -6.3120 O.2       1 TR7        -0.3639
     16 CAJ        20.0490    9.6360   -6.6550 C.3       1 TR7         0.0660
     17 H1         24.3463    6.4040   -5.0673 H         1 TR7         0.2017
     18 H2         24.4460    7.9937   -5.4825 H         1 TR7         0.2017
     19 H3         23.8356    6.9006   -6.5512 H         1 TR7         0.2017
     20 H4         21.9590    6.4541   -5.1360 H         1 TR7         0.1130
     21 H5         23.2341    8.6896   -3.4733 H         1 TR7         0.0431
     22 H6         23.1458    6.9561   -3.0109 H         1 TR7         0.0431
     23 H7         21.0640   10.1429   -3.0015 H         1 TR7         0.0795
     24 H8         18.7605    9.7088   -1.9443 H         1 TR7         0.2216
     25 H9         21.3464    5.1135   -2.8443 H         1 TR7         0.0540
     26 H10        17.3163    7.4443   -1.1518 H         1 TR7         0.0541
     27 H11        19.4456    3.8088   -1.9074 H         1 TR7         0.0510
     28 H12        17.4546    4.9906   -1.0772 H         1 TR7         0.0530
     29 H13        18.9522    9.6102   -6.7348 H         1 TR7         0.0577
     30 H14        20.4905    9.6139   -7.6622 H         1 TR7         0.0577
     31 H15        20.3575   10.5575   -6.1395 H         1 TR7         0.0577
@<TRIPOS>BOND
     1    1    2 1  
     2    2    3 1  
     3    2    5 1  
     4    3    4 1  
     5    3   15 2  
     6    4   16 1  
     7    5    6 1  
     8    6    7 2  
     9    6    8 1  
    10    7    9 1  
    11    8   10 ar 
    12    8   11 ar 
    13    9   10 1  
    14   10   12 ar 
    15   11   13 ar 
    16   12   14 ar 
    17   13   14 ar 
    18    1   17 1  
    19    1   18 1  
    20    1   19 1  
    21    2   20 1  
    22    5   21 1  
    23    5   22 1  
    24    7   23 1  
    25    9   24 1  
    26   11   25 1  
    27   12   26 1  
    28   13   27 1  
    29   14   28 1  
    30   16   29 1  
    31   16   30 1  
    32   16   31 1  
@<TRIPOS>SUBSTRUCTURE
     1 TR7         1

