### 
### Created by X-TOOL on Mon Sep 10 21:13:14 2018
### 

@<TRIPOS>MOLECULE
4b32_ligand
   19    20     1     0     0
SMALL
GAST_HUCK


@<TRIPOS>ATOM
      1 C1         22.4130    7.6020   -3.4830 C.ar      1 03V        -0.0277
      2 O1         23.7050    5.6950   -4.0780 O.3       1 03V        -0.3325
      3 C2         22.5750    6.2230   -3.5300 C.ar      1 03V         0.0887
      4 C3         21.5880    5.3840   -3.0180 C.ar      1 03V        -0.0294
      5 C4         20.4380    5.9430   -2.4620 C.ar      1 03V        -0.0287
      6 C5         20.2820    7.3240   -2.4150 C.ar      1 03V        -0.0247
      7 C7         21.2670    8.1570   -2.9280 C.ar      1 03V        -0.0562
      8 C8         19.1390    7.8870   -1.8590 C.ar      1 03V        -0.0585
      9 C9         18.1490    7.0680   -1.3450 C.ar      1 03V        -0.0648
     10 C10        18.3080    5.6940   -1.3830 C.ar      1 03V        -0.0653
     11 C11        19.4400    5.1240   -1.9340 C.ar      1 03V        -0.0600
     12 H1         23.1859    8.2490   -3.8820 H         1 03V         0.0590
     13 H2         23.6635    4.7469   -4.0345 H         1 03V         0.2487
     14 H3         21.7127    4.3077   -3.0515 H         1 03V         0.0496
     15 H4         21.1426    9.2334   -2.8957 H         1 03V         0.0618
     16 H5         19.0236    8.9644   -1.8282 H         1 03V         0.0616
     17 H6         17.2532    7.5008   -0.9146 H         1 03V         0.0586
     18 H7         17.5332    5.0553   -0.9746 H         1 03V         0.0607
     19 H8         19.5517    4.0460   -1.9557 H         1 03V         0.0590
@<TRIPOS>BOND
     1    1    3 ar 
     2    1    7 ar 
     3    3    2 1  
     4    3    4 ar 
     5    4    5 ar 
     6    5    6 ar 
     7    5   11 ar 
     8    6    7 ar 
     9    6    8 ar 
    10    8    9 ar 
    11    9   10 ar 
    12   10   11 ar 
    13    1   12 1  
    14    2   13 1  
    15    4   14 1  
    16    7   15 1  
    17    8   16 1  
    18    9   17 1  
    19   10   18 1  
    20   11   19 1  
@<TRIPOS>SUBSTRUCTURE
     1 03V         1

