### 
### Created by X-TOOL on Mon Sep 10 21:13:14 2018
### 

@<TRIPOS>MOLECULE
4b33_ligand
   19    20     1     0     0
SMALL
GAST_HUCK


@<TRIPOS>ATOM
      1 O1         19.1830    9.3790   -2.2300 O.3       1 1NP        -0.3281
      2 C1         19.2270    8.0280   -2.1330 C.ar      1 1NP         0.1008
      3 C8A        20.2930    7.3510   -2.6930 C.ar      1 1NP         0.0175
      4 C8         21.2820    8.0900   -3.3370 C.ar      1 1NP        -0.0532
      5 C7         22.3580    7.4250   -3.9060 C.ar      1 1NP        -0.0633
      6 C2         18.2150    7.3280   -1.4880 C.ar      1 1NP        -0.0342
      7 C3         18.2920    5.9440   -1.4130 C.ar      1 1NP        -0.0744
      8 C4         19.3540    5.2550   -1.9740 C.ar      1 1NP        -0.0685
      9 C4A        20.3660    5.9680   -2.6220 C.ar      1 1NP        -0.0261
     10 C5         21.4460    5.3030   -3.1960 C.ar      1 1NP        -0.0587
     11 C6         22.4400    6.0410   -3.8340 C.ar      1 1NP        -0.0640
     12 H1         18.3984    9.7007   -1.8018 H         1 1NP         0.2515
     13 H2         21.2119    9.1703   -3.3929 H         1 1NP         0.0631
     14 H3         23.1369    7.9873   -4.4082 H         1 1NP         0.0591
     15 H4         17.3761    7.8558   -1.0490 H         1 1NP         0.0499
     16 H5         17.5075    5.3933   -0.9067 H         1 1NP         0.0581
     17 H6         19.3998    4.1738   -1.9111 H         1 1NP         0.0493
     18 H7         21.5126    4.2222   -3.1469 H         1 1NP         0.0599
     19 H8         23.2861    5.5297   -4.2788 H         1 1NP         0.0614
@<TRIPOS>BOND
     1    1    2 1  
     2    2    3 ar 
     3    2    6 ar 
     4    3    4 ar 
     5    3    9 ar 
     6    4    5 ar 
     7    5   11 ar 
     8    6    7 ar 
     9    7    8 ar 
    10    8    9 ar 
    11    9   10 ar 
    12   10   11 ar 
    13    1   12 1  
    14    4   13 1  
    15    5   14 1  
    16    6   15 1  
    17    7   16 1  
    18    8   17 1  
    19   10   18 1  
    20   11   19 1  
@<TRIPOS>SUBSTRUCTURE
     1 1NP         1

