### 
### Created by X-TOOL on Mon Sep 10 21:13:14 2018
### 

@<TRIPOS>MOLECULE
4b35_ligand
   22    23     1     0     0
SMALL
GAST_HUCK


@<TRIPOS>ATOM
      1 CAJ        23.3260    3.6580   -4.1880 C.3       1 4ME         0.0644
      2 OAM        22.1380    4.0960   -3.5240 O.3       1 4ME        -0.2825
      3 CAI        22.0010    5.4390   -3.5390 C.2       1 4ME         0.2539
      4 OAL        22.8400    6.1660   -4.0710 O.2       1 4ME        -0.3616
      5 CAG        20.7660    6.0140   -2.8600 C.ar      1 4ME         0.0468
      6 CAB        19.8580    5.1270   -2.3030 C.ar      1 4ME        -0.0575
      7 CAA        18.7220    5.6150   -1.6760 C.ar      1 4ME        -0.0692
      8 CAC        18.4720    6.9650   -1.5990 C.ar      1 4ME        -0.0378
      9 CAH        19.3860    7.8530   -2.1550 C.ar      1 4ME         0.0694
     10 CAF        20.5270    7.3780   -2.7920 C.ar      1 4ME        -0.0084
     11 CAD        21.2040    8.4380   -3.2280 C.2       1 4ME        -0.0601
     12 CAE        20.5170    9.5280   -2.8890 C.2       1 4ME         0.0238
     13 NAK        19.4050    9.1720   -2.2360 N.pl3     1 4ME        -0.2776
     14 H1         23.3863    2.5605   -4.1455 H         1 4ME         0.0575
     15 H2         24.2055    4.0930   -3.6909 H         1 4ME         0.0575
     16 H3         23.3002    3.9834   -5.2384 H         1 4ME         0.0575
     17 H4         20.0350    4.0589   -2.3573 H         1 4ME         0.0580
     18 H5         18.0166    4.9184   -1.2376 H         1 4ME         0.0545
     19 H6         17.5756    7.3315   -1.1120 H         1 4ME         0.0591
     20 H7         22.1507    8.4178   -3.7659 H         1 4ME         0.0293
     21 H8         20.8150   10.5519   -3.1097 H         1 4ME         0.0954
     22 H9         18.6901    9.8126   -1.8624 H         1 4ME         0.2277
@<TRIPOS>BOND
     1    1    2 1  
     2    2    3 1  
     3    3    4 2  
     4    3    5 1  
     5    5    6 ar 
     6    5   10 ar 
     7    6    7 ar 
     8    7    8 ar 
     9    8    9 ar 
    10    9   10 ar 
    11    9   13 1  
    12   10   11 1  
    13   11   12 2  
    14   12   13 1  
    15    1   14 1  
    16    1   15 1  
    17    1   16 1  
    18    6   17 1  
    19    7   18 1  
    20    8   19 1  
    21   11   20 1  
    22   12   21 1  
    23   13   22 1  
@<TRIPOS>SUBSTRUCTURE
     1 4ME         1

