### 
### Created by X-TOOL on Mon Sep 10 21:13:12 2018
### 

@<TRIPOS>MOLECULE
4b3b_ligand
   70    71     1     0     0
SMALL
GAST_HUCK


@<TRIPOS>ATOM
      1 C          28.4970    1.8370   39.7100 C.2       1 ACE         0.1752
      2 O          28.1370    2.9620   40.0540 O.2       1 ACE        -0.3972
      3 CH3        29.8520    1.5410   39.1350 C.3       1 ACE         0.0258
      4 N          27.7330    0.8240   40.0860 N.am      1 PHE        -0.2640
      5 CA         26.4920    0.9700   40.8140 C.3       1 PHE         0.1404
      6 C          26.7530    1.3250   42.2800 C.2       1 PHE         0.2060
      7 O          27.6980    0.8160   42.9090 O.2       1 PHE        -0.3942
      8 CB         25.6710   -0.3200   40.7190 C.3       1 PHE         0.0214
      9 CG         25.1160   -0.5760   39.3510 C.ar      1 PHE        -0.0386
     10 CD1        23.8770   -0.0700   39.0000 C.ar      1 PHE        -0.0601
     11 CD2        25.8350   -1.2930   38.4230 C.ar      1 PHE        -0.0601
     12 CE1        23.3520   -0.2910   37.7510 C.ar      1 PHE        -0.0686
     13 CE2        25.3190   -1.5130   37.1630 C.ar      1 PHE        -0.0686
     14 CZ         24.0820   -1.0010   36.8230 C.ar      1 PHE        -0.0687
     15 N          25.9380    2.2300   42.8090 N.am      1 HIS        -0.2623
     16 CA         26.0180    2.5670   44.2300 C.3       1 HIS         0.1369
     17 C          24.6190    2.6060   44.7810 C.2       1 HIS         0.2054
     18 O          23.6730    2.9530   44.0790 O.2       1 HIS        -0.3942
     19 CB         26.6240    3.9440   44.4580 C.3       1 HIS         0.0145
     20 CG         27.9980    4.0980   43.9120 C.2       1 HIS        -0.0027
     21 ND1        29.1210    3.5890   44.5280 N.2       1 HIS        -0.3252
     22 CD2        28.4290    4.7150   42.7920 C.2       1 HIS         0.0291
     23 CE1        30.1870    3.8890   43.8080 C.2       1 HIS         0.0907
     24 NE2        29.7950    4.5690   42.7470 N.pl3     1 HIS        -0.2752
     25 N          24.4830    2.2990   46.0640 N.am      1 THR        -0.2612
     26 CA         23.1860    2.3780   46.7030 C.3       1 THR         0.1565
     27 C          22.6160    3.8000   46.5860 C.2       1 THR         0.2065
     28 O          23.3580    4.7890   46.6450 O.2       1 THR        -0.3943
     29 CB         23.2350    1.9070   48.1810 C.3       1 THR         0.0924
     30 OG1        21.9080    1.8980   48.6990 O.3       1 THR        -0.3874
     31 CG2        24.0860    2.8170   49.0320 C.3       1 THR        -0.0346
     32 N          21.2990    3.9030   46.4200 N.am      1 ALA        -0.2639
     33 CA         20.6400    5.2010   46.5020 C.3       1 ALA         0.1279
     34 C          20.3290    5.5780   47.9730 C.2       1 ALA         0.1989
     35 O          19.8870    6.6860   48.2560 O.2       1 ALA        -0.3947
     36 CB         19.3670    5.2170   45.6430 C.3       1 ALA        -0.0244
     37 N          20.5560    4.6490   48.8960 N.am      1 NH2        -0.2990
     38 H1         29.9280    0.4670   38.9095 H         1 ACE         0.0467
     39 H2         30.6281    1.8185   39.8635 H         1 ACE         0.0467
     40 H3         29.9927    2.1205   38.2107 H         1 ACE         0.0467
     41 H4         28.0327   -0.1009   39.8519 H         1 PHE         0.1884
     42 H5         25.9148    1.7871   40.3566 H         1 PHE         0.0823
     43 H6         24.8325   -0.2520   41.4277 H         1 PHE         0.0474
     44 H7         26.3178   -1.1655   40.9961 H         1 PHE         0.0474
     45 H8         23.3127    0.5094   39.7218 H         1 PHE         0.0557
     46 H9         26.8110   -1.6866   38.6830 H         1 PHE         0.0557
     47 H10        22.3698    0.0905   37.4966 H         1 PHE         0.0599
     48 H11        25.8847   -2.0882   36.4390 H         1 PHE         0.0599
     49 H12        23.6857   -1.1578   35.8263 H         1 PHE         0.0559
     50 H13        25.2624    2.6860   42.2297 H         1 HIS         0.1885
     51 H14        26.6170    1.8074   44.7536 H         1 HIS         0.0817
     52 H15        26.6594    4.1313   45.5414 H         1 HIS         0.0420
     53 H16        25.9752    4.6913   43.9777 H         1 HIS         0.0420
     54 H17        27.8101    5.2321   42.0603 H         1 HIS         0.0729
     55 H18        31.2146    3.6208   44.0489 H         1 HIS         0.1199
     56 H19        30.4120    4.9312   42.0061 H         1 HIS         0.2361
     57 H20        25.2811    2.0112   46.5934 H         1 THR         0.1884
     58 H21        22.5079    1.7000   46.1640 H         1 THR         0.0826
     59 H22        23.6523    0.8900   48.2189 H         1 THR         0.0639
     60 H23        21.3733    1.3028   48.1867 H         1 THR         0.2101
     61 H24        24.0937    2.4485   50.0684 H         1 THR         0.0257
     62 H25        23.6710    3.8354   49.0081 H         1 THR         0.0257
     63 H26        25.1137    2.8305   48.6400 H         1 THR         0.0257
     64 H27        20.7569    3.0827   46.2374 H         1 ALA         0.1883
     65 H28        21.3297    5.9573   46.0991 H         1 ALA         0.0797
     66 H29        18.8860    6.2033   45.7187 H         1 ALA         0.0277
     67 H30        18.6732    4.4422   46.0012 H         1 ALA         0.0277
     68 H31        19.6301    5.0170   44.5938 H         1 ALA         0.0277
     69 H32        20.3708    4.8451   49.8589 H         1 NH2         0.1815
     70 H33        20.9120    3.7539   48.6275 H         1 NH2         0.1815
@<TRIPOS>BOND
     1    1    2 2  
     2    1    3 1  
     3    1    4 am 
     4    4    5 1  
     5    5    6 1  
     6    5    8 1  
     7    6    7 2  
     8    6   15 am 
     9    8    9 1  
    10    9   10 ar 
    11    9   11 ar 
    12   10   12 ar 
    13   11   13 ar 
    14   12   14 ar 
    15   13   14 ar 
    16   15   16 1  
    17   16   17 1  
    18   16   19 1  
    19   17   18 2  
    20   17   25 am 
    21   19   20 1  
    22   20   21 1  
    23   20   22 2  
    24   21   23 2  
    25   22   24 1  
    26   23   24 1  
    27   25   26 1  
    28   26   27 1  
    29   26   29 1  
    30   27   28 2  
    31   27   32 am 
    32   29   30 1  
    33   29   31 1  
    34   32   33 1  
    35   33   34 1  
    36   33   36 1  
    37   34   35 2  
    38   34   37 am 
    39    3   38 1  
    40    3   39 1  
    41    3   40 1  
    42    4   41 1  
    43    5   42 1  
    44    8   43 1  
    45    8   44 1  
    46   10   45 1  
    47   11   46 1  
    48   12   47 1  
    49   13   48 1  
    50   14   49 1  
    51   15   50 1  
    52   16   51 1  
    53   19   52 1  
    54   19   53 1  
    55   22   54 1  
    56   23   55 1  
    57   24   56 1  
    58   25   57 1  
    59   26   58 1  
    60   29   59 1  
    61   30   60 1  
    62   31   61 1  
    63   31   62 1  
    64   31   63 1  
    65   32   64 1  
    66   33   65 1  
    67   36   66 1  
    68   36   67 1  
    69   36   68 1  
    70   37   69 1  
    71   37   70 1  
@<TRIPOS>SUBSTRUCTURE
     1 ACE         1

