### 
### Created by X-TOOL on Mon Sep 10 21:13:15 2018
### 

@<TRIPOS>MOLECULE
4b3c_ligand
   17    18     1     0     0
SMALL
GAST_HUCK


@<TRIPOS>ATOM
      1 O10         9.1680   17.1980   23.6190 O.3       1 5H1        -0.3418
      2 C5          9.6650   16.8520   22.4040 C.ar      1 5H1         0.0695
      3 C6         10.3780   17.7850   21.6560 C.ar      1 5H1        -0.0456
      4 C7         10.8820   17.4280   20.4120 C.ar      1 5H1        -0.0486
      5 C8         10.6740   16.1380   19.9250 C.ar      1 5H1         0.0544
      6 N1         11.0350   15.5370   18.7930 N.pl3     1 5H1        -0.2845
      7 C4          9.4600   15.5630   21.9130 C.ar      1 5H1        -0.0495
      8 C9          9.9670   15.2100   20.6730 C.ar      1 5H1        -0.0378
      9 C3          9.9280   14.0830   19.9690 C.2       1 5H1        -0.0680
     10 C2         10.5790   14.2850   18.8230 C.2       1 5H1         0.0189
     11 H1          8.5639   17.9241   23.5177 H         1 5H1         0.2443
     12 H2         10.5389   18.7849   22.0425 H         1 5H1         0.0481
     13 H3         11.4351   18.1496   19.8217 H         1 5H1         0.0528
     14 H4         11.5735   15.9655   18.0267 H         1 5H1         0.2246
     15 H5          8.9057   14.8395   22.4998 H         1 5H1         0.0430
     16 H6          9.4474   13.1551   20.2754 H         1 5H1         0.0273
     17 H7         10.7163   13.5445   18.0364 H         1 5H1         0.0926
@<TRIPOS>BOND
     1    1    2 1  
     2    2    3 ar 
     3    2    7 ar 
     4    3    4 ar 
     5    4    5 ar 
     6    5    6 1  
     7    5    8 ar 
     8    6   10 1  
     9    7    8 ar 
    10    8    9 1  
    11    9   10 2  
    12    1   11 1  
    13    3   12 1  
    14    4   13 1  
    15    6   14 1  
    16    7   15 1  
    17    9   16 1  
    18   10   17 1  
@<TRIPOS>SUBSTRUCTURE
     1 5H1         1

