### 
### Created by X-TOOL on Mon Sep 10 21:13:13 2018
### 

@<TRIPOS>MOLECULE
4b3d_ligand
   19    20     1     0     0
SMALL
GAST_HUCK


@<TRIPOS>ATOM
      1 C5          5.3270    6.8150   -1.0770 C.ar      1 5MI        -0.0634
      2 C6          4.4140    6.1330   -1.8700 C.ar      1 5MI        -0.0735
      3 C7          4.6860    4.8320   -2.2770 C.ar      1 5MI        -0.0479
      4 C8          5.8740    4.2210   -1.8920 C.ar      1 5MI         0.0578
      5 N1          6.3820    3.0170   -2.1310 N.pl3     1 5MI        -0.2827
      6 C4          6.5140    6.2000   -0.6910 C.ar      1 5MI        -0.0755
      7 C9          6.7850    4.8980   -1.1020 C.ar      1 5MI        -0.0353
      8 C3          7.8140    4.0850   -0.8920 C.2       1 5MI        -0.0665
      9 C2          7.5670    2.9420   -1.5240 C.2       1 5MI         0.0198
     10 CAJ         5.0190    8.2440   -0.6310 C.3       1 5MI        -0.0375
     11 H1          3.4906    6.6143   -2.1713 H         1 5MI         0.0486
     12 H2          3.9736    4.2952   -2.8930 H         1 5MI         0.0534
     13 H3          5.9385    2.2723   -2.6874 H         1 5MI         0.2255
     14 H4          7.2260    6.7335   -0.0717 H         1 5MI         0.0457
     15 H5          8.7027    4.3142   -0.3058 H         1 5MI         0.0278
     16 H6          8.2297    2.0781   -1.5431 H         1 5MI         0.0929
     17 H7          4.0427    8.5514   -1.0339 H         1 5MI         0.0370
     18 H8          5.8002    8.9216   -1.0060 H         1 5MI         0.0370
     19 H9          4.9924    8.2875    0.4678 H         1 5MI         0.0370
@<TRIPOS>BOND
     1    1    2 ar 
     2    1    6 ar 
     3    1   10 1  
     4    2    3 ar 
     5    3    4 ar 
     6    4    5 1  
     7    4    7 ar 
     8    5    9 1  
     9    6    7 ar 
    10    7    8 1  
    11    8    9 2  
    12    2   11 1  
    13    3   12 1  
    14    5   13 1  
    15    6   14 1  
    16    8   15 1  
    17    9   16 1  
    18   10   17 1  
    19   10   18 1  
    20   10   19 1  
@<TRIPOS>SUBSTRUCTURE
     1 5MI         1

