### 
### Created by X-TOOL on Mon Sep 10 21:13:10 2018
### 

@<TRIPOS>MOLECULE
4b5d_ligand
   39    41     1     0     0
SMALL
GAST_HUCK


@<TRIPOS>ATOM
      1 O01        13.5190   31.6260   22.3520 O.3       1 SW4        -0.3950
      2 C02        14.1200   30.8490   23.3160 C.3       1 SW4         0.0446
      3 C03        14.2270   29.3620   23.0100 C.3       1 SW4        -0.0246
      4 C04        15.3310   29.0330   22.0700 C.3       1 SW4        -0.0234
      5 C05        16.2200   27.9110   22.5090 C.3       1 SW4        -0.0342
      6 C06        15.1320   27.6700   21.5100 C.3       1 SW4        -0.0004
      7 C07        15.2740   26.5640   20.4600 C.ar      1 SW4        -0.0209
      8 C08        14.8990   25.2290   20.6090 C.ar      1 SW4         0.0012
      9 N09        15.0770   24.3780   19.5520 N.ar      1 SW4        -0.3145
     10 C10        15.6170   24.8000   18.3790 C.ar      1 SW4         0.0324
     11 C11        15.9910   26.1630   18.2100 C.ar      1 SW4         0.1127
     12 O12        16.5420   26.7090   17.0070 O.3       1 SW4        -0.3064
     13 C13        17.4530   27.7520   17.0640 C.3       1 SW4         0.1147
     14 C14        18.1540   28.0320   15.7550 C.3       1 SW4         0.0108
     15 C15        17.3860   27.4300   14.6620 C.3       1 SW4         0.0329
     16 C16        18.2870   26.2640   14.6990 C.3       1 SW4        -0.0280
     17 N17        19.1940   27.0200   15.5540 N.4       1 SW4         0.2314
     18 C18        15.8160   27.0320   19.2680 C.ar      1 SW4        -0.0122
     19 H1         13.5035   32.5310   22.6406 H         1 SW4         0.2094
     20 H2         13.5415   30.9596   24.2450 H         1 SW4         0.0557
     21 H3         15.1388   31.2340   23.4703 H         1 SW4         0.0557
     22 H4         13.2782   29.0280   22.5648 H         1 SW4         0.0292
     23 H5         14.3993   28.8229   23.9532 H         1 SW4         0.0292
     24 H6         15.6991   29.8946   21.4937 H         1 SW4         0.0329
     25 H7         16.1329   27.5049   23.5276 H         1 SW4         0.0296
     26 H8         17.2734   27.8866   22.1933 H         1 SW4         0.0296
     27 H9         14.1823   27.3208   21.9413 H         1 SW4         0.0477
     28 H10        14.4759   24.8732   21.5414 H         1 SW4         0.0671
     29 H11        15.7637   24.0957   17.5682 H         1 SW4         0.0694
     30 H12        18.2150   27.5042   17.8176 H         1 SW4         0.0673
     31 H13        16.9169   28.6624   17.3702 H         1 SW4         0.0673
     32 H14        18.4492   29.0852   15.6384 H         1 SW4         0.0879
     33 H15        17.4190   27.9972   13.7201 H         1 SW4         0.0373
     34 H16        16.3404   27.2017   14.9162 H         1 SW4         0.0373
     35 H17        18.7106   25.9883   13.7220 H         1 SW4         0.0816
     36 H18        17.8537   25.3723   15.1756 H         1 SW4         0.0816
     37 H19        19.4664   26.5363   16.3953 H         1 SW4         0.2017
     38 H20        20.0162   27.3621   15.0819 H         1 SW4         0.2017
     39 H21        16.0995   28.0737   19.1702 H         1 SW4         0.0597
@<TRIPOS>BOND
     1    1    2 1  
     2    2    3 1  
     3    3    4 1  
     4    4    5 1  
     5    4    6 1  
     6    5    6 1  
     7    6    7 1  
     8    7    8 ar 
     9    7   18 ar 
    10    8    9 ar 
    11    9   10 ar 
    12   10   11 ar 
    13   11   12 1  
    14   11   18 ar 
    15   12   13 1  
    16   13   14 1  
    17   14   15 1  
    18   14   17 1  
    19   15   16 1  
    20   16   17 1  
    21    1   19 1  
    22    2   20 1  
    23    2   21 1  
    24    3   22 1  
    25    3   23 1  
    26    4   24 1  
    27    5   25 1  
    28    5   26 1  
    29    6   27 1  
    30    8   28 1  
    31   10   29 1  
    32   13   30 1  
    33   13   31 1  
    34   14   32 1  
    35   15   33 1  
    36   15   34 1  
    37   16   35 1  
    38   16   36 1  
    39   17   37 1  
    40   17   38 1  
    41   18   39 1  
@<TRIPOS>SUBSTRUCTURE
     1 SW4         1

