### 
### Created by X-TOOL on Mon Sep 10 21:13:08 2018
### 

@<TRIPOS>MOLECULE
4b5s_ligand
    9     8     1     0     0
SMALL
GAST_HUCK


@<TRIPOS>ATOM
      1 C1        -48.5870  -31.3390  -18.0920 C.2       1 PYR         0.1245
      2 O1        -49.2790  -30.7750  -17.1390 O.co2     1 PYR        -0.5464
      3 O2        -49.1070  -31.4810  -19.2950 O.co2     1 PYR        -0.5464
      4 C2        -47.2980  -31.8030  -17.8250 C.2       1 PYR         0.1684
      5 O3        -46.5990  -32.2960  -18.8110 O.2       1 PYR        -0.3580
      6 C3        -46.7360  -31.7890  -16.4370 C.3       1 PYR         0.0191
      7 H1        -45.7139  -32.1953  -16.4512 H         1 PYR         0.0463
      8 H2        -47.3666  -32.4057  -15.7798 H         1 PYR         0.0463
      9 H3        -46.7145  -30.7557  -16.0605 H         1 PYR         0.0463
@<TRIPOS>BOND
     1    1    2 ar 
     2    1    3 ar 
     3    1    4 1  
     4    4    5 2  
     5    4    6 1  
     6    6    7 1  
     7    6    8 1  
     8    6    9 1  
@<TRIPOS>SUBSTRUCTURE
     1 PYR         1

