### 
### Created by X-TOOL on Mon Sep 10 21:13:08 2018
### 

@<TRIPOS>MOLECULE
4b5t_ligand
   12    11     1     0     0
SMALL
GAST_HUCK


@<TRIPOS>ATOM
      1 C4        -21.2680   -5.9260    8.2640 C.3       1 2KT        -0.0488
      2 C3        -20.9830   -6.6600    9.5280 C.3       1 2KT         0.0279
      3 C2        -19.6090   -6.4960   10.0520 C.2       1 2KT         0.1712
      4 O3        -18.7940   -5.9760    9.2930 O.2       1 2KT        -0.3577
      5 C1        -19.3110   -6.9520   11.4640 C.2       1 2KT         0.1248
      6 O1        -18.1630   -6.8770   11.9930 O.co2     1 2KT        -0.5464
      7 O2        -20.2140   -7.5250   12.1260 O.co2     1 2KT        -0.5464
      8 H1        -22.3085   -6.1113    7.9591 H         1 2KT         0.0255
      9 H2        -20.5867   -6.2766    7.4748 H         1 2KT         0.0255
     10 H3        -21.1194   -4.8480    8.4245 H         1 2KT         0.0255
     11 H4        -21.1527   -7.7314    9.3458 H         1 2KT         0.0495
     12 H5        -21.6854   -6.3028   10.2955 H         1 2KT         0.0495
@<TRIPOS>BOND
     1    1    2 1  
     2    2    3 1  
     3    3    4 2  
     4    3    5 1  
     5    5    6 ar 
     6    5    7 ar 
     7    1    8 1  
     8    1    9 1  
     9    1   10 1  
    10    2   11 1  
    11    2   12 1  
@<TRIPOS>SUBSTRUCTURE
     1 2KT         1

