### 
### Created by X-TOOL on Mon Sep 10 21:13:08 2018
### 

@<TRIPOS>MOLECULE
4b5w_ligand
   11    10     1     0     0
SMALL
GAST_HUCK


@<TRIPOS>ATOM
      1 C1         29.7360   45.8060   51.7160 C.2       1 PYR         0.0630
      2 O1         30.4490   45.7250   50.6380 O.co2     1 PYR        -0.5664
      3 O2         29.3210   44.7140   52.3050 O.co2     1 PYR        -0.5664
      4 C2         29.4000   47.0630   52.2300 C.3       1 PYR         0.1045
      5 O3         29.8110   48.1660   51.6260 O.3       1 PYR        -0.3780
      6 C3         28.5740   47.0840   53.4670 C.3       1 PYR        -0.0269
      7 H1         28.4867   47.0819   51.6173 H         1 PYR         0.0760
      8 H2         29.4707   48.1857   50.7392 H         1 PYR         0.2123
      9 H3         28.3827   48.1262   53.7625 H         1 PYR         0.0272
     10 H4         29.1111   46.5664   54.2754 H         1 PYR         0.0272
     11 H5         27.6174   46.5751   53.2778 H         1 PYR         0.0272
@<TRIPOS>BOND
     1    1    2 ar 
     2    1    3 ar 
     3    1    4 1  
     4    4    5 1  
     5    4    6 1  
     6    4    7 1  
     7    5    8 1  
     8    6    9 1  
     9    6   10 1  
    10    6   11 1  
@<TRIPOS>SUBSTRUCTURE
     1 PYR         1

