### 
### Created by X-TOOL on Mon Sep 10 21:13:14 2018
### 

@<TRIPOS>MOLECULE
4b6c_ligand
   71    74     1     0     0
SMALL
GAST_HUCK


@<TRIPOS>ATOM
      1 C1         27.6240   37.1060   78.4500 C.3       1 B5U        -0.0327
      2 C2         26.5110   36.1060   78.1910 C.ar      1 B5U        -0.0425
      3 C3         25.3820   36.1080   79.0190 C.ar      1 B5U        -0.0647
      4 C4         24.3360   35.2280   78.8120 C.ar      1 B5U        -0.0649
      5 C5         24.3750   34.2820   77.7800 C.ar      1 B5U        -0.0134
      6 C6         25.4790   34.2910   76.9250 C.ar      1 B5U        -0.0571
      7 C7         26.5390   35.1920   77.0940 C.ar      1 B5U        -0.0424
      8 C8         27.6970   35.1160   76.1360 C.3       1 B5U        -0.0333
      9 C9         23.2250   33.3690   77.5340 C.ar      1 B5U         0.0681
     10 C10        23.3350   32.1500   76.8340 C.ar      1 B5U         0.0368
     11 N11        22.2790   31.3340   76.6280 N.ar      1 B5U        -0.2515
     12 C12        21.0840   31.7600   77.1030 C.ar      1 B5U         0.1800
     13 C13        20.9370   33.0150   77.7810 C.ar      1 B5U         0.1711
     14 N14        22.0220   33.7900   77.9930 N.ar      1 B5U        -0.2622
     15 C15        19.6180   33.4950   78.3890 C.2       1 B5U         0.2224
     16 O16        18.5940   32.8090   78.2930 O.2       1 B5U        -0.3826
     17 N17        19.6550   34.6520   79.0390 N.am      1 B5U        -0.2990
     18 N18        19.9460   30.9980   76.9060 N.pl3     1 B5U        -0.2562
     19 C19        19.7590   29.6520   76.4950 C.ar      1 B5U         0.0543
     20 C20        20.6160   29.0230   75.5810 C.ar      1 B5U        -0.0460
     21 C21        20.3840   27.7110   75.1860 C.ar      1 B5U        -0.0418
     22 C22        19.2730   27.0220   75.6740 C.ar      1 B5U         0.0798
     23 C23        18.3950   27.6530   76.5630 C.ar      1 B5U        -0.0418
     24 C24        18.6310   28.9690   76.9560 C.ar      1 B5U        -0.0460
     25 O25        18.9920   25.7230   75.2820 O.3       1 B5U        -0.3250
     26 C26        19.6360   25.1590   74.1220 C.3       1 B5U         0.0728
     27 C27        19.0370   23.8220   73.7660 C.3       1 B5U         0.0149
     28 C28        19.2590   22.6550   74.7280 C.3       1 B5U        -0.0290
     29 N29        20.6740   22.3480   75.0580 N.4       1 B5U         0.2428
     30 C30        20.7630   21.6820   76.3720 C.3       1 B5U         0.0094
     31 C31        22.2040   21.3390   76.7200 C.3       1 B5U         0.0092
     32 N32        22.8020   20.4920   75.6920 N.4       1 B5U         0.2405
     33 C33        22.7330   21.1700   74.3980 C.3       1 B5U         0.0092
     34 C34        21.2940   21.4880   74.0350 C.3       1 B5U         0.0094
     35 C35        24.1860   20.1630   76.0320 C.3       1 B5U        -0.0427
     36 H1         27.3833   37.6989   79.3447 H         1 B5U         0.0381
     37 H2         27.7248   37.7753   77.5829 H         1 B5U         0.0381
     38 H3         28.5702   36.5683   78.6101 H         1 B5U         0.0381
     39 H4         25.3269   36.8143   79.8395 H         1 B5U         0.0544
     40 H5         23.4689   35.2711   79.4611 H         1 B5U         0.0559
     41 H6         25.5172   33.5807   76.1071 H         1 B5U         0.0549
     42 H7         28.4411   35.8823   76.3988 H         1 B5U         0.0376
     43 H8         27.3372   35.2905   75.1113 H         1 B5U         0.0376
     44 H9         28.1592   34.1197   76.1977 H         1 B5U         0.0376
     45 H10        24.3040   31.8568   76.4465 H         1 B5U         0.0914
     46 H11        18.8235   35.0170   79.4578 H         1 B5U         0.1808
     47 H12        20.5143   35.1585   79.1098 H         1 B5U         0.1808
     48 H13        19.0680   31.5031   77.0930 H         1 B5U         0.2142
     49 H14        21.4654   29.5638   75.1797 H         1 B5U         0.0512
     50 H15        21.0659   27.2230   74.4990 H         1 B5U         0.0516
     51 H16        17.5327   27.1187   76.9452 H         1 B5U         0.0516
     52 H17        17.9355   29.4654   77.6230 H         1 B5U         0.0512
     53 H18        20.7074   25.0278   74.3339 H         1 B5U         0.0611
     54 H19        19.5117   25.8462   73.2721 H         1 B5U         0.0611
     55 H20        19.4538   23.5262   72.7919 H         1 B5U         0.0343
     56 H21        17.9505   23.9654   73.6717 H         1 B5U         0.0343
     57 H22        18.8156   21.7558   74.2754 H         1 B5U         0.0815
     58 H23        18.7366   22.8883   75.6675 H         1 B5U         0.0815
     59 H24        21.1849   23.2160   75.0992 H         1 B5U         0.2038
     60 H25        20.1704   20.7557   76.3454 H         1 B5U         0.0868
     61 H26        20.3583   22.3542   77.1429 H         1 B5U         0.0868
     62 H27        22.2249   20.8063   77.6822 H         1 B5U         0.0868
     63 H28        22.7854   22.2691   76.8030 H         1 B5U         0.0868
     64 H29        22.2758   19.6342   75.6349 H         1 B5U         0.2035
     65 H30        23.1646   20.5173   73.6249 H         1 B5U         0.0868
     66 H31        23.3077   22.1065   74.4499 H         1 B5U         0.0868
     67 H32        21.2731   22.0079   73.0659 H         1 B5U         0.0868
     68 H33        20.7252   20.5495   73.9600 H         1 B5U         0.0868
     69 H34        24.2131   19.6548   77.0072 H         1 B5U         0.0778
     70 H35        24.7805   21.0870   76.0835 H         1 B5U         0.0778
     71 H36        24.6052   19.4997   75.2611 H         1 B5U         0.0778
@<TRIPOS>BOND
     1    1    2 1  
     2    2    3 ar 
     3    2    7 ar 
     4    3    4 ar 
     5    4    5 ar 
     6    5    6 ar 
     7    5    9 1  
     8    6    7 ar 
     9    7    8 1  
    10    9   10 ar 
    11    9   14 ar 
    12   10   11 ar 
    13   11   12 ar 
    14   12   13 ar 
    15   12   18 1  
    16   13   14 ar 
    17   13   15 1  
    18   15   16 2  
    19   15   17 am 
    20   18   19 1  
    21   19   20 ar 
    22   19   24 ar 
    23   20   21 ar 
    24   21   22 ar 
    25   22   23 ar 
    26   22   25 1  
    27   23   24 ar 
    28   25   26 1  
    29   26   27 1  
    30   27   28 1  
    31   28   29 1  
    32   29   30 1  
    33   29   34 1  
    34   30   31 1  
    35   31   32 1  
    36   32   33 1  
    37   32   35 1  
    38   33   34 1  
    39    1   36 1  
    40    1   37 1  
    41    1   38 1  
    42    3   39 1  
    43    4   40 1  
    44    6   41 1  
    45    8   42 1  
    46    8   43 1  
    47    8   44 1  
    48   10   45 1  
    49   17   46 1  
    50   17   47 1  
    51   18   48 1  
    52   20   49 1  
    53   21   50 1  
    54   23   51 1  
    55   24   52 1  
    56   26   53 1  
    57   26   54 1  
    58   27   55 1  
    59   27   56 1  
    60   28   57 1  
    61   28   58 1  
    62   29   59 1  
    63   30   60 1  
    64   30   61 1  
    65   31   62 1  
    66   31   63 1  
    67   32   64 1  
    68   33   65 1  
    69   33   66 1  
    70   34   67 1  
    71   34   68 1  
    72   35   69 1  
    73   35   70 1  
    74   35   71 1  
@<TRIPOS>SUBSTRUCTURE
     1 B5U         1

