### 
### Created by X-TOOL on Mon Sep 10 21:13:10 2018
### 

@<TRIPOS>MOLECULE
4b6e_ligand
   17    18     1     0     0
SMALL
GAST_HUCK


@<TRIPOS>ATOM
      1 N3         45.2750    9.2910  -39.4650 N.pl3     1 10L        -0.3382
      2 C3         44.5300    8.1520  -39.6560 C.ar      1 10L         0.0650
      3 C2         44.9930    6.8600  -39.3080 C.ar      1 10L         0.1090
      4 C4         43.2590    8.2400  -40.2270 C.ar      1 10L        -0.0545
      5 C5         42.4850    7.1130  -40.4410 C.ar      1 10L        -0.0874
      6 C6         42.9520    5.8540  -40.1010 C.ar      1 10L        -0.0801
      7 C1         44.2150    5.7340  -39.5300 C.ar      1 10L        -0.0021
      8 C1'        44.9870    4.6540  -39.0770 C.2       1 10L         0.0173
      9 N1'        46.1740    5.0660  -38.6010 N.2       1 10L        -0.2079
     10 N9         46.1670    6.4190  -38.7490 N.pl3     1 10L        -0.2152
     11 H1         44.8922   10.2082  -39.7354 H         1 10L         0.1704
     12 H2         46.2162    9.2275  -39.0514 H         1 10L         0.1704
     13 H3         42.8702    9.2119  -40.5087 H         1 10L         0.0445
     14 H4         41.4997    7.2169  -40.8808 H         1 10L         0.0491
     15 H5         42.3424    4.9752  -40.2772 H         1 10L         0.0454
     16 H6         44.6653    3.6141  -39.1073 H         1 10L         0.0705
     17 H7         46.9456    7.0354  -38.4756 H         1 10L         0.2439
@<TRIPOS>BOND
     1    1    2 1  
     2    2    3 ar 
     3    2    4 ar 
     4    3    7 ar 
     5    3   10 1  
     6    4    5 ar 
     7    5    6 ar 
     8    6    7 ar 
     9    7    8 1  
    10    8    9 2  
    11    9   10 1  
    12    1   11 1  
    13    1   12 1  
    14    4   13 1  
    15    5   14 1  
    16    6   15 1  
    17    8   16 1  
    18   10   17 1  
@<TRIPOS>SUBSTRUCTURE
     1 10L         1

