### 
### Created by X-TOOL on Mon Sep 10 21:13:09 2018
### 

@<TRIPOS>MOLECULE
4b6f_ligand
   29    30     1     0     0
SMALL
GAST_HUCK


@<TRIPOS>ATOM
      1 N13        -0.1500   14.8320  -43.5070 N.4       1 20L         0.2295
      2 C15        -0.0610   14.5840  -42.0440 C.3       1 20L        -0.0062
      3 C22         7.4920   13.5410  -37.9400 C.ar      1 20L        -0.0724
      4 C21         7.9870   14.3760  -38.9220 C.ar      1 20L        -0.0698
      5 C20         7.1440   15.2470  -39.5760 C.ar      1 20L        -0.0288
      6 C19         5.7990   15.3030  -39.2350 C.ar      1 20L         0.1144
      7 C18         5.2980   14.4360  -38.2760 C.ar      1 20L        -0.0288
      8 C17         6.1500   13.5750  -37.6140 C.ar      1 20L        -0.0698
      9 C23         1.2700   14.9940  -41.4660 C.ar      1 20L        -0.0087
     10 C24         1.5460   16.3330  -41.2040 C.ar      1 20L        -0.0627
     11 C25         2.7720   16.7120  -40.6960 C.ar      1 20L        -0.0346
     12 C26         3.7240   15.7560  -40.3840 C.ar      1 20L         0.1092
     13 C27         3.4750   14.4230  -40.6790 C.ar      1 20L        -0.0346
     14 C28         2.2530   14.0430  -41.1960 C.ar      1 20L        -0.0627
     15 O10         4.9590   16.1520  -39.9170 O.3       1 20L        -0.2622
     16 H          -1.0663   14.5382  -43.8453 H         1 20L         0.2006
     17 H          -0.0215   15.8271  -43.6904 H         1 20L         0.2006
     18 H           0.5770   14.3002  -43.9856 H         1 20L         0.2006
     19 H          -0.1837   13.5138  -41.8772 H         1 20L         0.0958
     20 H          -0.8352   15.1759  -41.5558 H         1 20L         0.0958
     21 H           8.1609   12.8542  -37.4214 H         1 20L         0.0527
     22 H           9.0456   14.3458  -39.1798 H         1 20L         0.0590
     23 H           7.5332   15.8935  -40.3626 H         1 20L         0.0551
     24 H           4.2327   14.4343  -38.0451 H         1 20L         0.0551
     25 H           5.7632   12.9208  -36.8327 H         1 20L         0.0590
     26 H           0.7866   17.0894  -41.4020 H         1 20L         0.0534
     27 H           2.9918   17.7681  -40.5397 H         1 20L         0.0536
     28 H           4.2468   13.6739  -40.5019 H         1 20L         0.0536
     29 H           2.0547   12.9898  -41.3950 H         1 20L         0.0534
@<TRIPOS>BOND
     1    2    1 1  
     2    9    2 1  
     3    4    3 ar 
     4    8    3 ar 
     5    5    4 ar 
     6    6    5 ar 
     7    6    7 ar 
     8   15    6 1  
     9    7    8 ar 
    10   10    9 ar 
    11    9   14 ar 
    12   11   10 ar 
    13   12   11 ar 
    14   12   13 ar 
    15   12   15 1  
    16   13   14 ar 
    17    1   16 1  
    18    1   17 1  
    19    1   18 1  
    20    2   19 1  
    21    2   20 1  
    22    3   21 1  
    23    4   22 1  
    24    5   23 1  
    25    7   24 1  
    26    8   25 1  
    27   10   26 1  
    28   11   27 1  
    29   13   28 1  
    30   14   29 1  
@<TRIPOS>SUBSTRUCTURE
     1 20L         1

