### 
### Created by X-TOOL on Mon Sep 10 21:13:08 2018
### 

@<TRIPOS>MOLECULE
4b6o_ligand
   39    40     1     0     0
SMALL
GAST_HUCK


@<TRIPOS>ATOM
      1 CAA       -52.1670  -29.4250   -7.6900 C.3       1 3DQ         0.0579
      2 OAN       -51.2420  -28.9440   -6.6820 O.3       1 3DQ        -0.3257
      3 CAR       -49.9080  -29.2470   -6.8040 C.ar      1 3DQ         0.0837
      4 CAK       -49.3690  -29.8830   -7.9070 C.ar      1 3DQ        -0.0396
      5 CAI       -48.0060  -30.1570   -7.9810 C.ar      1 3DQ        -0.0686
      6 CAJ       -49.0560  -28.9030   -5.7600 C.ar      1 3DQ        -0.0396
      7 CAH       -47.7000  -29.1840   -5.8220 C.ar      1 3DQ        -0.0686
      8 CAQ       -47.1790  -29.8300   -6.9360 C.ar      1 3DQ        -0.0512
      9 CAL       -45.6960  -30.1330   -6.9930 C.3       1 3DQ        -0.0032
     10 CAU       -44.8700  -28.8360   -7.1380 C.3       1 3DQ         0.0770
     11 CAP       -45.2230  -28.1690   -8.4810 C.2       1 3DQ         0.1429
     12 OAC       -45.9670  -27.1690   -8.5380 O.2       1 3DQ        -0.3883
     13 CAT       -44.6370  -28.7950   -9.7530 C.3       1 3DQ         0.1537
     14 OAF       -44.8850  -27.9660  -10.9130 O.3       1 3DQ        -0.3698
     15 CAS       -43.1270  -29.0040   -9.5600 C.3       1 3DQ         0.0993
     16 OAE       -42.6160  -29.6960  -10.7040 O.3       1 3DQ        -0.3868
     17 CAM       -42.8330  -29.8340   -8.3050 C.3       1 3DQ         0.0142
     18 CAV       -43.3140  -29.0840   -7.0440 C.3       1 3DQ         0.1328
     19 CAO       -42.9860  -29.8570   -5.7510 C.2       1 3DQ         0.0791
     20 OAB       -42.8180  -31.1090   -5.8300 O.co2     1 3DQ        -0.5449
     21 OAD       -42.9140  -29.1860   -4.6820 O.co2     1 3DQ        -0.5449
     22 OAG       -42.6360  -27.7790   -7.0150 O.3       1 3DQ        -0.3822
     23 H1        -53.1860  -29.0945   -7.4401 H         1 3DQ         0.0575
     24 H2        -52.1356  -30.5241   -7.7219 H         1 3DQ         0.0575
     25 H3        -51.8812  -29.0213   -8.6725 H         1 3DQ         0.0575
     26 H4        -50.0172  -30.1726   -8.7262 H         1 3DQ         0.0525
     27 H5        -47.5970  -30.6299   -8.8665 H         1 3DQ         0.0530
     28 H6        -49.4586  -28.4074   -4.8840 H         1 3DQ         0.0525
     29 H7        -47.0481  -28.9005   -5.0036 H         1 3DQ         0.0530
     30 H8        -45.4952  -30.7853   -7.8556 H         1 3DQ         0.0433
     31 H9        -45.3983  -30.6472   -6.0673 H         1 3DQ         0.0433
     32 H10       -45.1535  -28.1559   -6.3212 H         1 3DQ         0.0571
     33 H11       -45.1139  -29.7727   -9.9161 H         1 3DQ         0.0855
     34 H12       -45.8218  -27.8618  -11.0319 H         1 3DQ         0.2135
     35 H13       -42.6346  -28.0247   -9.4679 H         1 3DQ         0.0645
     36 H14       -42.7755  -29.1773  -11.4838 H         1 3DQ         0.2101
     37 H15       -41.7497  -30.0103   -8.2316 H         1 3DQ         0.0314
     38 H16       -43.3574  -30.7983   -8.3762 H         1 3DQ         0.0314
     39 H17       -42.9150  -27.2954   -6.2464 H         1 3DQ         0.2091
@<TRIPOS>BOND
     1    1    2 1  
     2    2    3 1  
     3    3    4 ar 
     4    3    6 ar 
     5    4    5 ar 
     6    5    8 ar 
     7    6    7 ar 
     8    7    8 ar 
     9    8    9 1  
    10    9   10 1  
    11   10   11 1  
    12   10   18 1  
    13   11   12 2  
    14   11   13 1  
    15   13   14 1  
    16   13   15 1  
    17   15   16 1  
    18   15   17 1  
    19   17   18 1  
    20   18   19 1  
    21   18   22 1  
    22   19   20 ar 
    23   19   21 ar 
    24    1   23 1  
    25    1   24 1  
    26    1   25 1  
    27    4   26 1  
    28    5   27 1  
    29    6   28 1  
    30    7   29 1  
    31    9   30 1  
    32    9   31 1  
    33   10   32 1  
    34   13   33 1  
    35   14   34 1  
    36   15   35 1  
    37   16   36 1  
    38   17   37 1  
    39   17   38 1  
    40   22   39 1  
@<TRIPOS>SUBSTRUCTURE
     1 3DQ         1

