### 
### Created by X-TOOL on Mon Sep 10 21:13:09 2018
### 

@<TRIPOS>MOLECULE
4b6p_ligand
   35    36     1     0     0
SMALL
GAST_HUCK


@<TRIPOS>ATOM
      1 FAK        29.7750   46.6210    4.2740 F         1 2HN        -0.1954
      2 CAT        29.6810   47.4700    5.3030 C.ar      1 2HN         0.1588
      3 CAR        29.4280   48.7870    5.0150 C.ar      1 2HN         0.1858
      4 FAI        29.3070   49.1930    3.7370 F         1 2HN        -0.1914
      5 CAP        29.3190   49.6660    6.0740 C.ar      1 2HN         0.1874
      6 FAG        29.0870   50.9610    5.9400 F         1 2HN        -0.1930
      7 CAQ        29.4620   49.2700    7.3570 C.ar      1 2HN         0.1858
      8 FAH        29.3220   50.1970    8.3030 F         1 2HN        -0.1914
      9 CAS        29.7210   47.9650    7.6630 C.ar      1 2HN         0.1588
     10 FAJ        29.8460   47.6520    8.9780 F         1 2HN        -0.1954
     11 CAU        29.8280   47.0380    6.6220 C.ar      1 2HN         0.0198
     12 CAL        30.1230   45.5930    6.9310 C.3       1 2HN        -0.0001
     13 CAX        28.8620   44.7570    7.1580 C.3       1 2HN         0.0768
     14 CAY        29.1690   43.2630    7.1710 C.3       1 2HN         0.1327
     15 OAF        27.8840   42.6350    7.0220 O.3       1 2HN        -0.3822
     16 CAN        30.0220   42.9490    5.9320 C.2       1 2HN         0.0791
     17 OAC        29.3860   42.9380    4.8760 O.co2     1 2HN        -0.5449
     18 OAA        31.2750   42.8340    6.0500 O.co2     1 2HN        -0.5449
     19 CAO        28.2330   45.1690    8.4850 C.2       1 2HN         0.1429
     20 OAB        27.3450   46.0200    8.4590 O.2       1 2HN        -0.3883
     21 CAW        28.8220   44.6090    9.8050 C.3       1 2HN         0.1537
     22 OAE        28.0440   44.9340   10.9620 O.3       1 2HN        -0.3698
     23 CAV        29.0460   43.0850    9.6910 C.3       1 2HN         0.0993
     24 OAD        29.7460   42.6720   10.8720 O.3       1 2HN        -0.3868
     25 CAM        29.9090   42.7860    8.4550 C.3       1 2HN         0.0142
     26 H1         30.7405   45.5486    7.8403 H         1 2HN         0.0429
     27 H2         30.6814   45.1617    6.0871 H         1 2HN         0.0429
     28 H3         28.1512   44.9608    6.3436 H         1 2HN         0.0571
     29 H4         27.4912   42.9108    6.2022 H         1 2HN         0.2091
     30 H5         29.8076   45.0780    9.9418 H         1 2HN         0.0855
     31 H6         27.9914   45.8783   11.0519 H         1 2HN         0.2135
     32 H7         28.0825   42.5601    9.6123 H         1 2HN         0.0645
     33 H8         29.2222   42.8777   11.6375 H         1 2HN         0.2101
     34 H9         30.8688   43.3162    8.5422 H         1 2HN         0.0314
     35 H10        30.0926   41.7034    8.3904 H         1 2HN         0.0314
@<TRIPOS>BOND
     1    1    2 1  
     2    2    3 ar 
     3    2   11 ar 
     4    3    4 1  
     5    3    5 ar 
     6    5    6 1  
     7    5    7 ar 
     8    7    8 1  
     9    7    9 ar 
    10    9   10 1  
    11    9   11 ar 
    12   11   12 1  
    13   12   13 1  
    14   13   14 1  
    15   13   19 1  
    16   14   15 1  
    17   14   16 1  
    18   14   25 1  
    19   16   17 ar 
    20   16   18 ar 
    21   19   20 2  
    22   19   21 1  
    23   21   22 1  
    24   21   23 1  
    25   23   24 1  
    26   23   25 1  
    27   12   26 1  
    28   12   27 1  
    29   13   28 1  
    30   15   29 1  
    31   21   30 1  
    32   22   31 1  
    33   23   32 1  
    34   24   33 1  
    35   25   34 1  
    36   25   35 1  
@<TRIPOS>SUBSTRUCTURE
     1 2HN         1

