### 
### Created by X-TOOL on Mon Sep 10 21:13:08 2018
### 

@<TRIPOS>MOLECULE
4b6q_ligand
   38    40     1     0     0
SMALL
GAST_HUCK


@<TRIPOS>ATOM
      1 CAK        18.7850    2.0030   36.0950 C.2       1 BZ5        -0.0628
      2 CAT        17.5020    1.7350   36.3290 C.ar      1 BZ5        -0.0325
      3 CAI        16.5040    2.5880   36.8230 C.ar      1 BZ5        -0.0661
      4 CAH        15.2280    2.1240   36.9840 C.ar      1 BZ5        -0.0507
      5 CAR        14.9300    0.8050   36.5900 C.ar      1 BZ5        -0.0679
      6 CAJ        15.8890   -0.0610   36.0800 C.ar      1 BZ5        -0.0552
      7 CAU        17.1750    0.4050   35.9460 C.ar      1 BZ5         0.0314
      8 SAO        18.5790   -0.3810   35.3420 S.3       1 BZ5        -0.0422
      9 CAS        19.5130    1.0090   35.6300 C.2       1 BZ5        -0.0044
     10 OAN        14.6370    4.0320   40.0500 O.2       1 BZ5        -0.3883
     11 CAQ        13.8110    3.1250   40.0510 C.2       1 BZ5         0.1430
     12 CAX        11.9030    2.4300   38.7040 C.3       1 BZ5         0.1328
     13 CAP        11.4200    1.6500   37.4850 C.2       1 BZ5         0.0791
     14 CA0        13.4340    2.4110   38.7620 C.3       1 BZ5         0.0776
     15 OAC        11.4720    0.4090   37.5480 O.co2     1 BZ5        -0.5449
     16 OAB        11.0520    2.3070   36.4950 O.co2     1 BZ5        -0.5449
     17 OAF        11.4780    3.8010   38.5940 O.3       1 BZ5        -0.3822
     18 CAM        11.3290    1.7900   39.9700 C.3       1 BZ5         0.0142
     19 CAV        11.6870    2.5790   41.2280 C.3       1 BZ5         0.0993
     20 OAD        11.1510    1.9240   42.4260 O.3       1 BZ5        -0.3868
     21 CAW        13.1930    2.6460   41.3620 C.3       1 BZ5         0.1537
     22 OAE        13.5540    3.5520   42.4580 O.3       1 BZ5        -0.3698
     23 CAA        14.1120    3.0220   37.5360 C.3       1 BZ5        -0.0020
     24 H          19.2092    2.9902   36.2781 H         1 BZ5         0.0419
     25 H          16.7455    3.6198   37.0783 H         1 BZ5         0.0497
     26 H          13.9046    0.4491   36.6894 H         1 BZ5         0.0517
     27 H          15.6292   -1.0803   35.7944 H         1 BZ5         0.0557
     28 H          20.5865    1.0706   35.4512 H         1 BZ5         0.0797
     29 H          13.7932    1.3819   38.7533 H         1 BZ5         0.0572
     30 H          11.8451    4.1855   37.7946 H         1 BZ5         0.2091
     31 H          11.7507    0.7894   40.0655 H         1 BZ5         0.0314
     32 H          10.2430    1.7717   39.8785 H         1 BZ5         0.0314
     33 H          11.2577    3.5769   41.1393 H         1 BZ5         0.0645
     34 H          11.3878    2.4364   43.2025 H         1 BZ5         0.2101
     35 H          13.5788    1.6516   41.5866 H         1 BZ5         0.0855
     36 H          14.5098    3.5905   42.5382 H         1 BZ5         0.2135
     37 H          13.3590    3.1450   36.7576 H         1 BZ5         0.0440
     38 H          14.5561    3.9724   37.8320 H         1 BZ5         0.0440
@<TRIPOS>BOND
     1    2    1 1  
     2    1    9 2  
     3    3    2 ar 
     4    2    7 ar 
     5    4    3 ar 
     6    4    5 ar 
     7   23    4 1  
     8    5    6 ar 
     9    6    7 ar 
    10    7    8 1  
    11    8    9 1  
    12   11   10 2  
    13   14   11 1  
    14   11   21 1  
    15   12   13 1  
    16   14   12 1  
    17   12   17 1  
    18   12   18 1  
    19   13   15 ar 
    20   13   16 ar 
    21   14   23 1  
    22   18   19 1  
    23   19   20 1  
    24   19   21 1  
    25   21   22 1  
    26    1   24 1  
    27    3   25 1  
    28    5   26 1  
    29    6   27 1  
    30    9   28 1  
    31   14   29 1  
    32   17   30 1  
    33   18   31 1  
    34   18   32 1  
    35   19   33 1  
    36   20   34 1  
    37   21   35 1  
    38   22   36 1  
    39   23   37 1  
    40   23   38 1  
@<TRIPOS>SUBSTRUCTURE
     1 BZ5         1

