### 
### Created by X-TOOL on Mon Sep 10 21:13:11 2018
### 

@<TRIPOS>MOLECULE
4b6r_ligand
   39    40     1     0     0
SMALL
GAST_HUCK


@<TRIPOS>ATOM
      1 CAA        26.1420   50.1600  -20.2620 C.3       1 3DQ         0.0579
      2 OAN        25.3160   49.1700  -19.6400 O.3       1 3DQ        -0.3257
      3 CAR        25.0340   49.2360  -18.3020 C.ar      1 3DQ         0.0837
      4 CAK        23.7080   49.2950  -17.8410 C.ar      1 3DQ        -0.0396
      5 CAI        23.4680   49.3630  -16.4530 C.ar      1 3DQ        -0.0686
      6 CAJ        26.0880   49.2200  -17.3900 C.ar      1 3DQ        -0.0396
      7 CAH        25.8340   49.2860  -16.0150 C.ar      1 3DQ        -0.0686
      8 CAQ        24.5310   49.3520  -15.5140 C.ar      1 3DQ        -0.0512
      9 CAL        24.2990   49.4680  -13.9890 C.3       1 3DQ        -0.0032
     10 CAP        22.9370   47.6050  -13.7110 C.2       1 3DQ         0.1429
     11 OAC        23.0160   46.7760  -14.6130 O.2       1 3DQ        -0.3883
     12 CAT        21.6200   48.1050  -13.1510 C.3       1 3DQ         0.1537
     13 CAU        24.2040   48.1720  -13.1770 C.3       1 3DQ         0.0770
     14 OAF        20.5140   47.3330  -13.6510 O.3       1 3DQ        -0.3698
     15 CAS        21.6370   48.1590  -11.6190 C.3       1 3DQ         0.0993
     16 OAE        20.4340   48.7910  -11.2420 O.3       1 3DQ        -0.3868
     17 CAM        22.8490   48.9920  -11.0860 C.3       1 3DQ         0.0142
     18 CAV        24.1600   48.3560  -11.6340 C.3       1 3DQ         0.1328
     19 CAO        25.3900   49.1260  -11.1960 C.2       1 3DQ         0.0791
     20 OAB        25.2810   50.2850  -10.7250 O.co2     1 3DQ        -0.5449
     21 OAD        26.4720   48.5440  -11.3410 O.co2     1 3DQ        -0.5449
     22 OAG        24.2750   47.1250  -10.9260 O.3       1 3DQ        -0.3822
     23 H1         26.2470   49.9300  -21.3325 H         1 3DQ         0.0575
     24 H2         27.1346   50.1599  -19.7879 H         1 3DQ         0.0575
     25 H3         25.6791   51.1508  -20.1436 H         1 3DQ         0.0575
     26 H4         22.8814   49.2883  -18.5422 H         1 3DQ         0.0525
     27 H5         22.4467   49.4252  -16.0952 H         1 3DQ         0.0530
     28 H6         27.1094   49.1561  -17.7473 H         1 3DQ         0.0525
     29 H7         26.6678   49.2859  -15.3223 H         1 3DQ         0.0530
     30 H8         23.3569   50.0164  -13.8419 H         1 3DQ         0.0433
     31 H9         25.1328   50.0537  -13.5745 H         1 3DQ         0.0433
     32 H10        21.4845   49.1363  -13.5089 H         1 3DQ         0.0855
     33 H11        25.0543   47.5156  -13.4139 H         1 3DQ         0.0571
     34 H12        20.4854   47.3995  -14.5982 H         1 3DQ         0.2135
     35 H13        21.6839   47.1407  -11.2058 H         1 3DQ         0.0645
     36 H14        19.6973   48.2830  -11.5608 H         1 3DQ         0.2101
     37 H15        22.8582   48.9729   -9.9862 H         1 3DQ         0.0314
     38 H16        22.7669   50.0322  -11.4341 H         1 3DQ         0.0314
     39 H17        25.0606   46.6712  -11.2076 H         1 3DQ         0.2091
@<TRIPOS>BOND
     1    2    1 1  
     2    3    2 1  
     3    4    3 ar 
     4    6    3 ar 
     5    5    4 ar 
     6    8    5 ar 
     7    7    6 ar 
     8    8    7 ar 
     9    9    8 1  
    10   13    9 1  
    11   10   11 2  
    12   10   12 1  
    13   10   13 1  
    14   12   14 1  
    15   12   15 1  
    16   13   18 1  
    17   15   16 1  
    18   15   17 1  
    19   17   18 1  
    20   18   19 1  
    21   18   22 1  
    22   19   20 ar 
    23   19   21 ar 
    24    1   23 1  
    25    1   24 1  
    26    1   25 1  
    27    4   26 1  
    28    5   27 1  
    29    6   28 1  
    30    7   29 1  
    31    9   30 1  
    32    9   31 1  
    33   12   32 1  
    34   13   33 1  
    35   14   34 1  
    36   15   35 1  
    37   16   36 1  
    38   17   37 1  
    39   17   38 1  
    40   22   39 1  
@<TRIPOS>SUBSTRUCTURE
     1 3DQ         1

