### 
### Created by X-TOOL on Mon Sep 10 21:13:11 2018
### 

@<TRIPOS>MOLECULE
4b6s_ligand
   35    36     1     0     0
SMALL
GAST_HUCK


@<TRIPOS>ATOM
      1 FAK        26.8880   48.9070  -15.2100 F         1 2HN        -0.1954
      2 CAT        25.8030   48.8670  -16.0050 C.ar      1 2HN         0.1588
      3 CAR        25.9910   48.6980  -17.3640 C.ar      1 2HN         0.1858
      4 FAI        27.2120   48.5840  -17.8740 F         1 2HN        -0.1914
      5 CAP        24.9280   48.6450  -18.2270 C.ar      1 2HN         0.1874
      6 FAG        25.1120   48.4680  -19.5320 F         1 2HN        -0.1930
      7 CAQ        23.6640   48.7410  -17.7260 C.ar      1 2HN         0.1858
      8 FAH        22.6450   48.6830  -18.5810 F         1 2HN        -0.1914
      9 CAS        23.4670   48.9230  -16.3810 C.ar      1 2HN         0.1588
     10 FAJ        22.1970   49.0150  -15.9890 F         1 2HN        -0.1954
     11 CAU        24.5240   48.9910  -15.4630 C.ar      1 2HN         0.0198
     12 CAL        24.3220   49.2180  -13.9430 C.3       1 2HN        -0.0001
     13 CAX        24.1800   47.9400  -13.1240 C.3       1 2HN         0.0768
     14 CAY        24.1230   48.1590  -11.6040 C.3       1 2HN         0.1327
     15 OAF        24.2260   46.9210  -10.9170 O.3       1 2HN        -0.3822
     16 CAN        25.3510   48.9740  -11.2690 C.2       1 2HN         0.0791
     17 OAC        26.4230   48.3660  -11.2940 O.co2     1 2HN        -0.5449
     18 OAA        25.1920   50.1640  -10.9830 O.co2     1 2HN        -0.5449
     19 CAO        22.8630   47.3470  -13.5210 C.2       1 2HN         0.1429
     20 OAB        22.9150   46.3940  -14.2890 O.2       1 2HN        -0.3883
     21 CAW        21.5280   47.9440  -13.0000 C.3       1 2HN         0.1537
     22 OAE        20.4050   47.2260  -13.5120 O.3       1 2HN        -0.3698
     23 CAV        21.5600   48.0410  -11.4750 C.3       1 2HN         0.0993
     24 OAD        20.4300   48.7930  -11.0820 O.3       1 2HN        -0.3868
     25 CAM        22.8260   48.8580  -11.1160 C.3       1 2HN         0.0142
     26 H1         23.4105   49.8178  -13.8038 H         1 2HN         0.0429
     27 H2         25.1898   49.7756  -13.5610 H         1 2HN         0.0429
     28 H3         25.0093   47.2578  -13.3622 H         1 2HN         0.0571
     29 H4         25.0511   46.5052  -11.1380 H         1 2HN         0.2091
     30 H5         21.4508   48.9711  -13.3862 H         1 2HN         0.0855
     31 H6         20.4074   47.2713  -14.4609 H         1 2HN         0.2135
     32 H7         21.5690   47.0482  -11.0015 H         1 2HN         0.0645
     33 H8         19.6406   48.3521  -11.3733 H         1 2HN         0.2101
     34 H9         22.7561   49.8485  -11.5892 H         1 2HN         0.0314
     35 H10        22.8751   48.9762  -10.0235 H         1 2HN         0.0314
@<TRIPOS>BOND
     1    1    2 1  
     2    2    3 ar 
     3    2   11 ar 
     4    3    4 1  
     5    3    5 ar 
     6    5    6 1  
     7    5    7 ar 
     8    7    8 1  
     9    7    9 ar 
    10    9   10 1  
    11    9   11 ar 
    12   11   12 1  
    13   12   13 1  
    14   13   14 1  
    15   13   19 1  
    16   14   15 1  
    17   14   16 1  
    18   14   25 1  
    19   16   17 ar 
    20   16   18 ar 
    21   19   20 2  
    22   19   21 1  
    23   21   22 1  
    24   21   23 1  
    25   23   24 1  
    26   23   25 1  
    27   12   26 1  
    28   12   27 1  
    29   13   28 1  
    30   15   29 1  
    31   21   30 1  
    32   22   31 1  
    33   23   32 1  
    34   24   33 1  
    35   25   34 1  
    36   25   35 1  
@<TRIPOS>SUBSTRUCTURE
     1 2HN         1

