### 
### Created by X-TOOL on Mon Sep 10 21:13:16 2018
### 

@<TRIPOS>MOLECULE
4b70_ligand
   39    41     1     0     0
SMALL
GAST_HUCK


@<TRIPOS>ATOM
      1 C1          5.1590    3.2290  -22.1330 C.3       1 WM9        -0.0142
      2 C2          5.3060    2.4910  -20.8120 C.3       1 WM9         0.2028
      3 N3          4.0000    2.7320  -20.2080 N.pl3     1 WM9        -0.2678
      4 C4          3.9710    3.1560  -18.9830 C.cat     1 WM9         0.2025
      5 C5          5.1890    3.3470  -18.1090 C.3       1 WM9         0.0409
      6 C6          6.4300    2.7420  -18.7410 C.3       1 WM9         0.0442
      7 O7          6.4230    3.0850  -20.1310 O.3       1 WM9        -0.3699
      8 N8          2.7830    3.4370  -18.3740 N.pl3     1 WM9        -0.2766
      9 C9          5.6270    1.0350  -21.0740 C.ar      1 WM9         0.0263
     10 C10         6.5180    0.6920  -22.0750 C.ar      1 WM9        -0.0327
     11 C11         6.8260   -0.6320  -22.3100 C.ar      1 WM9        -0.0316
     12 C12         6.2790   -1.6340  -21.5300 C.ar      1 WM9        -0.0262
     13 C13         5.3790   -1.3330  -20.5230 C.ar      1 WM9         0.0115
     14 C14         5.0750    0.0130  -20.3220 C.ar      1 WM9        -0.0249
     15 C15         4.8630   -2.3730  -19.6370 C.ar      1 WM9        -0.0105
     16 C16         5.5920   -3.5290  -19.3780 C.ar      1 WM9        -0.0533
     17 C17         5.1790   -4.4970  -18.4770 C.ar      1 WM9        -0.0607
     18 C18         3.9940   -4.3350  -17.7880 C.ar      1 WM9        -0.0478
     19 C19         3.2430   -3.2060  -18.0530 C.ar      1 WM9         0.0410
     20 C20         3.6620   -2.2450  -18.9650 C.ar      1 WM9        -0.0395
     21 CL          1.7800   -2.9500  -17.1960 Cl        1 WM9        -0.0707
     22 H1          4.3120    2.8090  -22.6953 H         1 WM9         0.0207
     23 H2          6.0817    3.1157  -22.7210 H         1 WM9         0.0207
     24 H3          4.9768    4.2962  -21.9385 H         1 WM9         0.0207
     25 H4          3.1308    2.5708  -20.7366 H         1 WM9         0.3126
     26 H5          5.0109    2.8629  -17.1375 H         1 WM9         0.0303
     27 H6          5.3544    4.4238  -17.9573 H         1 WM9         0.0303
     28 H7          6.4140    1.6482  -18.6252 H         1 WM9         0.0548
     29 H8          7.3316    3.1486  -18.2596 H         1 WM9         0.0548
     30 H9          2.7702    3.7733  -17.4005 H         1 WM9         0.3177
     31 H10         1.8989    3.3128  -18.8877 H         1 WM9         0.3177
     32 H11         6.9765    1.4675  -22.6778 H         1 WM9         0.0853
     33 H12         7.5045   -0.8897  -23.1152 H         1 WM9         0.0698
     34 H13         6.5581   -2.6660  -21.7092 H         1 WM9         0.0862
     35 H14         4.3719    0.2713  -19.5384 H         1 WM9         0.0859
     36 H15         6.5268   -3.6795  -19.9057 H         1 WM9         0.0625
     37 H16         5.7856   -5.3803  -18.3134 H         1 WM9         0.0618
     38 H17         3.6634   -5.0696  -17.0627 H         1 WM9         0.0623
     39 H18         3.0362   -1.3800  -19.1527 H         1 WM9         0.0630
@<TRIPOS>BOND
     1    1    2 1  
     2    2    3 1  
     3    2    7 1  
     4    2    9 1  
     5    3    4 ar 
     6    4    5 1  
     7    4    8 ar 
     8    5    6 1  
     9    6    7 1  
    10    9   10 ar 
    11    9   14 ar 
    12   10   11 ar 
    13   11   12 ar 
    14   12   13 ar 
    15   13   14 ar 
    16   13   15 1  
    17   15   16 ar 
    18   15   20 ar 
    19   16   17 ar 
    20   17   18 ar 
    21   18   19 ar 
    22   19   20 ar 
    23   19   21 1  
    24    1   22 1  
    25    1   23 1  
    26    1   24 1  
    27    3   25 1  
    28    5   26 1  
    29    5   27 1  
    30    6   28 1  
    31    6   29 1  
    32    8   30 1  
    33    8   31 1  
    34   10   32 1  
    35   11   33 1  
    36   12   34 1  
    37   14   35 1  
    38   16   36 1  
    39   17   37 1  
    40   18   38 1  
    41   20   39 1  
@<TRIPOS>SUBSTRUCTURE
     1 WM9         1

