### 
### Created by X-TOOL on Mon Sep 10 21:13:09 2018
### 

@<TRIPOS>MOLECULE
4b71_ligand
   35    36     1     0     0
SMALL
GAST_HUCK


@<TRIPOS>ATOM
      1 C1          7.7680   13.4270  -39.4550 C.ar      1 DJL        -0.0697
      2 C2          7.1580   13.4280  -38.2140 C.ar      1 DJL        -0.0723
      3 C3          5.8280   13.7970  -38.0940 C.ar      1 DJL        -0.0697
      4 C4          5.1050   14.1660  -39.2150 C.ar      1 DJL        -0.0286
      5 C5          5.7170   14.1650  -40.4640 C.ar      1 DJL         0.1152
      6 C6          7.0530   13.7940  -40.5790 C.ar      1 DJL        -0.0286
      7 O7          5.1250   14.5100  -41.6870 O.3       1 DJL        -0.2586
      8 C8          3.8310   15.0160  -41.7490 C.ar      1 DJL         0.1575
      9 C9          3.4620   16.3190  -41.3980 C.ar      1 DJL         0.0639
     10 C10         2.1500   16.7420  -41.4900 C.ar      1 DJL        -0.0658
     11 C11         1.1700   15.8830  -41.9320 C.ar      1 DJL        -0.0662
     12 C12         1.4900   14.5790  -42.2910 C.ar      1 DJL         0.0307
     13 C13         2.8320   14.1670  -42.1910 C.ar      1 DJL         0.1704
     14 CL1         4.6360   17.4580  -40.8330 Cl        1 DJL        -0.0849
     15 N20         0.5340   12.2930  -42.1410 N.4       1 DJL         0.2324
     16 C22         0.1150   14.7410  -45.0340 C.3       1 DJL        -0.0584
     17 C23         0.4300   13.4730  -44.2950 C.3       1 DJL        -0.0033
     18 F23         3.1500   12.9070  -42.5370 F         1 DJL        -0.1949
     19 C30         0.4080   13.6340  -42.7790 C.3       1 DJL         0.0077
     20 H1          8.8087   13.1378  -39.5462 H         1 DJL         0.0590
     21 H2          7.7212   13.1397  -37.3338 H         1 DJL         0.0527
     22 H3          5.3525   13.7967  -37.1198 H         1 DJL         0.0590
     23 H4          4.0646   14.4550  -39.1198 H         1 DJL         0.0552
     24 H5          7.5332   13.7929  -41.5508 H         1 DJL         0.0552
     25 H6          1.8909   17.7572  -41.2122 H         1 DJL         0.0547
     26 H7          0.1436   16.2250  -42.0005 H         1 DJL         0.0463
     27 H8         -0.1960   11.6881  -42.4834 H         1 DJL         0.2010
     28 H9          0.4506   12.3875  -41.1409 H         1 DJL         0.2010
     29 H10         1.4326   11.8963  -42.3672 H         1 DJL         0.2010
     30 H11         0.1486   14.5521  -46.1171 H         1 DJL         0.0233
     31 H12         0.8557   15.5112  -44.7730 H         1 DJL         0.0233
     32 H13        -0.8901   15.0889  -44.7535 H         1 DJL         0.0233
     33 H14         1.4327   13.1345  -44.5951 H         1 DJL         0.0339
     34 H15        -0.3132   12.7121  -44.5756 H         1 DJL         0.0339
     35 H16        -0.5644   14.0620  -42.4942 H         1 DJL         0.1006
@<TRIPOS>BOND
     1    1    2 ar 
     2    6    1 ar 
     3    3    2 ar 
     4    4    3 ar 
     5    5    4 ar 
     6    5    6 ar 
     7    7    5 1  
     8    8    7 1  
     9    8    9 ar 
    10   13    8 ar 
    11   10    9 ar 
    12    9   14 1  
    13   11   10 ar 
    14   12   11 ar 
    15   12   13 ar 
    16   19   12 1  
    17   13   18 1  
    18   19   15 1  
    19   17   16 1  
    20   17   19 1  
    21    1   20 1  
    22    2   21 1  
    23    3   22 1  
    24    4   23 1  
    25    6   24 1  
    26   10   25 1  
    27   11   26 1  
    28   15   27 1  
    29   15   28 1  
    30   15   29 1  
    31   16   30 1  
    32   16   31 1  
    33   16   32 1  
    34   17   33 1  
    35   17   34 1  
    36   19   35 1  
@<TRIPOS>SUBSTRUCTURE
     1 DJL         1

