### 
### Created by X-TOOL on Mon Sep 10 21:13:14 2018
### 

@<TRIPOS>MOLECULE
4b72_ligand
   50    54     1     0     0
SMALL
GAST_HUCK


@<TRIPOS>ATOM
      1 C1          8.3090    3.8620  -16.2020 C.3       1 2FB         0.0224
      2 C2          7.4260    3.5170  -17.3770 C.2       1 2FB         0.1228
      3 N3          6.1380    3.6020  -17.3760 N.2       1 2FB        -0.2592
      4 C4          5.5420    3.2460  -18.5300 C.2       1 2FB         0.1013
      5 C5          6.4080    2.8550  -19.5020 C.2       1 2FB         0.0366
      6 S6          7.9840    2.9370  -18.8880 S.3       1 2FB         0.0114
      7 C7          5.6180    2.5000  -20.7410 C.3       1 2FB         0.1002
      8 N8          4.2250    2.7250  -20.3170 N.pl3     1 2FB        -0.3233
      9 C9          4.1850    3.1500  -19.0900 C.cat     1 2FB         0.2474
     10 N10         3.0500    3.4390  -18.3700 N.pl3     1 2FB        -0.2687
     11 C11         5.9470    3.4390  -21.8910 C.ar      1 2FB        -0.0637
     12 C12         7.2010    4.0510  -22.0210 C.ar      1 2FB        -0.0650
     13 C13         7.4610    4.8970  -23.1010 C.ar      1 2FB        -0.0153
     14 C14         6.4430    5.2320  -24.0010 C.ar      1 2FB         0.1114
     15 C15         5.1760    4.6140  -23.8870 C.ar      1 2FB        -0.0153
     16 C16         4.9470    3.7410  -22.8200 C.ar      1 2FB        -0.0650
     17 O17         6.7240    6.0700  -25.0280 O.3       1 2FB        -0.3077
     18 C18         5.6880    6.8500  -25.6560 C.3       1 2FB         0.0645
     19 C19         5.8800    1.0340  -21.1000 C.ar      1 2FB        -0.0555
     20 C20         6.6880    0.6630  -22.1840 C.ar      1 2FB        -0.0591
     21 C21         6.9220   -0.6810  -22.4790 C.ar      1 2FB        -0.0468
     22 C22         6.3890   -1.6760  -21.6710 C.ar      1 2FB        -0.0380
     23 C23         5.5690   -1.3160  -20.5870 C.ar      1 2FB         0.0078
     24 C24         5.3710    0.0400  -20.2870 C.ar      1 2FB        -0.0497
     25 C25         5.0490   -2.3590  -19.6540 C.ar      1 2FB         0.0378
     26 C26         5.8900   -3.4100  -19.2180 C.ar      1 2FB         0.0370
     27 N27         5.4430   -4.2910  -18.3220 N.ar      1 2FB        -0.2623
     28 C28         4.2030   -4.2060  -17.8360 C.ar      1 2FB         0.0896
     29 N29         3.3940   -3.2220  -18.2010 N.ar      1 2FB        -0.2623
     30 C30         3.7620   -2.3020  -19.1010 C.ar      1 2FB         0.0370
     31 H1          7.6859    4.2088  -15.3645 H         1 2FB         0.0557
     32 H2          9.0102    4.6585  -16.4916 H         1 2FB         0.0557
     33 H3          8.8742    2.9701  -15.8937 H         1 2FB         0.0557
     34 H4          3.3982    2.5673  -20.9106 H         1 2FB         0.2993
     35 H5          3.1273    3.7717  -17.3983 H         1 2FB         0.3185
     36 H6          2.1224    3.3228  -18.8023 H         1 2FB         0.3185
     37 H7          7.9714    3.8671  -21.2809 H         1 2FB         0.0706
     38 H8          8.4584    5.2971  -23.2433 H         1 2FB         0.0601
     39 H9          4.3969    4.8138  -24.6138 H         1 2FB         0.0601
     40 H10         3.9691    3.2865  -22.7099 H         1 2FB         0.0706
     41 H11         6.1247    7.4591  -26.4612 H         1 2FB         0.0588
     42 H12         5.2218    7.5095  -24.9092 H         1 2FB         0.0588
     43 H13         4.9266    6.1770  -26.0772 H         1 2FB         0.0588
     44 H14         7.1377    1.4315  -22.8023 H         1 2FB         0.0729
     45 H15         7.5216   -0.9486  -23.3415 H         1 2FB         0.0659
     46 H16         6.6026   -2.7193  -21.8735 H         1 2FB         0.0749
     47 H17         4.8085    0.3126  -19.4014 H         1 2FB         0.0739
     48 H18         6.8961   -3.4990  -19.6116 H         1 2FB         0.0944
     49 H19         3.8526   -4.9526  -17.1326 H         1 2FB         0.1122
     50 H20         3.0720   -1.5209  -19.3992 H         1 2FB         0.0944
@<TRIPOS>BOND
     1    1    2 1  
     2    2    3 2  
     3    2    6 1  
     4    3    4 1  
     5    4    5 2  
     6    4    9 1  
     7    5    6 1  
     8    5    7 1  
     9    7    8 1  
    10    7   11 1  
    11    7   19 1  
    12    8    9 ar 
    13    9   10 ar 
    14   11   12 ar 
    15   11   16 ar 
    16   12   13 ar 
    17   13   14 ar 
    18   14   15 ar 
    19   14   17 1  
    20   15   16 ar 
    21   17   18 1  
    22   19   20 ar 
    23   19   24 ar 
    24   20   21 ar 
    25   21   22 ar 
    26   22   23 ar 
    27   23   24 ar 
    28   23   25 1  
    29   25   26 ar 
    30   25   30 ar 
    31   26   27 ar 
    32   27   28 ar 
    33   28   29 ar 
    34   29   30 ar 
    35    1   31 1  
    36    1   32 1  
    37    1   33 1  
    38    8   34 1  
    39   10   35 1  
    40   10   36 1  
    41   12   37 1  
    42   13   38 1  
    43   15   39 1  
    44   16   40 1  
    45   18   41 1  
    46   18   42 1  
    47   18   43 1  
    48   20   44 1  
    49   21   45 1  
    50   22   46 1  
    51   24   47 1  
    52   26   48 1  
    53   28   49 1  
    54   30   50 1  
@<TRIPOS>SUBSTRUCTURE
     1 2FB         1

