### 
### Created by X-TOOL on Mon Sep 10 21:13:09 2018
### 

@<TRIPOS>MOLECULE
4b73_ligand
   48    49     1     0     0
SMALL
GAST_HUCK


@<TRIPOS>ATOM
      1 F           2.8870   13.0280  -42.0830 F         1 4VA        -0.1949
      2 CL          4.8220   17.3540  -40.3950 Cl        1 4VA        -0.0849
      3 C1          0.0900   14.7230  -44.6530 C.3       1 4VA        -0.0584
      4 C2          0.3370   13.5970  -43.7100 C.3       1 4VA        -0.0032
      5 C3          0.2120   13.9940  -42.2420 C.3       1 4VA         0.0099
      6 N5          0.0390   12.7450  -41.4160 N.4       1 4VA         0.2442
      7 C8         -1.3280   12.1080  -41.4030 C.3       1 4VA        -0.0070
      8 C10        -1.2660   10.7500  -40.7120 C.3       1 4VA        -0.0194
      9 C11        -2.3040   13.0670  -40.7370 C.3       1 4VA         0.0796
     10 C12        -1.9570   13.3170  -39.2990 C.2       1 4VA         0.1789
     11 O13        -0.8030   13.4170  -38.9530 O.2       1 4VA        -0.3971
     12 N14        -2.9780   13.4060  -38.4560 N.am      1 4VA        -0.3007
     13 C15         1.3840   14.8280  -41.7740 C.ar      1 4VA         0.0307
     14 C16         1.1900   16.1430  -41.3940 C.ar      1 4VA        -0.0662
     15 C17         2.2520   16.9070  -40.9780 C.ar      1 4VA        -0.0658
     16 C18         3.5160   16.3620  -40.9350 C.ar      1 4VA         0.0639
     17 C20         3.7260   15.0480  -41.2970 C.ar      1 4VA         0.1575
     18 O21         4.9770   14.5010  -41.2760 O.3       1 4VA        -0.2586
     19 C22         5.6700   14.2380  -40.1190 C.ar      1 4VA         0.1152
     20 C23         5.0310   14.2550  -38.8950 C.ar      1 4VA        -0.0286
     21 C24         5.7370   13.9820  -37.7540 C.ar      1 4VA        -0.0697
     22 C25         7.0880   13.6810  -37.8260 C.ar      1 4VA        -0.0723
     23 C26         7.7270   13.6600  -39.0410 C.ar      1 4VA        -0.0697
     24 C27         7.0260   13.9400  -40.1880 C.ar      1 4VA        -0.0286
     25 C28         2.6750   14.3010  -41.7210 C.ar      1 4VA         0.1704
     26 H1          0.1967   14.3649  -45.6876 H         1 4VA         0.0233
     27 H2          0.8192   15.5249  -44.4656 H         1 4VA         0.0233
     28 H3         -0.9283   15.1108  -44.5024 H         1 4VA         0.0233
     29 H4          1.3543   13.2155  -43.8821 H         1 4VA         0.0339
     30 H5         -0.3933   12.8013  -43.9189 H         1 4VA         0.0339
     31 H6         -0.6945   14.6069  -42.1296 H         1 4VA         0.1007
     32 H7          0.2740   12.9769  -40.4636 H         1 4VA         0.2034
     33 H8          0.6895   12.0586  -41.7650 H         1 4VA         0.2034
     34 H9         -1.6555   11.9471  -42.4407 H         1 4VA         0.0874
     35 H10        -2.2673   10.2946  -40.7080 H         1 4VA         0.0286
     36 H11        -0.9187   10.8810  -39.6765 H         1 4VA         0.0286
     37 H12        -0.5674   10.0948  -41.2530 H         1 4VA         0.0286
     38 H13        -3.3150   12.6365  -40.7882 H         1 4VA         0.0558
     39 H14        -2.2853   14.0246  -41.2780 H         1 4VA         0.0558
     40 H15        -2.8109   13.5718  -37.4841 H         1 4VA         0.1814
     41 H16        -3.9144   13.3073  -38.7927 H         1 4VA         0.1814
     42 H17         0.1952   16.5726  -41.4247 H         1 4VA         0.0463
     43 H18         2.0958   17.9385  -40.6836 H         1 4VA         0.0547
     44 H19         3.9730   14.4839  -38.8376 H         1 4VA         0.0552
     45 H20         5.2380   14.0013  -36.7919 H         1 4VA         0.0590
     46 H21         7.6418   13.4615  -36.9203 H         1 4VA         0.0527
     47 H22         8.7834   13.4227  -39.0947 H         1 4VA         0.0590
     48 H23         7.5302   13.9287  -41.1476 H         1 4VA         0.0552
@<TRIPOS>BOND
     1   25    1 1  
     2   16    2 1  
     3    4    3 1  
     4    5    4 1  
     5    5    6 1  
     6   13    5 1  
     7    6    7 1  
     8    7    8 1  
     9    7    9 1  
    10    9   10 1  
    11   10   11 2  
    12   10   12 am 
    13   14   13 ar 
    14   13   25 ar 
    15   15   14 ar 
    16   15   16 ar 
    17   16   17 ar 
    18   17   18 1  
    19   17   25 ar 
    20   18   19 1  
    21   19   20 ar 
    22   19   24 ar 
    23   20   21 ar 
    24   21   22 ar 
    25   22   23 ar 
    26   23   24 ar 
    27    3   26 1  
    28    3   27 1  
    29    3   28 1  
    30    4   29 1  
    31    4   30 1  
    32    5   31 1  
    33    6   32 1  
    34    6   33 1  
    35    7   34 1  
    36    8   35 1  
    37    8   36 1  
    38    8   37 1  
    39    9   38 1  
    40    9   39 1  
    41   12   40 1  
    42   12   41 1  
    43   14   42 1  
    44   15   43 1  
    45   20   44 1  
    46   21   45 1  
    47   22   46 1  
    48   23   47 1  
    49   24   48 1  
@<TRIPOS>SUBSTRUCTURE
     1 4VA         1

