### 
### Created by X-TOOL on Mon Sep 10 21:13:09 2018
### 

@<TRIPOS>MOLECULE
4b74_ligand
   57    58     1     0     0
SMALL
GAST_HUCK


@<TRIPOS>ATOM
      1 C1          0.6250   15.0930  -43.9980 C.3       1 1LH        -0.0584
      2 C2          0.6720   13.9110  -43.0580 C.3       1 1LH        -0.0032
      3 C3          0.5230   14.2910  -41.5940 C.3       1 1LH         0.0099
      4 N5          0.3180   13.0290  -40.7840 N.4       1 1LH         0.2442
      5 C8         -1.0690   12.4440  -40.6880 C.3       1 1LH        -0.0070
      6 C10        -1.0120   11.0810  -40.0140 C.3       1 1LH        -0.0194
      7 C11        -2.0150   13.4090  -39.9670 C.3       1 1LH         0.0798
      8 C12        -1.6630   13.6930  -38.5260 C.2       1 1LH         0.1816
      9 O13        -0.5270   14.0170  -38.1870 O.2       1 1LH        -0.3969
     10 N14        -2.6690   13.5670  -37.6630 N.am      1 1LH        -0.2817
     11 C15        -2.4760   13.7190  -36.2320 C.3       1 1LH         0.0707
     12 C16        -3.6190   14.4660  -35.5810 C.3       1 1LH        -0.0148
     13 N17        -3.7090   15.8510  -36.1020 N.4       1 1LH         0.2200
     14 C21         1.7030   15.0960  -41.0670 C.ar      1 1LH         0.0307
     15 C22         1.5490   16.4250  -40.6860 C.ar      1 1LH        -0.0662
     16 C23         2.6330   17.1410  -40.2090 C.ar      1 1LH        -0.0658
     17 C24         3.8810   16.5450  -40.1040 C.ar      1 1LH         0.0639
     18 CL2         5.1890   17.5050  -39.4980 Cl        1 1LH        -0.0849
     19 C26         4.0830   15.2180  -40.4730 C.ar      1 1LH         0.1575
     20 O27         5.3080   14.5580  -40.3940 O.3       1 1LH        -0.2586
     21 C28         5.8700   14.2600  -39.1690 C.ar      1 1LH         0.1152
     22 C29         5.2640   14.3870  -37.9300 C.ar      1 1LH        -0.0286
     23 C30         5.9630   14.0450  -36.7850 C.ar      1 1LH        -0.0697
     24 C31         7.2550   13.5800  -36.8780 C.ar      1 1LH        -0.0723
     25 C32         7.8580   13.4530  -38.1100 C.ar      1 1LH        -0.0697
     26 C33         7.1670   13.7920  -39.2580 C.ar      1 1LH        -0.0286
     27 C34         2.9870   14.5200  -40.9480 C.ar      1 1LH         0.1704
     28 F35         3.1470   13.2370  -41.3120 F         1 1LH        -0.1949
     29 H1          0.7387   14.7421  -45.0343 H         1 1LH         0.0233
     30 H2          1.4422   15.7879  -43.7545 H         1 1LH         0.0233
     31 H3         -0.3401   15.6096  -43.8896 H         1 1LH         0.0233
     32 H4          1.6381   13.4014  -43.1883 H         1 1LH         0.0339
     33 H5         -0.1443   13.2230  -43.3234 H         1 1LH         0.0339
     34 H6         -0.3761   14.9169  -41.4946 H         1 1LH         0.1007
     35 H7          0.6211   13.2281  -39.8435 H         1 1LH         0.2034
     36 H8          0.9114   12.3198  -41.1853 H         1 1LH         0.2034
     37 H9         -1.4522   12.2999  -41.7090 H         1 1LH         0.0874
     38 H10        -2.0269   10.6618  -39.9481 H         1 1LH         0.0286
     39 H11        -0.5937   11.1893  -39.0024 H         1 1LH         0.0286
     40 H12        -0.3743   10.4064  -40.6042 H         1 1LH         0.0286
     41 H13        -3.0265   12.9774  -39.9921 H         1 1LH         0.0559
     42 H14        -2.0099   14.3635  -40.5136 H         1 1LH         0.0559
     43 H15        -3.5840   13.3617  -38.0104 H         1 1LH         0.1853
     44 H16        -1.5432   14.2750  -36.0567 H         1 1LH         0.0573
     45 H17        -2.3991   12.7208  -35.7762 H         1 1LH         0.0573
     46 H18        -3.4546   14.4999  -34.4939 H         1 1LH         0.0833
     47 H19        -4.5611   13.9393  -35.7932 H         1 1LH         0.0833
     48 H20        -4.4759   16.3289  -35.6552 H         1 1LH         0.1995
     49 H21        -3.8632   15.8261  -37.0978 H         1 1LH         0.1995
     50 H22        -2.8493   16.3398  -35.9072 H         1 1LH         0.1995
     51 H23         0.5780   16.9007  -40.7629 H         1 1LH         0.0463
     52 H24         2.5056   18.1765  -39.9149 H         1 1LH         0.0547
     53 H25         4.2462   14.7528  -37.8571 H         1 1LH         0.0552
     54 H26         5.4920   14.1436  -35.8137 H         1 1LH         0.0590
     55 H27         7.7995   13.3130  -35.9795 H         1 1LH         0.0527
     56 H28         8.8759   13.0867  -38.1792 H         1 1LH         0.0590
     57 H29         7.6421   13.6908  -40.2271 H         1 1LH         0.0552
@<TRIPOS>BOND
     1    1    2 1  
     2    2    3 1  
     3    3    4 1  
     4    3   14 1  
     5    4    5 1  
     6    5    6 1  
     7    5    7 1  
     8    7    8 1  
     9    8    9 2  
    10    8   10 am 
    11   10   11 1  
    12   11   12 1  
    13   12   13 1  
    14   14   15 ar 
    15   14   27 ar 
    16   15   16 ar 
    17   16   17 ar 
    18   17   18 1  
    19   17   19 ar 
    20   19   20 1  
    21   19   27 ar 
    22   20   21 1  
    23   21   22 ar 
    24   21   26 ar 
    25   22   23 ar 
    26   23   24 ar 
    27   24   25 ar 
    28   25   26 ar 
    29   27   28 1  
    30    1   29 1  
    31    1   30 1  
    32    1   31 1  
    33    2   32 1  
    34    2   33 1  
    35    3   34 1  
    36    4   35 1  
    37    4   36 1  
    38    5   37 1  
    39    6   38 1  
    40    6   39 1  
    41    6   40 1  
    42    7   41 1  
    43    7   42 1  
    44   10   43 1  
    45   11   44 1  
    46   11   45 1  
    47   12   46 1  
    48   12   47 1  
    49   13   48 1  
    50   13   49 1  
    51   13   50 1  
    52   15   51 1  
    53   16   52 1  
    54   22   53 1  
    55   23   54 1  
    56   24   55 1  
    57   25   56 1  
    58   26   57 1  
@<TRIPOS>SUBSTRUCTURE
     1 1LH         1

