### 
### Created by X-TOOL on Mon Sep 10 21:13:10 2018
### 

@<TRIPOS>MOLECULE
4b76_ligand
   29    30     1     0     0
SMALL
GAST_HUCK


@<TRIPOS>ATOM
      1 C6          1.6890   16.2410  -41.6570 C.ar      1 PW1        -0.0688
      2 C5          2.6250   17.2050  -41.3700 C.ar      1 PW1        -0.0460
      3 C4          3.9390   16.8510  -41.2380 C.ar      1 PW1         0.1555
      4 F           4.8460   17.8070  -40.9570 F         1 PW1        -0.1958
      5 C3          4.3740   15.5550  -41.3820 C.ar      1 PW1         0.1766
      6 C8          3.4180   14.5950  -41.6710 C.ar      1 PW1         0.1683
      7 C7          2.0770   14.9160  -41.8110 C.ar      1 PW1         0.0235
      8 C2          1.0330   13.8670  -42.1270 C.3       1 PW1        -0.0048
      9 N3          1.2490   13.2160  -43.4380 N.4       1 PW1         0.2296
     10 C13         8.2200   13.8480  -39.0380 C.ar      1 PW1        -0.0698
     11 C12         7.5890   14.4170  -40.1230 C.ar      1 PW1        -0.0289
     12 C11         6.2320   14.6850  -40.0720 C.ar      1 PW1         0.1140
     13 C10         5.5100   14.3800  -38.9300 C.ar      1 PW1        -0.0289
     14 O12         5.7260   15.2590  -41.2360 O.3       1 PW1        -0.2591
     15 C9          6.1470   13.8110  -37.8480 C.ar      1 PW1        -0.0698
     16 F2          3.8040   13.3140  -41.8190 F         1 PW1        -0.1960
     17 C14         7.4990   13.5450  -37.9010 C.ar      1 PW1        -0.0724
     18 H1          0.6456   16.5149  -41.7635 H         1 PW1         0.0453
     19 H2          2.3237   18.2392  -41.2490 H         1 PW1         0.0527
     20 H3          0.0434   14.3472  -42.1325 H         1 PW1         0.0961
     21 H4          1.0620   13.0957  -41.3432 H         1 PW1         0.0961
     22 H5          0.5276   12.5297  -43.5952 H         1 PW1         0.2006
     23 H6          2.1499   12.7639  -43.4443 H         1 PW1         0.2006
     24 H7          1.2165   13.9108  -44.1676 H         1 PW1         0.2006
     25 H8          9.2828   13.6384  -39.0777 H         1 PW1         0.0590
     26 H9          8.1553   14.6546  -41.0162 H         1 PW1         0.0551
     27 H10         4.4470   14.5882  -38.8872 H         1 PW1         0.0551
     28 H11         5.5837   13.5721  -36.9532 H         1 PW1         0.0590
     29 H12         7.9963   13.0972  -37.0482 H         1 PW1         0.0527
@<TRIPOS>BOND
     1    2    1 ar 
     2    7    1 ar 
     3    3    2 ar 
     4    3    4 1  
     5    5    3 ar 
     6    5    6 ar 
     7   14    5 1  
     8    6    7 ar 
     9    6   16 1  
    10    7    8 1  
    11    8    9 1  
    12   11   10 ar 
    13   10   17 ar 
    14   12   11 ar 
    15   12   13 ar 
    16   12   14 1  
    17   13   15 ar 
    18   15   17 ar 
    19    1   18 1  
    20    2   19 1  
    21    8   20 1  
    22    8   21 1  
    23    9   22 1  
    24    9   23 1  
    25    9   24 1  
    26   10   25 1  
    27   11   26 1  
    28   13   27 1  
    29   15   28 1  
    30   17   29 1  
@<TRIPOS>SUBSTRUCTURE
     1 PW1         1

