### 
### Created by X-TOOL on Mon Sep 10 21:13:14 2018
### 

@<TRIPOS>MOLECULE
4b77_ligand
   47    50     1     0     0
SMALL
GAST_HUCK


@<TRIPOS>ATOM
      1 C15         5.5780    6.8520  -25.8940 C.3       1 54M         0.0670
      2 O14         6.6450    6.2270  -25.1580 O.3       1 54M        -0.3010
      3 C2          6.3390    5.3480  -24.1550 C.ar      1 54M         0.1216
      4 C3          7.3460    5.0280  -23.2550 C.ar      1 54M        -0.0055
      5 C4          7.0800    4.1670  -22.1920 C.ar      1 54M        -0.0517
      6 C1          5.0520    4.7760  -24.0290 C.ar      1 54M        -0.0055
      7 C6          4.8000    3.8810  -22.9860 C.ar      1 54M        -0.0517
      8 C5          5.8020    3.5980  -22.0490 C.ar      1 54M        -0.0364
      9 C7          5.5010    2.6590  -20.8840 C.3       1 54M         0.0948
     10 C19         6.4280    3.0100  -19.6600 C.3       1 54M        -0.0432
     11 C17         4.0570    3.2780  -19.1430 C.cat     1 54M         0.1923
     12 N16         4.1270    2.9240  -20.3920 N.pl3     1 54M        -0.3129
     13 N20         2.8860    3.5640  -18.4600 N.pl3     1 54M        -0.2771
     14 C8          5.7440    1.2110  -21.2310 C.ar      1 54M        -0.0299
     15 C13         5.2280    0.2150  -20.4040 C.ar      1 54M        -0.0381
     16 C9          6.5310    0.8410  -22.3260 C.ar      1 54M        -0.0476
     17 C10         6.7480   -0.5180  -22.6040 C.ar      1 54M        -0.0392
     18 C11         6.2320   -1.5130  -21.7850 C.ar      1 54M        -0.0313
     19 C12         5.4360   -1.1330  -20.6940 C.ar      1 54M         0.0153
     20 C21         4.8700   -2.1490  -19.7350 C.ar      1 54M         0.0394
     21 C14         5.4460    3.3210  -18.5090 C.3       1 54M         0.0101
     22 C26         3.5460   -2.0900  -19.2550 C.ar      1 54M         0.0371
     23 N21         3.1620   -3.0270  -18.3680 N.ar      1 54M        -0.2623
     24 C24         3.9720   -3.9790  -17.9470 C.ar      1 54M         0.0896
     25 N23         5.2330   -4.0730  -18.3740 N.ar      1 54M        -0.2623
     26 C22         5.7020   -3.1800  -19.2480 C.ar      1 54M         0.0371
     27 H1          6.0019    7.5227  -26.6559 H         1 54M         0.0593
     28 H2          4.9478    7.4326  -25.2043 H         1 54M         0.0593
     29 H3          4.9687    6.0786  -26.3845 H         1 54M         0.0593
     30 H4          8.3380    5.4472  -23.3788 H         1 54M         0.0630
     31 H5          7.8590    3.9356  -21.4746 H         1 54M         0.0774
     32 H6          4.2688    5.0293  -24.7344 H         1 54M         0.0630
     33 H7          3.8293    3.4058  -22.9020 H         1 54M         0.0774
     34 H8          7.0538    3.8862  -19.8847 H         1 54M         0.0151
     35 H9          7.0716    2.1561  -19.4021 H         1 54M         0.0151
     36 H10         3.2946    2.8347  -20.9921 H         1 54M         0.3039
     37 H11         2.9223    3.8377  -17.4677 H         1 54M         0.3177
     38 H12         1.9791    3.5029  -18.9445 H         1 54M         0.3177
     39 H13         4.6579    0.4916  -19.5245 H         1 54M         0.0801
     40 H14         6.9727    1.6020  -22.9591 H         1 54M         0.0790
     41 H15         7.3299   -0.7957  -23.4754 H         1 54M         0.0678
     42 H16         6.4391   -2.5583  -21.9836 H         1 54M         0.0806
     43 H17         5.6474    4.3176  -18.0891 H         1 54M         0.0270
     44 H18         5.5308    2.5646  -17.7149 H         1 54M         0.0270
     45 H19         2.8618   -1.3180  -19.5881 H         1 54M         0.0944
     46 H20         3.6027   -4.7064  -17.2332 H         1 54M         0.1122
     47 H21         6.7296   -3.2470  -19.5864 H         1 54M         0.0944
@<TRIPOS>BOND
     1    1    2 1  
     2    2    3 1  
     3    3    4 ar 
     4    3    6 ar 
     5    4    5 ar 
     6    5    8 ar 
     7    6    7 ar 
     8    7    8 ar 
     9    8    9 1  
    10    9   10 1  
    11    9   12 1  
    12    9   14 1  
    13   10   21 1  
    14   12   11 ar 
    15   11   13 ar 
    16   11   21 1  
    17   14   15 ar 
    18   14   16 ar 
    19   15   19 ar 
    20   16   17 ar 
    21   17   18 ar 
    22   18   19 ar 
    23   19   20 1  
    24   20   22 ar 
    25   20   26 ar 
    26   22   23 ar 
    27   23   24 ar 
    28   24   25 ar 
    29   25   26 ar 
    30    1   27 1  
    31    1   28 1  
    32    1   29 1  
    33    4   30 1  
    34    5   31 1  
    35    6   32 1  
    36    7   33 1  
    37   10   34 1  
    38   10   35 1  
    39   12   36 1  
    40   13   37 1  
    41   13   38 1  
    42   15   39 1  
    43   16   40 1  
    44   17   41 1  
    45   18   42 1  
    46   21   43 1  
    47   21   44 1  
    48   22   45 1  
    49   24   46 1  
    50   26   47 1  
@<TRIPOS>SUBSTRUCTURE
     1 54M         1

