### 
### Created by X-TOOL on Mon Sep 10 21:13:15 2018
### 

@<TRIPOS>MOLECULE
4b78_ligand
   52    55     1     0     0
SMALL
GAST_HUCK


@<TRIPOS>ATOM
      1 C1          5.7780    6.0540  -25.2560 C.3       1 KGG         0.0670
      2 O2          6.9100    5.4230  -24.6540 O.3       1 KGG        -0.3010
      3 C3          6.5490    4.5460  -23.6390 C.ar      1 KGG         0.1216
      4 C4          5.2740    4.0530  -23.4720 C.ar      1 KGG        -0.0055
      5 C5          5.0370    3.1930  -22.4100 C.ar      1 KGG        -0.0517
      6 C6          6.0240    2.8120  -21.5160 C.ar      1 KGG        -0.0363
      7 C7          7.2920    3.3280  -21.7370 C.ar      1 KGG        -0.0517
      8 C8          7.5650    4.1850  -22.7740 C.ar      1 KGG        -0.0055
      9 C9          5.6960    1.8680  -20.3770 C.3       1 KGG         0.0971
     10 C10         6.5920    2.2390  -19.1690 C.3       1 KGG        -0.0166
     11 C11         5.6470    2.3550  -17.9750 C.3       1 KGG         0.1215
     12 C12         4.3370    2.5000  -18.6790 C.cat     1 KGG         0.2214
     13 N13         4.3240    2.1860  -19.9340 N.pl3     1 KGG        -0.3107
     14 N14         3.2030    2.8740  -18.0180 N.pl3     1 KGG        -0.2750
     15 O15         5.7790    3.4660  -17.1110 O.3       1 KGG        -0.3785
     16 C16         6.9640    3.3370  -16.3300 C.3       1 KGG         0.0364
     17 C17         5.9110    0.4020  -20.6880 C.ar      1 KGG        -0.0303
     18 C18         6.6830   -0.0040  -21.7640 C.ar      1 KGG        -0.0479
     19 C19         6.8900   -1.3440  -22.0350 C.ar      1 KGG        -0.0396
     20 C20         6.3510   -2.3090  -21.2070 C.ar      1 KGG        -0.0323
     21 C21         5.5760   -1.9470  -20.1190 C.ar      1 KGG         0.0099
     22 C22         5.3710   -0.5910  -19.8900 C.ar      1 KGG        -0.0391
     23 C23         5.0500   -2.9510  -19.1850 C.ar      1 KGG         0.0145
     24 C24         5.8470   -4.0070  -18.7570 C.ar      1 KGG        -0.0346
     25 C25         5.4160   -4.9090  -17.8050 C.ar      1 KGG        -0.0338
     26 C26         4.1420   -4.7430  -17.3130 C.ar      1 KGG         0.0108
     27 N27         3.3080   -3.7700  -17.7090 N.ar      1 KGG        -0.2963
     28 C28         3.7860   -2.9010  -18.6230 C.ar      1 KGG         0.0191
     29 H1          6.1173    6.7354  -26.0501 H         1 KGG         0.0593
     30 H2          5.2277    6.6247  -24.4935 H         1 KGG         0.0593
     31 H3          5.1176    5.2876  -25.6879 H         1 KGG         0.0593
     32 H4          4.4769    4.3297  -24.1525 H         1 KGG         0.0630
     33 H5          4.0353    2.8018  -22.2736 H         1 KGG         0.0774
     34 H6          8.0959    3.0446  -21.0673 H         1 KGG         0.0774
     35 H7          8.5669    4.5746  -22.9131 H         1 KGG         0.0630
     36 H8          7.1018    3.1969  -19.3493 H         1 KGG         0.0176
     37 H9          7.3406    1.4530  -18.9908 H         1 KGG         0.0176
     38 H10         5.6957    1.4362  -17.3721 H         1 KGG         0.0601
     39 H11         3.4857    2.1616  -20.5319 H         1 KGG         0.3040
     40 H12         2.3144    2.9655  -18.5308 H         1 KGG         0.3178
     41 H13         3.2358    3.0648  -17.0064 H         1 KGG         0.3178
     42 H14         7.0586    4.2051  -15.6611 H         1 KGG         0.0523
     43 H15         7.8385    3.2900  -16.9956 H         1 KGG         0.0523
     44 H16         6.9096    2.4164  -15.7304 H         1 KGG         0.0523
     45 H17         7.1339    0.7437  -22.4064 H         1 KGG         0.0787
     46 H18         7.4761   -1.6374  -22.8984 H         1 KGG         0.0677
     47 H19         6.5363   -3.3574  -21.4107 H         1 KGG         0.0802
     48 H20         4.7584   -0.2975  -19.0452 H         1 KGG         0.0796
     49 H21         6.8364   -4.1255  -19.1837 H         1 KGG         0.0741
     50 H22         6.0544   -5.7141  -17.4597 H         1 KGG         0.0709
     51 H23         3.7913   -5.4400  -16.5605 H         1 KGG         0.0820
     52 H24         3.1287   -2.1005  -18.9426 H         1 KGG         0.0831
@<TRIPOS>BOND
     1    1    2 1  
     2    2    3 1  
     3    3    4 ar 
     4    3    8 ar 
     5    4    5 ar 
     6    5    6 ar 
     7    6    7 ar 
     8    6    9 1  
     9    7    8 ar 
    10    9   10 1  
    11    9   13 1  
    12    9   17 1  
    13   10   11 1  
    14   11   12 1  
    15   11   15 1  
    16   12   13 ar 
    17   12   14 ar 
    18   15   16 1  
    19   17   18 ar 
    20   17   22 ar 
    21   18   19 ar 
    22   19   20 ar 
    23   20   21 ar 
    24   21   22 ar 
    25   21   23 1  
    26   23   24 ar 
    27   23   28 ar 
    28   24   25 ar 
    29   25   26 ar 
    30   26   27 ar 
    31   27   28 ar 
    32    1   29 1  
    33    1   30 1  
    34    1   31 1  
    35    4   32 1  
    36    5   33 1  
    37    7   34 1  
    38    8   35 1  
    39   10   36 1  
    40   10   37 1  
    41   11   38 1  
    42   13   39 1  
    43   14   40 1  
    44   14   41 1  
    45   16   42 1  
    46   16   43 1  
    47   16   44 1  
    48   18   45 1  
    49   19   46 1  
    50   20   47 1  
    51   22   48 1  
    52   24   49 1  
    53   25   50 1  
    54   26   51 1  
    55   28   52 1  
@<TRIPOS>SUBSTRUCTURE
     1 KGG         1

