### 
### Created by X-TOOL on Mon Sep 10 21:13:10 2018
### 

@<TRIPOS>MOLECULE
4b7j_ligand
   46    46     1     0     0
SMALL
GAST_HUCK


@<TRIPOS>ATOM
      1 C1         28.9340   -5.5650   11.8320 C.2       1 G39         0.0381
      2 O1A        29.7840   -4.6730   11.6030 O.co2     1 G39        -0.5687
      3 O1B        27.7010   -5.2850   11.7910 O.co2     1 G39        -0.5687
      4 C2         29.3720   -6.9820   12.1710 C.3       1 G39         0.0194
      5 C3         30.7800   -6.9540   12.6950 C.3       1 G39         0.0069
      6 C4         31.0620   -7.8390   13.8680 C.3       1 G39         0.0033
      7 C5         30.1770   -9.0360   13.8980 C.3       1 G39         0.1105
      8 N5         30.5290   -9.8660   15.0460 N.am      1 G39        -0.2762
      9 C10        30.9970  -11.2220   14.8760 C.2       1 G39         0.1734
     10 O10        31.1110  -11.6980   13.7610 O.2       1 G39        -0.3974
     11 C11        31.3450  -12.0410   16.0930 C.3       1 G39         0.0257
     12 C6         28.7450   -8.6330   14.0390 C.3       1 G39         0.0888
     13 C7         28.3260   -7.5590   13.0850 C.3       1 G39        -0.0096
     14 O7         27.9120   -9.7560   13.8850 O.3       1 G39        -0.3708
     15 C8         27.1360  -10.2160   14.9680 C.3       1 G39         0.0587
     16 C9         26.1610   -9.1810   15.5290 C.3       1 G39        -0.0294
     17 C81        26.5080  -11.5760   14.7160 C.3       1 G39        -0.0294
     18 C82        27.4420  -12.7560   14.6270 C.3       1 G39        -0.0629
     19 C91        25.0590   -8.6950   14.6300 C.3       1 G39        -0.0629
     20 N4         32.4550   -8.2690   13.8310 N.4       1 G39         0.2225
     21 H1         29.3797   -7.5857   11.2515 H         1 G39         0.0469
     22 H2         31.0080   -5.9196   12.9916 H         1 G39         0.0341
     23 H3         31.4496   -7.2569   11.8765 H         1 G39         0.0341
     24 H4         30.8922   -7.2593   14.7873 H         1 G39         0.0875
     25 H5         30.3083   -9.6090   12.9683 H         1 G39         0.0638
     26 H6         30.4445   -9.4885   15.9682 H         1 G39         0.1857
     27 H7         31.6805  -13.0403   15.7787 H         1 G39         0.0467
     28 H8         30.4578  -12.1376   16.7360 H         1 G39         0.0467
     29 H9         32.1506  -11.5428   16.6522 H         1 G39         0.0467
     30 H10        28.6109   -8.2415   15.0582 H         1 G39         0.0622
     31 H11        27.5308   -7.9768   12.4502 H         1 G39         0.0311
     32 H12        27.9201   -6.7298   13.6831 H         1 G39         0.0311
     33 H13        27.8592  -10.3850   15.7794 H         1 G39         0.0596
     34 H14        26.7516   -8.3025   15.8279 H         1 G39         0.0287
     35 H15        25.6877   -9.6243   16.4175 H         1 G39         0.0287
     36 H16        25.9576  -11.5162   13.7655 H         1 G39         0.0287
     37 H17        25.8024  -11.7727   15.5366 H         1 G39         0.0287
     38 H18        26.8600  -13.6712   14.4434 H         1 G39         0.0231
     39 H19        27.9961  -12.8572   15.5718 H         1 G39         0.0231
     40 H20        28.1513  -12.6007   13.8007 H         1 G39         0.0231
     41 H21        24.4438   -7.9594   15.1689 H         1 G39         0.0231
     42 H22        24.4314   -9.5458   14.3264 H         1 G39         0.0231
     43 H23        25.4953   -8.2240   13.7368 H         1 G39         0.0231
     44 H24        33.0559   -7.4600   13.8106 H         1 G39         0.1998
     45 H25        32.6130   -8.8257   13.0057 H         1 G39         0.1998
     46 H26        32.6590   -8.8184   14.6511 H         1 G39         0.1998
@<TRIPOS>BOND
     1    1    2 ar 
     2    1    3 ar 
     3    1    4 1  
     4    4    5 1  
     5    4   13 1  
     6    5    6 1  
     7    6    7 1  
     8    6   20 1  
     9    7    8 1  
    10    7   12 1  
    11    8    9 am 
    12    9   10 2  
    13    9   11 1  
    14   12   13 1  
    15   12   14 1  
    16   14   15 1  
    17   15   16 1  
    18   15   17 1  
    19   16   19 1  
    20   17   18 1  
    21    4   21 1  
    22    5   22 1  
    23    5   23 1  
    24    6   24 1  
    25    7   25 1  
    26    8   26 1  
    27   11   27 1  
    28   11   28 1  
    29   11   29 1  
    30   12   30 1  
    31   13   31 1  
    32   13   32 1  
    33   15   33 1  
    34   16   34 1  
    35   16   35 1  
    36   17   36 1  
    37   17   37 1  
    38   18   38 1  
    39   18   39 1  
    40   18   40 1  
    41   19   41 1  
    42   19   42 1  
    43   19   43 1  
    44   20   44 1  
    45   20   45 1  
    46   20   46 1  
@<TRIPOS>SUBSTRUCTURE
     1 G39         1

