### 
### Created by X-TOOL on Mon Sep 10 21:13:09 2018
### 

@<TRIPOS>MOLECULE
4b7n_ligand
   43    43     1     0     0
SMALL
GAST_HUCK


@<TRIPOS>ATOM
      1 C1         29.0600   -5.5790   12.0760 C.2       1 ZMR         0.0810
      2 O1A        29.9370   -4.7960   11.6480 O.co2     1 ZMR        -0.5623
      3 O1B        27.8400   -5.3200   11.9730 O.co2     1 ZMR        -0.5623
      4 C2         29.4410   -6.8380   12.7170 C.2       1 ZMR         0.1099
      5 C3         30.7140   -7.1040   13.0790 C.2       1 ZMR        -0.0168
      6 C4         31.0100   -8.1110   14.1760 C.3       1 ZMR         0.1182
      7 C5         29.9420   -9.2110   14.1660 C.3       1 ZMR         0.1162
      8 N5         30.1120  -10.1330   15.2820 N.am      1 ZMR        -0.2758
      9 C10        30.5420  -11.3930   15.1360 C.2       1 ZMR         0.1735
     10 O10        30.7420  -11.9130   14.0490 O.2       1 ZMR        -0.3974
     11 C11        30.7690  -12.1540   16.4100 C.3       1 ZMR         0.0257
     12 C6         28.5490   -8.5730   14.1620 C.3       1 ZMR         0.1332
     13 O6         28.3900   -7.8170   12.9580 O.3       1 ZMR        -0.3188
     14 C7         27.4030   -9.5790   14.2360 C.3       1 ZMR         0.1155
     15 O7         27.4290  -10.4030   13.0630 O.3       1 ZMR        -0.3861
     16 C8         26.0500   -8.8670   14.3450 C.3       1 ZMR         0.1068
     17 O8         25.8900   -8.2910   15.6460 O.3       1 ZMR        -0.3869
     18 C9         24.8720   -9.8000   14.0870 C.3       1 ZMR         0.0727
     19 O9         24.9010  -10.8780   15.0300 O.3       1 ZMR        -0.3924
     20 NE         32.3000   -8.7680   13.9710 N.pl3     1 ZMR        -0.2592
     21 CZ         33.0960   -9.0750   14.9120 C.cat     1 ZMR         0.2902
     22 NH1        34.2510   -9.6720   14.6170 N.pl3     1 ZMR        -0.2847
     23 NH2        32.8010   -8.8210   16.1910 N.pl3     1 ZMR        -0.2847
     24 H          31.5362   -6.5915   12.5796 H         1 ZMR         0.0492
     25 H          31.0200   -7.5647   15.1191 H         1 ZMR         0.0872
     26 H          30.0553   -9.8027   13.2576 H         1 ZMR         0.0645
     27 H          29.8924   -9.8020   16.2215 H         1 ZMR         0.1858
     28 H          30.1249  -13.0332   16.4262 H         1 ZMR         0.0467
     29 H          31.8122  -12.4652   16.4649 H         1 ZMR         0.0467
     30 H          30.5341  -11.5142   17.2606 H         1 ZMR         0.0467
     31 H          28.4953   -7.9537   15.0573 H         1 ZMR         0.0697
     32 H          27.5306  -10.1936   15.1271 H         1 ZMR         0.0650
     33 H          27.3268   -9.8517   12.2837 H         1 ZMR         0.2100
     34 H          26.0519   -8.0929   13.5776 H         1 ZMR         0.0643
     35 H          25.9327   -8.9840   16.3090 H         1 ZMR         0.2100
     36 H          24.9404  -10.2003   13.0755 H         1 ZMR         0.0584
     37 H          23.9394   -9.2465   14.1966 H         1 ZMR         0.0584
     38 H          24.8408  -10.5244   15.9205 H         1 ZMR         0.2095
     39 H          32.5772   -8.9932   13.0156 H         1 ZMR         0.2667
     40 H          34.4859   -9.8766   13.6457 H         1 ZMR         0.2615
     41 H          34.8998   -9.9242   15.3626 H         1 ZMR         0.2615
     42 H          31.9182   -8.3699   16.4309 H         1 ZMR         0.2615
     43 H          33.4588   -9.0783   16.9269 H         1 ZMR         0.2615
@<TRIPOS>BOND
     1    1    2 ar 
     2    1    3 ar 
     3    1    4 1  
     4    4    5 2  
     5    4   13 1  
     6    5    6 1  
     7    6    7 1  
     8    6   20 1  
     9    7    8 1  
    10    7   12 1  
    11    8    9 am 
    12    9   10 2  
    13    9   11 1  
    14   12   13 1  
    15   12   14 1  
    16   14   15 1  
    17   14   16 1  
    18   16   17 1  
    19   16   18 1  
    20   18   19 1  
    21   20   21 ar 
    22   21   22 ar 
    23   21   23 ar 
    24    5   24 1  
    25    6   25 1  
    26    7   26 1  
    27    8   27 1  
    28   11   28 1  
    29   11   29 1  
    30   11   30 1  
    31   12   31 1  
    32   14   32 1  
    33   15   33 1  
    34   16   34 1  
    35   17   35 1  
    36   18   36 1  
    37   18   37 1  
    38   19   38 1  
    39   20   39 1  
    40   22   40 1  
    41   22   41 1  
    42   23   42 1  
    43   23   43 1  
@<TRIPOS>SUBSTRUCTURE
     1 ZMR         1

