### 
### Created by X-TOOL on Mon Sep 10 21:13:13 2018
### 

@<TRIPOS>MOLECULE
4b7p_ligand
   56    59     1     0     0
SMALL
GAST_HUCK


@<TRIPOS>ATOM
      1 C1          8.0570    3.8370   11.0510 C.ar      1 9UN         0.0706
      2 C2          6.8140    4.3370   11.4230 C.ar      1 9UN         0.2025
      3 C3          5.6930    3.5700   11.2410 C.ar      1 9UN         0.2471
      4 C4          5.7740    2.2760   10.7820 C.ar      1 9UN         0.2380
      5 C5          7.0190    1.7210   10.4560 C.ar      1 9UN         0.0740
      6 C6          8.1460    2.5290   10.5980 C.ar      1 9UN         0.1575
      7 O7          9.3400    2.0010   10.2550 O.3       1 9UN        -0.2829
      8 O8          6.7200    5.6280   11.8660 O.3       1 9UN        -0.2903
      9 O9          4.6440    1.5500   10.7180 O.3       1 9UN        -0.1969
     10 C10         4.4160    0.7230    9.6720 C.ar      1 9UN         0.1543
     11 C11         3.9370   -0.5330   10.0520 C.ar      1 9UN        -0.0080
     12 C12         3.6350   -1.4330    9.0450 C.ar      1 9UN        -0.0281
     13 C13         3.8850   -1.0890    7.7390 C.ar      1 9UN         0.0807
     14 C14         4.3590    0.1720    7.3520 C.ar      1 9UN        -0.0281
     15 C15         4.6480    1.1090    8.3460 C.ar      1 9UN        -0.0080
     16 N16         3.5420   -2.0660    6.8050 N.2       1 9UN        -0.2197
     17 O17         3.0180   -1.6620    5.7770 O.2       1 9UN        -0.4906
     18 O18         3.7250   -3.2570    7.0450 O.2       1 9UN        -0.4906
     19 C19         4.3910    4.1410   11.5940 C.2       1 9UN         0.3384
     20 O20         4.1630    4.8950   12.6700 O.3       1 9UN        -0.0181
     21 N21         2.7360    5.3060   12.6810 N.2       1 9UN         0.0508
     22 C22         2.2120    4.7350   11.6030 C.2       1 9UN         0.2783
     23 C23         3.1910    4.0400   10.8930 C.2       1 9UN         0.1401
     24 C24         0.7810    4.8470   11.2110 C.2       1 9UN         0.2511
     25 O25         0.4900    4.7250   10.0210 O.2       1 9UN        -0.3783
     26 N26        -0.0900    5.0500   12.2090 N.am      1 9UN        -0.2791
     27 C27        -1.5290    5.1510   11.9850 C.3       1 9UN         0.0514
     28 C28        -2.1550    5.7230   13.2900 C.3       1 9UN         0.0107
     29 C29        -3.6920    5.5720   13.1660 C.3       1 9UN        -0.0300
     30 N30        -4.0490    4.1420   13.0090 N.4       1 9UN         0.2332
     31 C31        -3.5290    3.6440   11.7360 C.3       1 9UN        -0.0300
     32 C32        -1.9970    3.7100   11.7650 C.3       1 9UN         0.0107
     33 C33        -5.5420    3.9600   13.0010 C.3       1 9UN        -0.0431
     34 H1          8.9423    4.4594   11.1140 H         1 9UN         0.0694
     35 H2          7.1026    0.6986   10.1055 H         1 9UN         0.0631
     36 H3         10.0227    2.6462   10.3965 H         1 9UN         0.2834
     37 H4          7.5904    6.0029   11.9327 H         1 9UN         0.2705
     38 H5          3.8068   -0.7929   11.0963 H         1 9UN         0.0626
     39 H6          3.2057   -2.3992    9.2844 H         1 9UN         0.0684
     40 H7          4.4981    0.4143    6.3046 H         1 9UN         0.0684
     41 H8          5.0349    2.0918    8.1021 H         1 9UN         0.0626
     42 H9          3.0431    3.5100    9.9532 H         1 9UN         0.1455
     43 H10         0.2589    5.1355   13.1423 H         1 9UN         0.1851
     44 H11        -1.7688    5.7877   11.1206 H         1 9UN         0.0559
     45 H12        -1.8886    6.7843   13.4020 H         1 9UN         0.0339
     46 H13        -1.7902    5.1594   14.1614 H         1 9UN         0.0339
     47 H14        -4.0438    6.1339   12.2882 H         1 9UN         0.0815
     48 H15        -4.1716    5.9699   14.0724 H         1 9UN         0.0815
     49 H16        -3.6497    3.6154   13.7701 H         1 9UN         0.2030
     50 H17        -3.9098    4.2663   10.9128 H         1 9UN         0.0815
     51 H18        -3.8509    2.6027   11.5877 H         1 9UN         0.0815
     52 H19        -1.6225    3.0782   12.5839 H         1 9UN         0.0339
     53 H20        -1.6002    3.3423   10.8072 H         1 9UN         0.0339
     54 H21        -5.9612    4.3272   13.9494 H         1 9UN         0.0777
     55 H22        -5.7807    2.8927   12.8835 H         1 9UN         0.0777
     56 H23        -5.9761    4.5271   12.1643 H         1 9UN         0.0777
@<TRIPOS>BOND
     1    1    2 ar 
     2    1    6 ar 
     3    2    3 ar 
     4    2    8 1  
     5    3    4 ar 
     6    3   19 1  
     7    4    5 ar 
     8    4    9 1  
     9    5    6 ar 
    10    6    7 1  
    11    9   10 1  
    12   10   11 ar 
    13   10   15 ar 
    14   11   12 ar 
    15   12   13 ar 
    16   13   14 ar 
    17   13   16 1  
    18   14   15 ar 
    19   16   17 2  
    20   16   18 2  
    21   19   20 1  
    22   19   23 2  
    23   20   21 1  
    24   21   22 2  
    25   22   23 1  
    26   22   24 1  
    27   24   25 2  
    28   24   26 am 
    29   26   27 1  
    30   27   28 1  
    31   27   32 1  
    32   28   29 1  
    33   29   30 1  
    34   30   31 1  
    35   30   33 1  
    36   31   32 1  
    37    1   34 1  
    38    5   35 1  
    39    7   36 1  
    40    8   37 1  
    41   11   38 1  
    42   12   39 1  
    43   14   40 1  
    44   15   41 1  
    45   23   42 1  
    46   26   43 1  
    47   27   44 1  
    48   28   45 1  
    49   28   46 1  
    50   29   47 1  
    51   29   48 1  
    52   30   49 1  
    53   31   50 1  
    54   31   51 1  
    55   32   52 1  
    56   32   53 1  
    57   33   54 1  
    58   33   55 1  
    59   33   56 1  
@<TRIPOS>SUBSTRUCTURE
     1 9UN         1

