### 
### Created by X-TOOL on Mon Sep 10 21:13:09 2018
### 

@<TRIPOS>MOLECULE
4b7q_ligand
   45    45     1     0     0
SMALL
GAST_HUCK


@<TRIPOS>ATOM
      1 C1         26.7390   20.1080  -39.9700 C.2       1 ZMR         0.0637
      2 O1A        27.1130   18.9470  -39.6960 O.co2     1 ZMR        -0.5663
      3 O1B        27.5990   21.0150  -40.1590 O.co2     1 ZMR        -0.5663
      4 C2         25.4070   20.4050  -40.0410 C.3       1 ZMR         0.1148
      5 C3         24.5170   19.2330  -40.5010 C.3       1 ZMR         0.0237
      6 C4         23.1250   19.6520  -40.6420 C.3       1 ZMR         0.1026
      7 C5         22.9510   20.7200  -41.5440 C.3       1 ZMR         0.1065
      8 N5         21.4620   21.1630  -41.5760 N.am      1 ZMR        -0.2778
      9 C10        20.5540   20.8030  -42.6440 C.2       1 ZMR         0.1733
     10 O10        20.9310   20.1270  -43.5770 O.2       1 ZMR        -0.3974
     11 C11        19.1130   21.2540  -42.5970 C.3       1 ZMR         0.0257
     12 C6         23.7770   21.8730  -41.2230 C.3       1 ZMR         0.1158
     13 O6         25.1610   21.5280  -40.9960 O.3       1 ZMR        -0.3542
     14 C7         23.7100   22.8880  -42.3640 C.3       1 ZMR         0.1116
     15 O7         24.3250   22.3900  -43.5130 O.3       1 ZMR        -0.3865
     16 C8         24.3450   24.2000  -41.9750 C.3       1 ZMR         0.1065
     17 O8         23.6070   24.7980  -40.9790 O.3       1 ZMR        -0.3869
     18 C9         24.4450   25.1510  -43.1350 C.3       1 ZMR         0.0727
     19 O9         23.2640   25.6690  -43.6700 O.3       1 ZMR        -0.3924
     20 NE         22.3190   18.4110  -41.0960 N.pl3     1 ZMR        -0.2671
     21 CZ         20.9500   18.1190  -40.6420 C.cat     1 ZMR         0.2885
     22 NH1        20.2820   17.1520  -41.2420 N.pl3     1 ZMR        -0.2849
     23 NH2        20.3790   18.8410  -39.7000 N.pl3     1 ZMR        -0.2849
     24 H          25.1378   20.6663  -39.0176 H         1 ZMR         0.0767
     25 H          24.5686   18.4420  -39.7529 H         1 ZMR         0.0346
     26 H          24.8751   18.8828  -41.4691 H         1 ZMR         0.0346
     27 H          22.7712   20.0306  -39.6831 H         1 ZMR         0.0752
     28 H          23.2610   20.3483  -42.5207 H         1 ZMR         0.0621
     29 H          21.1080   21.7341  -40.8086 H         1 ZMR         0.1856
     30 H          18.8938   21.8580  -43.4774 H         1 ZMR         0.0467
     31 H          18.4607   20.3809  -42.5822 H         1 ZMR         0.0467
     32 H          18.9485   21.8474  -41.6976 H         1 ZMR         0.0467
     33 H          23.3815   22.2929  -40.2981 H         1 ZMR         0.0649
     34 H          22.6551   23.0642  -42.5745 H         1 ZMR         0.0647
     35 H          25.2466   22.1988  -43.3240 H         1 ZMR         0.2100
     36 H          25.3540   23.9764  -41.6285 H         1 ZMR         0.0643
     37 H          24.0159   25.6319  -40.7360 H         1 ZMR         0.2100
     38 H          24.8956   24.5728  -43.9416 H         1 ZMR         0.0584
     39 H          24.9889   26.0144  -42.7517 H         1 ZMR         0.0584
     40 H          22.7929   26.1565  -42.9903 H         1 ZMR         0.2095
     41 H          22.7608   17.7601  -41.7453 H         1 ZMR         0.2645
     42 H          20.7162   16.6272  -42.0012 H         1 ZMR         0.2615
     43 H          19.3314   16.9294  -40.9466 H         1 ZMR         0.2615
     44 H          20.8865   19.6162  -39.2734 H         1 ZMR         0.2615
     45 H          19.4293   18.6250  -39.3970 H         1 ZMR         0.2615
@<TRIPOS>BOND
     1    1    2 ar 
     2    1    3 ar 
     3    1    4 1  
     4    4    5 1  
     5    4   13 1  
     6    5    6 1  
     7    6    7 1  
     8    6   20 1  
     9    7    8 1  
    10    7   12 1  
    11    8    9 am 
    12    9   10 2  
    13    9   11 1  
    14   12   13 1  
    15   12   14 1  
    16   14   15 1  
    17   14   16 1  
    18   16   17 1  
    19   16   18 1  
    20   18   19 1  
    21   20   21 ar 
    22   21   22 ar 
    23   21   23 ar 
    24    4   24 1  
    25    5   25 1  
    26    5   26 1  
    27    6   27 1  
    28    7   28 1  
    29    8   29 1  
    30   11   30 1  
    31   11   31 1  
    32   11   32 1  
    33   12   33 1  
    34   14   34 1  
    35   15   35 1  
    36   16   36 1  
    37   17   37 1  
    38   18   38 1  
    39   18   39 1  
    40   19   40 1  
    41   20   41 1  
    42   22   42 1  
    43   22   43 1  
    44   23   44 1  
    45   23   45 1  
@<TRIPOS>SUBSTRUCTURE
     1 ZMR         1

