### 
### Created by X-TOOL on Mon Sep 10 21:13:08 2018
### 

@<TRIPOS>MOLECULE
4b7r_ligand
   46    46     1     0     0
SMALL
GAST_HUCK


@<TRIPOS>ATOM
      1 C1         27.0270   20.3980  -40.1150 C.2       1 G39         0.0381
      2 O1A        27.5070   19.3260  -39.6700 O.co2     1 G39        -0.5687
      3 O1B        27.7320   21.4370  -40.1840 O.co2     1 G39        -0.5687
      4 C2         25.5640   20.5020  -40.5190 C.3       1 G39         0.0194
      5 C3         24.8320   19.1930  -40.7580 C.3       1 G39         0.0069
      6 C4         23.3380   19.5090  -40.7110 C.3       1 G39         0.0033
      7 C5         22.9970   20.5060  -41.8100 C.3       1 G39         0.1105
      8 N5         21.5730   20.8630  -41.7760 N.am      1 G39        -0.2762
      9 C10        20.6540   20.4060  -42.7900 C.2       1 G39         0.1734
     10 O10        21.0420   19.7080  -43.7070 O.2       1 G39        -0.3974
     11 C11        19.1970   20.8140  -42.6960 C.3       1 G39         0.0257
     12 C6         23.8240   21.7860  -41.7060 C.3       1 G39         0.0888
     13 C7         25.3280   21.5740  -41.5380 C.3       1 G39        -0.0096
     14 O7         23.6060   22.6250  -42.7950 O.3       1 G39        -0.3708
     15 C8         22.8620   23.8000  -42.5890 C.3       1 G39         0.0587
     16 C9         22.4630   24.4490  -43.9160 C.3       1 G39        -0.0294
     17 C81        23.4020   24.7720  -41.5140 C.3       1 G39        -0.0294
     18 C82        24.7280   25.4780  -41.8200 C.3       1 G39        -0.0629
     19 C91        21.8290   23.5090  -44.9240 C.3       1 G39        -0.0629
     20 N4         22.5170   18.3160  -40.7060 N.4       1 G39         0.2225
     21 H1         25.0758   20.8930  -39.6142 H         1 G39         0.0469
     22 H2         25.0902   18.4659  -39.9741 H         1 G39         0.0341
     23 H3         25.1016   18.7824  -41.7422 H         1 G39         0.0341
     24 H4         23.1449   20.0156  -39.7539 H         1 G39         0.0875
     25 H5         23.2159   20.0301  -42.7772 H         1 G39         0.0638
     26 H6         21.2318   21.4370  -41.0316 H         1 G39         0.1857
     27 H7         18.6404   20.3833  -43.5414 H         1 G39         0.0467
     28 H8         19.1206   21.9109  -42.7275 H         1 G39         0.0467
     29 H9         18.7728   20.4438  -41.7510 H         1 G39         0.0467
     30 H10        23.4723   22.3108  -40.8056 H         1 G39         0.0622
     31 H11        25.7663   21.2700  -42.5000 H         1 G39         0.0311
     32 H12        25.7961   22.5108  -41.2015 H         1 G39         0.0311
     33 H13        21.9123   23.4467  -42.1609 H         1 G39         0.0596
     34 H14        23.3675   24.8783  -44.3716 H         1 G39         0.0287
     35 H15        21.7441   25.2531  -43.7002 H         1 G39         0.0287
     36 H16        23.5377   24.1982  -40.5854 H         1 G39         0.0287
     37 H17        22.6402   25.5497  -41.3565 H         1 G39         0.0287
     38 H18        24.9958   26.1353  -40.9797 H         1 G39         0.0231
     39 H19        24.6210   26.0784  -42.7355 H         1 G39         0.0231
     40 H20        25.5186   24.7269  -41.9643 H         1 G39         0.0231
     41 H21        21.5794   24.0666  -45.8388 H         1 G39         0.0231
     42 H22        20.9123   23.0769  -44.4964 H         1 G39         0.0231
     43 H23        22.5356   22.7020  -45.1678 H         1 G39         0.0231
     44 H24        22.8062   17.7123  -39.9524 H         1 G39         0.1998
     45 H25        22.6225   17.8318  -41.5837 H         1 G39         0.1998
     46 H26        21.5509   18.5735  -40.5783 H         1 G39         0.1998
@<TRIPOS>BOND
     1    1    2 ar 
     2    1    3 ar 
     3    1    4 1  
     4    4    5 1  
     5    4   13 1  
     6    5    6 1  
     7    6    7 1  
     8    6   20 1  
     9    7    8 1  
    10    7   12 1  
    11    8    9 am 
    12    9   10 2  
    13    9   11 1  
    14   12   13 1  
    15   12   14 1  
    16   14   15 1  
    17   15   16 1  
    18   15   17 1  
    19   16   19 1  
    20   17   18 1  
    21    4   21 1  
    22    5   22 1  
    23    5   23 1  
    24    6   24 1  
    25    7   25 1  
    26    8   26 1  
    27   11   27 1  
    28   11   28 1  
    29   11   29 1  
    30   12   30 1  
    31   13   31 1  
    32   13   32 1  
    33   15   33 1  
    34   16   34 1  
    35   16   35 1  
    36   17   36 1  
    37   17   37 1  
    38   18   38 1  
    39   18   39 1  
    40   18   40 1  
    41   19   41 1  
    42   19   42 1  
    43   19   43 1  
    44   20   44 1  
    45   20   45 1  
    46   20   46 1  
@<TRIPOS>SUBSTRUCTURE
     1 G39         1

