### 
### Created by X-TOOL on Mon Sep 10 21:13:13 2018
### 

@<TRIPOS>MOLECULE
4b7z_ligand
   44    44     1     0     0
SMALL
GAST_HUCK


@<TRIPOS>ATOM
      1 S          28.7560   19.9680   11.8100 S.o2      1 Q4Q         0.0481
      2 N1         29.2730   20.5950   13.2810 N.am      1 Q4Q        -0.2451
      3 O1         27.3900   19.6390   11.9710 O.2       1 Q4Q        -0.1535
      4 C2         31.1550   21.5210    9.4480 C.ar      1 Q4Q        -0.0652
      5 N2         26.9300   19.6460   14.7850 N.4       1 Q4Q         0.2360
      6 O2         29.7000   18.9420   11.5130 O.2       1 Q4Q        -0.1535
      7 C3         30.1940   21.9580   10.3280 C.ar      1 Q4Q        -0.0271
      8 C4         28.8600   21.1910   10.5310 C.3       1 Q4Q         0.1149
      9 C6         26.5620   17.6550   16.3740 C.3       1 Q4Q        -0.0245
     10 C7         30.4340   23.1210   11.0610 C.ar      1 Q4Q        -0.0652
     11 C8         31.6490   23.8040   10.9050 C.ar      1 Q4Q        -0.0670
     12 C9         32.6130   23.3460   10.0240 C.ar      1 Q4Q        -0.0528
     13 C10        32.3660   22.1900    9.2830 C.ar      1 Q4Q        -0.0670
     14 C11        28.4700   21.6150   14.0280 C.3       1 Q4Q         0.0663
     15 C12        27.2950   21.1090   14.9190 C.3       1 Q4Q        -0.0147
     16 C08        33.9090   24.0990    9.8520 C.3       1 Q4Q        -0.0343
     17 C13        25.4340   19.5160   14.5890 C.3       1 Q4Q        -0.0348
     18 C14        24.7350   20.7180   13.9620 C.3       1 Q4Q        -0.0245
     19 C17        27.2230   18.9960   16.1290 C.3       1 Q4Q        -0.0348
     20 H1         30.1393   20.2788   13.6676 H         1 Q4Q         0.1672
     21 H2         30.9648   20.6278    8.8640 H         1 Q4Q         0.0540
     22 H3         27.4406   19.2090   14.0338 H         1 Q4Q         0.2034
     23 H4         28.0849   21.9429   10.7406 H         1 Q4Q         0.0669
     24 H5         28.6322   20.6843    9.5816 H         1 Q4Q         0.0669
     25 H6         26.8439   17.2839   17.3704 H         1 Q4Q         0.0281
     26 H7         26.8929   16.9378   15.6085 H         1 Q4Q         0.0281
     27 H8         25.4693   17.7697   16.3212 H         1 Q4Q         0.0281
     28 H9         29.6840   23.4952   11.7485 H         1 Q4Q         0.0540
     29 H10        31.8354   24.7025   11.4821 H         1 Q4Q         0.0540
     30 H11        33.1080   21.8164    8.5866 H         1 Q4Q         0.0540
     31 H12        28.0438   22.3048   13.2847 H         1 Q4Q         0.0528
     32 H13        29.1640   22.1635   14.6818 H         1 Q4Q         0.0528
     33 H14        27.5688   21.2908   15.9687 H         1 Q4Q         0.0830
     34 H15        26.4034   21.7010   14.6648 H         1 Q4Q         0.0830
     35 H16        33.9153   24.9747   10.5176 H         1 Q4Q         0.0378
     36 H17        34.0041   24.4315    8.8078 H         1 Q4Q         0.0378
     37 H18        34.7524   23.4399   10.1053 H         1 Q4Q         0.0378
     38 H19        24.9795   19.3389   15.5749 H         1 Q4Q         0.0812
     39 H20        25.2538   18.6459   13.9405 H         1 Q4Q         0.0812
     40 H21        23.6589   20.5094   13.8698 H         1 Q4Q         0.0281
     41 H22        25.1581   20.9092   12.9648 H         1 Q4Q         0.0281
     42 H23        24.8838   21.6022   14.5992 H         1 Q4Q         0.0281
     43 H24        26.8876   19.6860   16.9173 H         1 Q4Q         0.0812
     44 H25        28.3112   18.8541   16.2046 H         1 Q4Q         0.0812
@<TRIPOS>BOND
     1    2    1 am 
     2    1    3 2  
     3    1    6 2  
     4    1    8 1  
     5   14    2 1  
     6    7    4 ar 
     7    4   13 ar 
     8   15    5 1  
     9    5   17 1  
    10    5   19 1  
    11    8    7 1  
    12    7   10 ar 
    13   19    9 1  
    14   10   11 ar 
    15   11   12 ar 
    16   13   12 ar 
    17   12   16 1  
    18   14   15 1  
    19   17   18 1  
    20    2   20 1  
    21    4   21 1  
    22    5   22 1  
    23    8   23 1  
    24    8   24 1  
    25    9   25 1  
    26    9   26 1  
    27    9   27 1  
    28   10   28 1  
    29   11   29 1  
    30   13   30 1  
    31   14   31 1  
    32   14   32 1  
    33   15   33 1  
    34   15   34 1  
    35   16   35 1  
    36   16   36 1  
    37   16   37 1  
    38   17   38 1  
    39   17   39 1  
    40   18   40 1  
    41   18   41 1  
    42   18   42 1  
    43   19   43 1  
    44   19   44 1  
@<TRIPOS>SUBSTRUCTURE
     1 Q4Q         1

