### 
### Created by X-TOOL on Mon Sep 10 21:13:14 2018
### 

@<TRIPOS>MOLECULE
4b80_ligand
   41    41     1     0     0
SMALL
GAST_HUCK


@<TRIPOS>ATOM
      1 S          29.4310   20.0060   11.3530 S.o2      1 A36         0.0485
      2 N1         29.4260   21.0740   12.6600 N.am      1 A36        -0.2450
      3 O1         30.5720   19.1820   11.4800 O.2       1 A36        -0.1534
      4 C2         31.9770   21.4030    9.0150 C.ar      1 A36        -0.0604
      5 N2         26.8710   19.5040   14.0560 N.4       1 A36         0.2360
      6 O2         28.1370   19.4240   11.3500 O.2       1 A36        -0.1534
      7 C3         30.8930   21.7880    9.8430 C.ar      1 A36        -0.0242
      8 C4         29.5960   20.9910    9.8790 C.3       1 A36         0.1161
      9 C6         26.9850   18.1820   16.2020 C.3       1 A36        -0.0245
     10 C7         31.0540   22.9390   10.6550 C.ar      1 A36        -0.0604
     11 C8         32.2300   23.6810   10.6490 C.ar      1 A36        -0.0349
     12 C9         33.2660   23.2640    9.8190 C.ar      1 A36         0.1248
     13 C10        33.1700   22.1330    8.9910 C.ar      1 A36        -0.0349
     14 C11        29.1540   20.5150   13.9980 C.3       1 A36         0.0663
     15 C12        27.7230   20.6830   14.5570 C.3       1 A36        -0.0147
     16 C13        25.4100   19.7460   14.2540 C.3       1 A36        -0.0348
     17 C15        27.2590   18.1840   14.6810 C.3       1 A36        -0.0348
     18 C14        24.9990   20.9560   13.4660 C.3       1 A36        -0.0245
     19 F01        34.4270   23.9950    9.8130 F         1 A36        -0.1893
     20 H1         29.6010   22.0502   12.5321 H         1 A36         0.1672
     21 H2         31.8795   20.5246    8.3873 H         1 A36         0.0548
     22 H3         27.0342   19.4257   13.0644 H         1 A36         0.2034
     23 H4         28.7508   21.6932    9.8293 H         1 A36         0.0674
     24 H5         29.5698   20.3231    9.0054 H         1 A36         0.0674
     25 H6         27.2773   17.2100   16.6259 H         1 A36         0.0281
     26 H7         25.9134   18.3531   16.3818 H         1 A36         0.0281
     27 H8         27.5694   18.9815   16.6809 H         1 A36         0.0281
     28 H9         30.2382   23.2490   11.2980 H         1 A36         0.0548
     29 H10        32.3367   24.5603   11.2739 H         1 A36         0.0587
     30 H11        33.9947   21.8354    8.3535 H         1 A36         0.0587
     31 H12        29.8441   20.9985   14.7050 H         1 A36         0.0528
     32 H13        29.3681   19.4369   13.9558 H         1 A36         0.0528
     33 H14        27.7502   20.6823   15.6567 H         1 A36         0.0830
     34 H15        27.2931   21.6310   14.2014 H         1 A36         0.0830
     35 H16        25.2065   19.9157   15.3216 H         1 A36         0.0812
     36 H17        24.8417   18.8705   13.9070 H         1 A36         0.0812
     37 H18        28.3311   18.0076   14.5097 H         1 A36         0.0812
     38 H19        26.6752   17.3792   14.2105 H         1 A36         0.0812
     39 H20        23.9236   21.1385   13.6085 H         1 A36         0.0281
     40 H21        25.2036   20.7855   12.3988 H         1 A36         0.0281
     41 H22        25.5685   21.8306   13.8134 H         1 A36         0.0281
@<TRIPOS>BOND
     1    2    1 am 
     2    1    3 2  
     3    1    6 2  
     4    1    8 1  
     5   14    2 1  
     6    7    4 ar 
     7    4   13 ar 
     8   15    5 1  
     9    5   16 1  
    10    5   17 1  
    11    8    7 1  
    12    7   10 ar 
    13   17    9 1  
    14   10   11 ar 
    15   11   12 ar 
    16   13   12 ar 
    17   12   19 1  
    18   14   15 1  
    19   16   18 1  
    20    2   20 1  
    21    4   21 1  
    22    5   22 1  
    23    8   23 1  
    24    8   24 1  
    25    9   25 1  
    26    9   26 1  
    27    9   27 1  
    28   10   28 1  
    29   11   29 1  
    30   13   30 1  
    31   14   31 1  
    32   14   32 1  
    33   15   33 1  
    34   15   34 1  
    35   16   35 1  
    36   16   36 1  
    37   17   37 1  
    38   17   38 1  
    39   18   39 1  
    40   18   40 1  
    41   18   41 1  
@<TRIPOS>SUBSTRUCTURE
     1 A36         1

