### 
### Created by X-TOOL on Mon Sep 10 21:13:14 2018
### 

@<TRIPOS>MOLECULE
4b81_ligand
   41    41     1     0     0
SMALL
GAST_HUCK


@<TRIPOS>ATOM
      1 S02        29.2810   19.6310   11.8060 S.o2      1 ZN4         0.0491
      2 N11        29.3890   20.5930   13.1800 N.am      1 ZN4        -0.2449
      3 O01        28.0050   19.0310   11.7280 O.2       1 ZN4        -0.1533
      4 C05        31.7890   21.0920    9.4250 C.ar      1 ZN4        -0.0581
      5 N14        26.6540   19.3040   14.2530 N.4       1 ZN4         0.2360
      6 O19        30.4240   18.7970   11.8580 O.2       1 ZN4        -0.1533
      7 C04        30.6950   21.5300   10.1880 C.ar      1 ZN4        -0.0201
      8 CL8        34.4590   24.0440    9.7400 Cl        1 ZN4        -0.0771
      9 C03        29.4420   20.6860   10.3680 C.3       1 ZN4         0.1181
     10 C18        24.6020   20.7160   13.6670 C.3       1 ZN4        -0.0245
     11 C10        30.8250   22.7880   10.7960 C.ar      1 ZN4        -0.0581
     12 C09        31.9730   23.5610   10.6700 C.ar      1 ZN4        -0.0545
     13 C07        33.0290   23.0890    9.9110 C.ar      1 ZN4         0.0330
     14 C06        32.9460   21.8540    9.2850 C.ar      1 ZN4        -0.0545
     15 C12        28.2230   21.3360   13.7720 C.3       1 ZN4         0.0663
     16 C13        27.1900   20.6500   14.7480 C.3       1 ZN4        -0.0147
     17 C17        25.4330   19.4740   13.3730 C.3       1 ZN4        -0.0348
     18 C15        26.1660   18.5280   15.4540 C.3       1 ZN4        -0.0348
     19 C16        26.6400   17.0820   15.4990 C.3       1 ZN4        -0.0245
     20 H1         30.2786   20.6760   13.6292 H         1 ZN4         0.1672
     21 H2         31.7312   20.1299    8.9290 H         1 ZN4         0.0558
     22 H3         27.3782   18.8038   13.7616 H         1 ZN4         0.2034
     23 H4         28.5894   21.3808   10.3852 H         1 ZN4         0.0683
     24 H5         29.3667   20.0348    9.4847 H         1 ZN4         0.0683
     25 H6         23.7424   20.7527   12.9816 H         1 ZN4         0.0281
     26 H7         25.2218   21.6137   13.5261 H         1 ZN4         0.0281
     27 H8         24.2415   20.6786   14.7056 H         1 ZN4         0.0281
     28 H9         29.9998   23.1708   11.3855 H         1 ZN4         0.0558
     29 H10        32.0404   24.5247   11.1618 H         1 ZN4         0.0606
     30 H11        33.7749   21.4851    8.6918 H         1 ZN4         0.0606
     31 H12        27.6362   21.7123   12.9211 H         1 ZN4         0.0528
     32 H13        28.6506   22.1844   14.3264 H         1 ZN4         0.0528
     33 H14        27.6861   20.4883   15.7164 H         1 ZN4         0.0830
     34 H15        26.3375   21.3321   14.8821 H         1 ZN4         0.0830
     35 H16        24.7893   18.5921   13.5067 H         1 ZN4         0.0812
     36 H17        25.7696   19.5272   12.3271 H         1 ZN4         0.0812
     37 H18        25.0661   18.5299   15.4420 H         1 ZN4         0.0812
     38 H19        26.5237   19.0364   16.3615 H         1 ZN4         0.0812
     39 H20        26.2413   16.5933   16.4002 H         1 ZN4         0.0281
     40 H21        27.7394   17.0571   15.5244 H         1 ZN4         0.0281
     41 H22        26.2818   16.5507   14.6049 H         1 ZN4         0.0281
@<TRIPOS>BOND
     1    2    1 am 
     2    1    3 2  
     3    1    6 2  
     4    1    9 1  
     5   15    2 1  
     6    7    4 ar 
     7    4   14 ar 
     8   16    5 1  
     9    5   17 1  
    10    5   18 1  
    11    9    7 1  
    12    7   11 ar 
    13   13    8 1  
    14   17   10 1  
    15   11   12 ar 
    16   12   13 ar 
    17   14   13 ar 
    18   15   16 1  
    19   18   19 1  
    20    2   20 1  
    21    4   21 1  
    22    5   22 1  
    23    9   23 1  
    24    9   24 1  
    25   10   25 1  
    26   10   26 1  
    27   10   27 1  
    28   11   28 1  
    29   12   29 1  
    30   14   30 1  
    31   15   31 1  
    32   15   32 1  
    33   16   33 1  
    34   16   34 1  
    35   17   35 1  
    36   17   36 1  
    37   18   37 1  
    38   18   38 1  
    39   19   39 1  
    40   19   40 1  
    41   19   41 1  
@<TRIPOS>SUBSTRUCTURE
     1 ZN4         1

