### 
### Created by X-TOOL on Mon Sep 10 21:13:14 2018
### 

@<TRIPOS>MOLECULE
4b82_ligand
   38    38     1     0     0
SMALL
GAST_HUCK


@<TRIPOS>ATOM
      1 O1         28.5520   19.2410   12.7780 O.2       1 B3Z        -0.1509
      2 S1         29.5720   20.1640   13.0440 S.o2      1 B3Z         0.0691
      3 O2         30.8070   19.6810   13.5840 O.2       1 B3Z        -0.1509
      4 N4         29.0820   21.3310   14.1590 N.am      1 B3Z        -0.2428
      5 C22        28.1640   20.9740   15.2820 C.3       1 B3Z         0.0665
      6 C21        26.6370   20.9640   15.0200 C.3       1 B3Z        -0.0147
      7 N17        26.1800   19.5470   14.6750 N.4       1 B3Z         0.2360
      8 C16        24.9150   19.6750   13.8520 C.3       1 B3Z        -0.0348
      9 C20        24.9990   20.6810   12.7110 C.3       1 B3Z        -0.0245
     10 C5         29.9670   21.1500   11.6840 C.ar      1 B3Z         0.1413
     11 C6         29.8960   20.7770   10.3150 C.ar      1 B3Z        -0.0369
     12 C7         30.2090   21.6560    9.2840 C.ar      1 B3Z        -0.0640
     13 C8         30.6030   22.9600    9.5260 C.ar      1 B3Z        -0.0635
     14 C9         30.6850   23.3860   10.8430 C.ar      1 B3Z        -0.0262
     15 C10        30.3660   22.4860   11.8740 C.ar      1 B3Z         0.1588
     16 C11        25.8340   18.7800   15.9350 C.3       1 B3Z        -0.0348
     17 F09        30.4740   22.9230   13.0770 F         1 B3Z        -0.1813
     18 C12        26.9800   18.0130   16.5980 C.3       1 B3Z        -0.0245
     19 H1         29.4094   22.2714   14.0673 H         1 B3Z         0.1674
     20 H2         28.3487   21.6942   16.0927 H         1 B3Z         0.0528
     21 H3         28.4414   19.9641   15.6184 H         1 B3Z         0.0528
     22 H4         26.4061   21.6366   14.1808 H         1 B3Z         0.0830
     23 H5         26.1095   21.3083   15.9218 H         1 B3Z         0.0830
     24 H6         26.8978   19.0632   14.1586 H         1 B3Z         0.2034
     25 H7         24.0995   19.9841   14.5224 H         1 B3Z         0.0812
     26 H8         24.6835   18.6888   13.4233 H         1 B3Z         0.0812
     27 H9         24.0401   20.7056   12.1725 H         1 B3Z         0.0281
     28 H10        25.8007   20.3842   12.0188 H         1 B3Z         0.0281
     29 H11        25.2167   21.6795   13.1178 H         1 B3Z         0.0281
     30 H12        29.5861   19.7689   10.0646 H         1 B3Z         0.0627
     31 H13        30.1423   21.3089    8.2592 H         1 B3Z         0.0583
     32 H14        30.8411   23.6305    8.7082 H         1 B3Z         0.0607
     33 H15        30.9911   24.3999   11.0742 H         1 B3Z         0.0604
     34 H16        25.0480   18.0538   15.6802 H         1 B3Z         0.0812
     35 H17        25.4438   19.5001   16.6692 H         1 B3Z         0.0812
     36 H18        26.6065   17.5005   17.4968 H         1 B3Z         0.0281
     37 H19        27.7765   18.7167   16.8815 H         1 B3Z         0.0281
     38 H20        27.3808   17.2704   15.8924 H         1 B3Z         0.0281
@<TRIPOS>BOND
     1    1    2 2  
     2    2    3 2  
     3    2    4 am 
     4    2   10 1  
     5    4    5 1  
     6    5    6 1  
     7    6    7 1  
     8    7    8 1  
     9    7   16 1  
    10    8    9 1  
    11   10   11 ar 
    12   10   15 ar 
    13   11   12 ar 
    14   12   13 ar 
    15   13   14 ar 
    16   14   15 ar 
    17   15   17 1  
    18   16   18 1  
    19    4   19 1  
    20    5   20 1  
    21    5   21 1  
    22    6   22 1  
    23    6   23 1  
    24    7   24 1  
    25    8   25 1  
    26    8   26 1  
    27    9   27 1  
    28    9   28 1  
    29    9   29 1  
    30   11   30 1  
    31   12   31 1  
    32   13   32 1  
    33   14   33 1  
    34   16   34 1  
    35   16   35 1  
    36   18   36 1  
    37   18   37 1  
    38   18   38 1  
@<TRIPOS>SUBSTRUCTURE
     1 B3Z         1

