### 
### Created by X-TOOL on Mon Sep 10 21:13:14 2018
### 

@<TRIPOS>MOLECULE
4b83_ligand
   42    42     1     0     0
SMALL
GAST_HUCK


@<TRIPOS>ATOM
      1 N1         29.9260   20.2600   13.3330 N.am      1 B3V        -0.2425
      2 O1         28.2500   19.1570   11.8060 O.2       1 B3V        -0.1505
      3 S1         29.6190   19.5030   11.8910 S.o2      1 B3V         0.0660
      4 C2         33.6530   20.9430    8.8260 C.3       1 B3V         0.0594
      5 N2         27.2190   20.0150   14.6500 N.4       1 B3V         0.2360
      6 O2         30.5870   18.4620   11.8340 O.2       1 B3V        -0.1505
      7 C5         30.5390   22.6130    8.7230 C.ar      1 B3V        -0.0330
      8 C6         31.5370   21.8740    9.3010 C.ar      1 B3V         0.0926
      9 C7         31.3070   20.8980   10.2910 C.ar      1 B3V        -0.0066
     10 C11        28.1600   21.1690   14.9350 C.3       1 B3V        -0.0147
     11 C8         29.9670   20.6500   10.7080 C.ar      1 B3V         0.0996
     12 C9         28.9740   21.4190   10.1060 C.ar      1 B3V        -0.0463
     13 C10        29.2290   22.3750    9.1380 C.ar      1 B3V        -0.0688
     14 C13        29.0630   21.4260   13.7010 C.3       1 B3V         0.0665
     15 C16        27.6120   17.9420   16.0480 C.3       1 B3V        -0.0245
     16 C17        26.8590   19.2640   15.9290 C.3       1 B3V        -0.0348
     17 O06        32.8630   22.0930    8.9160 O.3       1 B3V        -0.3212
     18 C19        25.9780   20.5330   14.0530 C.3       1 B3V        -0.0348
     19 C20        25.0190   19.3840   13.8790 C.3       1 B3V        -0.0245
     20 H1         30.6612   19.9490   13.9353 H         1 B3V         0.1674
     21 H2         34.6718   21.2212    8.5182 H         1 B3V         0.0577
     22 H3         33.2197   20.2577    8.0826 H         1 B3V         0.0577
     23 H4         33.6892   20.4453    9.8063 H         1 B3V         0.0577
     24 H5         27.6642   19.3797   14.0065 H         1 B3V         0.2034
     25 H6         30.7602   23.3584    7.9677 H         1 B3V         0.0542
     26 H7         32.1326   20.3470   10.7266 H         1 B3V         0.0561
     27 H8         28.7890   20.9218   15.8029 H         1 B3V         0.0830
     28 H9         27.5733   22.0736   15.1531 H         1 B3V         0.0830
     29 H10        27.9462   21.2603   10.4120 H         1 B3V         0.0542
     30 H11        28.4113   22.9381    8.7029 H         1 B3V         0.0589
     31 H12        28.4180   21.6651   12.8427 H         1 B3V         0.0528
     32 H13        29.7146   22.2846   13.9205 H         1 B3V         0.0528
     33 H14        27.3219   17.4375   16.9815 H         1 B3V         0.0281
     34 H15        28.6947   18.1362   16.0575 H         1 B3V         0.0281
     35 H16        27.3622   17.2993   15.1910 H         1 B3V         0.0281
     36 H17        25.7785   19.0581   15.9276 H         1 B3V         0.0812
     37 H18        27.1109   19.8950   16.7940 H         1 B3V         0.0812
     38 H19        26.1970   20.9856   13.0747 H         1 B3V         0.0812
     39 H20        25.5343   21.2901   14.7163 H         1 B3V         0.0812
     40 H21        24.0832   19.7519   13.4330 H         1 B3V         0.0281
     41 H22        24.8055   18.9329   14.8593 H         1 B3V         0.0281
     42 H23        25.4681   18.6284   13.2176 H         1 B3V         0.0281
@<TRIPOS>BOND
     1    1    3 am 
     2   14    1 1  
     3    3    2 2  
     4    3    6 2  
     5    3   11 1  
     6   17    4 1  
     7   10    5 1  
     8    5   16 1  
     9    5   18 1  
    10    8    7 ar 
    11    7   13 ar 
    12    9    8 ar 
    13    8   17 1  
    14   11    9 ar 
    15   10   14 1  
    16   11   12 ar 
    17   12   13 ar 
    18   16   15 1  
    19   18   19 1  
    20    1   20 1  
    21    4   21 1  
    22    4   22 1  
    23    4   23 1  
    24    5   24 1  
    25    7   25 1  
    26    9   26 1  
    27   10   27 1  
    28   10   28 1  
    29   12   29 1  
    30   13   30 1  
    31   14   31 1  
    32   14   32 1  
    33   15   33 1  
    34   15   34 1  
    35   15   35 1  
    36   16   36 1  
    37   16   37 1  
    38   18   38 1  
    39   18   39 1  
    40   19   40 1  
    41   19   41 1  
    42   19   42 1  
@<TRIPOS>SUBSTRUCTURE
     1 B3V         1

