### 
### Created by X-TOOL on Mon Sep 10 21:13:13 2018
### 

@<TRIPOS>MOLECULE
4b84_ligand
   41    41     1     0     0
SMALL
GAST_HUCK


@<TRIPOS>ATOM
      1 O01        30.6880   18.7140   12.0240 O.2       1 Z5K        -0.1497
      2 S02        29.8860   19.8950   12.0730 S.o2      1 Z5K         0.0749
      3 N03        29.9630   20.6260   13.6100 N.am      1 Z5K        -0.2418
      4 C04        28.7700   21.4280   13.8930 C.3       1 Z5K         0.0666
      5 C05        27.8370   20.8800   14.9360 C.3       1 Z5K        -0.0147
      6 N06        26.9160   19.7970   14.5310 N.4       1 Z5K         0.2360
      7 C07        25.5610   20.2560   14.2020 C.3       1 Z5K        -0.0348
      8 C08        25.2780   20.5480   12.7540 C.3       1 Z5K        -0.0245
      9 C09        26.9220   18.6590   15.4510 C.3       1 Z5K        -0.0348
     10 C10        27.6230   17.4340   14.9560 C.3       1 Z5K        -0.0245
     11 C11        30.2930   21.0490   10.8220 C.ar      1 Z5K         0.1371
     12 C12        31.5290   21.0210   10.1730 C.ar      1 Z5K        -0.0046
     13 C13        31.8180   21.9530    9.1650 C.ar      1 Z5K         0.0501
     14 C14        33.1440   21.9410    8.4330 C.3       1 Z5K         0.3771
     15 F15        33.8060   23.0540    8.7950 F         1 Z5K        -0.2199
     16 F16        32.9500   21.8850    7.0990 F         1 Z5K        -0.2199
     17 F17        33.8400   20.8670    8.7970 F         1 Z5K        -0.2199
     18 C18        30.8610   22.9260    8.8190 C.ar      1 Z5K        -0.0314
     19 C19        29.6280   22.9510    9.4710 C.ar      1 Z5K        -0.0302
     20 C20        29.3430   22.0160   10.4680 C.ar      1 Z5K        -0.0071
     21 O21        28.6070   19.3090   11.7770 O.2       1 Z5K        -0.1497
     22 H1         30.7301   20.5204   14.2428 H         1 Z5K         0.1675
     23 H2         28.2035   21.5300   12.9557 H         1 Z5K         0.0528
     24 H3         29.1043   22.4205   14.2293 H         1 Z5K         0.0528
     25 H4         27.2216   21.7164   15.2988 H         1 Z5K         0.0830
     26 H5         28.4551   20.4949   15.7604 H         1 Z5K         0.0830
     27 H6         27.2921   19.4423   13.6657 H         1 Z5K         0.2034
     28 H7         25.3750   21.1792   14.7704 H         1 Z5K         0.0812
     29 H8         24.8569   19.4764   14.5282 H         1 Z5K         0.0812
     30 H9         24.2353   20.8808   12.6441 H         1 Z5K         0.0281
     31 H10        25.4368   19.6370   12.1584 H         1 Z5K         0.0281
     32 H11        25.9548   21.3398   12.4005 H         1 Z5K         0.0281
     33 H12        25.8769   18.3890   15.6628 H         1 Z5K         0.0812
     34 H13        27.4141   18.9782   16.3816 H         1 Z5K         0.0812
     35 H14        27.5675   16.6455   15.7210 H         1 Z5K         0.0281
     36 H15        28.6771   17.6723   14.7509 H         1 Z5K         0.0281
     37 H16        27.1399   17.0832   14.0321 H         1 Z5K         0.0281
     38 H17        32.2675   20.2769   10.4488 H         1 Z5K         0.0873
     39 H18        31.0819   23.6545    8.0473 H         1 Z5K         0.0853
     40 H19        28.8896   23.6980    9.2030 H         1 Z5K         0.0699
     41 H20        28.3826   22.0384   10.9703 H         1 Z5K         0.0876
@<TRIPOS>BOND
     1    1    2 2  
     2    2    3 am 
     3    2   11 1  
     4    2   21 2  
     5    3    4 1  
     6    4    5 1  
     7    5    6 1  
     8    6    7 1  
     9    6    9 1  
    10    7    8 1  
    11    9   10 1  
    12   11   12 ar 
    13   11   20 ar 
    14   12   13 ar 
    15   13   14 1  
    16   13   18 ar 
    17   14   15 1  
    18   14   16 1  
    19   14   17 1  
    20   18   19 ar 
    21   19   20 ar 
    22    3   22 1  
    23    4   23 1  
    24    4   24 1  
    25    5   25 1  
    26    5   26 1  
    27    6   27 1  
    28    7   28 1  
    29    7   29 1  
    30    8   30 1  
    31    8   31 1  
    32    8   32 1  
    33    9   33 1  
    34    9   34 1  
    35   10   35 1  
    36   10   36 1  
    37   10   37 1  
    38   12   38 1  
    39   18   39 1  
    40   19   40 1  
    41   20   41 1  
@<TRIPOS>SUBSTRUCTURE
     1 Z5K         1

