### 
### Created by X-TOOL on Mon Sep 10 21:13:13 2018
### 

@<TRIPOS>MOLECULE
4b85_ligand
   38    38     1     0     0
SMALL
GAST_HUCK


@<TRIPOS>ATOM
      1 O2         28.0710   19.2670   11.9720 O.2       1 B3W        -0.1503
      2 S1         29.4320   19.5210   12.2780 S.o2      1 B3W         0.0685
      3 O1         30.2650   18.4030   12.5440 O.2       1 B3W        -0.1503
      4 N4         29.5000   20.5300   13.5920 N.am      1 B3W        -0.2423
      5 C22        28.5430   21.6640   13.6880 C.3       1 B3W         0.0666
      6 C21        27.3580   21.4590   14.6820 C.3       1 B3W        -0.0147
      7 N17        26.8150   20.0490   14.5260 N.4       1 B3W         0.2360
      8 C16        25.5570   19.9610   13.6800 C.3       1 B3W        -0.0348
      9 C20        24.9550   21.3520   13.4180 C.3       1 B3W        -0.0245
     10 C5         30.0840   20.4060   11.0040 C.ar      1 B3W         0.1083
     11 C10        29.3520   21.4050   10.3270 C.ar      1 B3W        -0.0346
     12 C9         29.9110   22.1340    9.2750 C.ar      1 B3W        -0.0460
     13 C8         31.2220   21.8480    8.8970 C.ar      1 B3W         0.0405
     14 C7         31.9700   20.8770    9.5330 C.ar      1 B3W        -0.0460
     15 C6         31.3900   20.1670   10.5750 C.ar      1 B3W        -0.0346
     16 C11        26.6800   19.3360   15.8480 C.3       1 B3W        -0.0348
     17 C12        27.3560   17.9710   15.7940 C.3       1 B3W        -0.0245
     18 CL8        31.9650   22.7080    7.6030 Cl        1 B3W        -0.0707
     19 H1         30.1771   20.3776   14.3119 H         1 B3W         0.1674
     20 H2         28.1202   21.8366   12.6873 H         1 B3W         0.0528
     21 H3         29.1036   22.5547   14.0078 H         1 B3W         0.0528
     22 H4         26.5626   22.1862   14.4616 H         1 B3W         0.0830
     23 H5         27.7128   21.6048   15.7129 H         1 B3W         0.0830
     24 H6         27.5200   19.5435   14.0127 H         1 B3W         0.2034
     25 H7         24.8144   19.3438   14.2069 H         1 B3W         0.0812
     26 H8         25.8063   19.4923   12.7166 H         1 B3W         0.0812
     27 H9         24.0480   21.2493   12.8041 H         1 B3W         0.0281
     28 H10        25.6891   21.9750   12.8861 H         1 B3W         0.0281
     29 H11        24.6973   21.8265   14.3764 H         1 B3W         0.0281
     30 H12        28.3320   21.6113   10.6307 H         1 B3W         0.0637
     31 H13        29.3403   22.9021    8.7657 H         1 B3W         0.0624
     32 H14        32.9891   20.6735    9.2248 H         1 B3W         0.0624
     33 H15        31.9720   19.3999   11.0730 H         1 B3W         0.0637
     34 H16        25.6129   19.2018   16.0788 H         1 B3W         0.0812
     35 H17        27.1521   19.9421   16.6353 H         1 B3W         0.0812
     36 H18        27.2460   17.4687   16.7664 H         1 B3W         0.0281
     37 H19        28.4245   18.0997   15.5666 H         1 B3W         0.0281
     38 H20        26.8853   17.3594   15.0101 H         1 B3W         0.0281
@<TRIPOS>BOND
     1    1    2 2  
     2    2    3 2  
     3    2    4 am 
     4    2   10 1  
     5    4    5 1  
     6    5    6 1  
     7    6    7 1  
     8    7    8 1  
     9    7   16 1  
    10    8    9 1  
    11   10   11 ar 
    12   10   15 ar 
    13   11   12 ar 
    14   12   13 ar 
    15   13   14 ar 
    16   13   18 1  
    17   14   15 ar 
    18   16   17 1  
    19    4   19 1  
    20    5   20 1  
    21    5   21 1  
    22    6   22 1  
    23    6   23 1  
    24    7   24 1  
    25    8   25 1  
    26    8   26 1  
    27    9   27 1  
    28    9   28 1  
    29    9   29 1  
    30   11   30 1  
    31   12   31 1  
    32   14   32 1  
    33   15   33 1  
    34   16   34 1  
    35   16   35 1  
    36   17   36 1  
    37   17   37 1  
    38   17   38 1  
@<TRIPOS>SUBSTRUCTURE
     1 B3W         1

