### 
### Created by X-TOOL on Mon Sep 10 21:13:09 2018
### 

@<TRIPOS>MOLECULE
4b8y_ligand
   93    93     1     0     0
SMALL
GAST_HUCK


@<TRIPOS>ATOM
      1 N          -0.7250   14.6200    3.3000 N.am      1 GLY        -0.2664
      2 CA         -0.6000   16.0650    3.3450 C.3       1 GLY         0.1201
      3 C           0.6360   16.4580    2.5520 C.2       1 GLY         0.2005
      4 O           1.4720   15.6020    2.2880 O.2       1 GLY        -0.3947
      5 N           1.1200   17.7510    2.2140 N.am      1 GLY        -0.2666
      6 CA          2.3830   17.8640    1.4860 C.3       1 GLY         0.1201
      7 C           3.6240   17.4920    2.2910 C.2       1 GLY         0.2005
      8 O           3.6180   17.4930    3.5280 O.2       1 GLY        -0.3947
      9 N           4.3610   16.6050    1.5930 N.am      1 GLY        -0.2666
     10 CA          5.6000   15.9440    1.9580 C.3       1 GLY         0.1201
     11 C           5.3530   14.5090    2.3970 C.2       1 GLY         0.2007
     12 O           6.2840   13.7170    2.5490 O.2       1 GLY        -0.3947
     13 C1          2.5990   12.2210    1.8970 C.2       1 AHO         0.2039
     14 C2          3.7530   12.7840    2.6760 C.3       1 AHO         0.1310
     15 C3          3.6200   12.5690    4.1610 C.3       1 AHO        -0.0105
     16 C4          2.6880   13.4710    4.9340 C.3       1 AHO        -0.0257
     17 C5          2.6120   13.2240    6.4140 C.3       1 AHO         0.0630
     18 C6          2.7750   10.9190    7.4400 C.2       1 AHO         0.1982
     19 C7          4.0840   11.2090    8.1050 C.3       1 AHO         0.0275
     20 N1          3.8570   14.1790    2.3240 N.am      1 AHO        -0.2640
     21 N2          2.0930   11.8980    6.6590 N.am      1 AHO        -0.1509
     22 O1          2.2080   12.8070    0.8730 O.2       1 AHO        -0.3944
     23 O2          0.9520   11.5800    6.1030 O.3       1 AHO        -0.2691
     24 O3          2.2700    9.8200    7.5380 O.2       1 AHO        -0.3971
     25 C1         -0.5630   11.5570    1.6140 C.2       1 AHO         0.2039
     26 C2          0.6410   10.6740    1.4180 C.3       1 AHO         0.1310
     27 C3          0.3120    9.2410    1.7570 C.3       1 AHO        -0.0105
     28 C4          1.3750    8.1940    1.5630 C.3       1 AHO        -0.0257
     29 C5          2.4870    8.0320    2.5580 C.3       1 AHO         0.0630
     30 C6          1.5830    7.1450    4.7640 C.2       1 AHO         0.1982
     31 C7          1.6360    5.7040    4.3240 C.3       1 AHO         0.0275
     32 N1          1.6980   11.1510    2.2940 N.am      1 AHO        -0.2637
     33 N2          2.0200    8.2200    3.9120 N.am      1 AHO        -0.1509
     34 O1         -1.3880   11.7210    0.7180 O.2       1 AHO        -0.3944
     35 O2          1.9600    9.4440    4.3540 O.3       1 AHO        -0.2691
     36 O3          1.1840    7.4060    5.9030 O.2       1 AHO        -0.3971
     37 C1         -2.0830   14.1440    3.2260 C.2       1 AHO         0.2037
     38 C2         -2.1830   12.6470    3.1570 C.3       1 AHO         0.1310
     39 C3         -2.7350   12.1300    4.4530 C.3       1 AHO        -0.0105
     40 C4         -3.2890   10.7450    4.3230 C.3       1 AHO        -0.0257
     41 C5         -3.2710    9.9410    5.5690 C.3       1 AHO         0.0630
     42 C6         -1.6220    9.5120    7.3910 C.2       1 AHO         0.1982
     43 C7         -2.7160    9.6370    8.4020 C.3       1 AHO         0.0275
     44 N1         -0.8910   12.0300    2.9540 N.am      1 AHO        -0.2637
     45 N2         -1.9380    9.6390    6.0130 N.am      1 AHO        -0.1509
     46 O1         -3.0940   14.8300    3.3880 O.2       1 AHO        -0.3944
     47 O2         -0.9790    9.5240    5.1440 O.3       1 AHO        -0.2691
     48 O3         -0.4810    9.2460    7.7350 O.2       1 AHO        -0.3971
     49 H1          0.0645   14.0065    3.3188 H         1 GLY         0.1881
     50 H2         -0.4948   16.3977    4.3882 H         1 GLY         0.0763
     51 H3         -1.4918   16.5303    2.8999 H         1 GLY         0.0763
     52 H4          0.6055   18.5695    2.4697 H         1 GLY         0.1881
     53 H5          2.4925   18.9062    1.1515 H         1 GLY         0.0763
     54 H6          2.3328   17.2010    0.6097 H         1 GLY         0.0763
     55 H7          4.0008   16.3676    0.6908 H         1 GLY         0.1881
     56 H8          6.0701   16.4958    2.7854 H         1 GLY         0.0763
     57 H9          6.2743   15.9416    1.0889 H         1 GLY         0.0763
     58 H10         4.6722   12.2736    2.3527 H         1 AHO         0.0800
     59 H11         4.6227   12.6853    4.5981 H         1 AHO         0.0313
     60 H12         3.2723   11.5362    4.3108 H         1 AHO         0.0313
     61 H13         1.6769   13.3456    4.5193 H         1 AHO         0.0288
     62 H14         3.0205   14.5085    4.7823 H         1 AHO         0.0288
     63 H15         1.9465   13.9684    6.8755 H         1 AHO         0.0551
     64 H16         3.6176   13.3099    6.8514 H         1 AHO         0.0551
     65 H17         4.4241   10.3161    8.6501 H         1 AHO         0.0466
     66 H18         3.9600   12.0440    8.8103 H         1 AHO         0.0466
     67 H19         4.8301   11.4800    7.3435 H         1 AHO         0.0466
     68 H20         3.1110   14.7999    2.0832 H         1 AHO         0.1883
     69 H21         1.0825   10.8489    5.5106 H         1 AHO         0.2492
     70 H22         0.9723   10.7315    0.3707 H         1 AHO         0.0800
     71 H23        -0.5476    8.9496    1.1356 H         1 AHO         0.0313
     72 H24         0.0225    9.2167    2.8179 H         1 AHO         0.0313
     73 H25         1.8502    8.4057    0.5938 H         1 AHO         0.0288
     74 H26         0.8557    7.2256    1.5131 H         1 AHO         0.0288
     75 H27         3.2691    8.7752    2.3436 H         1 AHO         0.0551
     76 H28         2.9070    7.0198    2.4625 H         1 AHO         0.0551
     77 H29         1.2547    5.0602    5.1303 H         1 AHO         0.0466
     78 H30         2.6761    5.4284    4.0956 H         1 AHO         0.0466
     79 H31         1.0158    5.5720    3.4252 H         1 AHO         0.0466
     80 H32         1.8088   10.7316    3.1950 H         1 AHO         0.1883
     81 H33         1.0592    9.6594    4.5654 H         1 AHO         0.2492
     82 H34        -2.8522   12.3704    2.3290 H         1 AHO         0.0800
     83 H35        -3.5385   12.8022    4.7884 H         1 AHO         0.0313
     84 H36        -1.9291   12.1197    5.2016 H         1 AHO         0.0313
     85 H37        -2.6977   10.2112    3.5644 H         1 AHO         0.0288
     86 H38        -4.3325   10.8257    3.9846 H         1 AHO         0.0288
     87 H39        -3.8039    8.9962    5.3863 H         1 AHO         0.0551
     88 H40        -3.7862   10.5056    6.3600 H         1 AHO         0.0551
     89 H41        -2.2979    9.5132    9.4119 H         1 AHO         0.0466
     90 H42        -3.4732    8.8599    8.2209 H         1 AHO         0.0466
     91 H43        -3.1819   10.6298    8.3173 H         1 AHO         0.0466
     92 H44        -0.2427   11.9308    3.7089 H         1 AHO         0.1883
     93 H45        -0.3244   10.1931    5.3061 H         1 AHO         0.2492
@<TRIPOS>BOND
     1    1    2 1  
     2    2    3 1  
     3    3    4 2  
     4    5    6 1  
     5    6    7 1  
     6    7    8 2  
     7    3    5 am 
     8    9   10 1  
     9   10   11 1  
    10   11   12 2  
    11    7    9 am 
    12   14   13 1  
    13   13   22 2  
    14   14   15 1  
    15   20   14 1  
    16   15   16 1  
    17   16   17 1  
    18   17   21 1  
    19   18   19 1  
    20   21   18 am 
    21   18   24 2  
    22   21   23 1  
    23   25   26 1  
    24   25   34 2  
    25   26   27 1  
    26   26   32 1  
    27   27   28 1  
    28   28   29 1  
    29   29   33 1  
    30   30   31 1  
    31   33   30 am 
    32   30   36 2  
    33   33   35 1  
    34   38   37 1  
    35   37   46 2  
    36   38   39 1  
    37   44   38 1  
    38   39   40 1  
    39   40   41 1  
    40   41   45 1  
    41   42   43 1  
    42   45   42 am 
    43   42   48 2  
    44   45   47 1  
    45   11   20 am 
    46   37    1 am 
    47   44   25 am 
    48   32   13 am 
    49    1   49 1  
    50    2   50 1  
    51    2   51 1  
    52    5   52 1  
    53    6   53 1  
    54    6   54 1  
    55    9   55 1  
    56   10   56 1  
    57   10   57 1  
    58   14   58 1  
    59   15   59 1  
    60   15   60 1  
    61   16   61 1  
    62   16   62 1  
    63   17   63 1  
    64   17   64 1  
    65   19   65 1  
    66   19   66 1  
    67   19   67 1  
    68   20   68 1  
    69   23   69 1  
    70   26   70 1  
    71   27   71 1  
    72   27   72 1  
    73   28   73 1  
    74   28   74 1  
    75   29   75 1  
    76   29   76 1  
    77   31   77 1  
    78   31   78 1  
    79   31   79 1  
    80   32   80 1  
    81   35   81 1  
    82   38   82 1  
    83   39   83 1  
    84   39   84 1  
    85   40   85 1  
    86   40   86 1  
    87   41   87 1  
    88   41   88 1  
    89   43   89 1  
    90   43   90 1  
    91   43   91 1  
    92   44   92 1  
    93   47   93 1  
@<TRIPOS>SUBSTRUCTURE
     1 GLY         1

