### 
### Created by X-TOOL on Mon Sep 10 21:13:09 2018
### 

@<TRIPOS>MOLECULE
4b95_ligand
   44    46     1     0     0
SMALL
GAST_HUCK


@<TRIPOS>ATOM
      1 O01        -9.5570   31.9900    0.8760 O.3       1 UCK        -0.3896
      2 C02        -8.2830   31.6980    1.3200 C.3       1 UCK         0.0798
      3 C03        -7.8710   32.6030    2.4470 C.3       1 UCK         0.0158
      4 C04        -7.2970   33.8240    1.7870 C.3       1 UCK         0.1357
      5 C05        -6.0310   34.3370    2.5750 C.2       1 UCK         0.2037
      6 N06        -6.2630   35.1040    3.8470 N.am      1 UCK        -0.2736
      7 C07        -5.2390   35.5550    4.7920 C.3       1 UCK         0.0647
      8 C08        -4.9440   34.5940    5.9340 C.ar      1 UCK        -0.0207
      9 C09        -3.7260   34.6590    6.7020 C.ar      1 UCK        -0.0578
     10 C10        -3.4710   33.7230    7.6910 C.ar      1 UCK        -0.0545
     11 C11        -4.4040   32.6920    7.9520 C.ar      1 UCK         0.0330
     12 CL1        -4.1490   31.4490    9.1800 Cl        1 UCK        -0.0771
     13 C13        -5.5990   32.6300    7.1790 C.ar      1 UCK        -0.0545
     14 C14        -5.8580   33.5670    6.2090 C.ar      1 UCK        -0.0578
     15 O15        -4.9020   34.0960    2.1390 O.2       1 UCK        -0.3944
     16 N16        -7.1060   33.4680    0.3920 N.am      1 UCK        -0.2485
     17 C17        -6.8650   34.4800   -0.7160 C.2       1 UCK         0.2100
     18 C18        -6.6840   34.0250   -2.1540 C.ar      1 UCK         0.0639
     19 C19        -5.5050   33.2820   -2.5020 C.ar      1 UCK         0.0605
     20 CL2        -4.2820   32.9670   -1.3290 Cl        1 UCK        -0.0647
     21 C21        -5.3450   32.8590   -3.7780 C.ar      1 UCK        -0.0423
     22 C22        -6.3340   33.1470   -4.7510 C.ar      1 UCK        -0.0571
     23 C23        -7.4790   33.8670   -4.4060 C.ar      1 UCK        -0.0561
     24 C24        -7.6530   34.3030   -3.1010 C.ar      1 UCK        -0.0416
     25 O25        -6.7870   35.6850   -0.4510 O.2       1 UCK        -0.3844
     26 C26        -7.2950   32.0380    0.2830 C.3       1 UCK         0.0623
     27 H          -9.7886   31.3958    0.1584 H         1 UCK         0.2099
     28 H          -8.3055   30.6444    1.5986 H         1 UCK         0.0616
     29 H          -7.1441   32.1223    3.1017 H         1 UCK         0.0338
     30 H          -8.7157   32.8540    3.0886 H         1 UCK         0.0338
     31 H          -7.9528   34.6943    1.8124 H         1 UCK         0.0802
     32 H          -7.2305   35.3333    4.0747 H         1 UCK         0.1878
     33 H          -5.6130   36.4735    5.2443 H         1 UCK         0.0684
     34 H          -4.3142   35.6607    4.2248 H         1 UCK         0.0684
     35 H          -3.0016   35.4489    6.5036 H         1 UCK         0.0558
     36 H          -2.5491   33.7810    8.2696 H         1 UCK         0.0606
     37 H          -6.3163   31.8294    7.3596 H         1 UCK         0.0606
     38 H          -6.7886   33.5114    5.6441 H         1 UCK         0.0558
     39 H          -4.4543   32.2962   -4.0572 H         1 UCK         0.0635
     40 H          -6.1997   32.8037   -5.7768 H         1 UCK         0.0652
     41 H          -8.2346   34.0860   -5.1605 H         1 UCK         0.0630
     42 H          -8.5473   34.8610   -2.8235 H         1 UCK         0.0669
     43 H          -7.6412   31.7531   -0.7105 H         1 UCK         0.0549
     44 H          -6.3596   31.4971    0.4266 H         1 UCK         0.0549
@<TRIPOS>BOND
     1    1    2 1  
     2    2    3 1  
     3    2   26 1  
     4    3    4 1  
     5    4    5 1  
     6    4   16 1  
     7    5    6 am 
     8    5   15 2  
     9    6    7 1  
    10    7    8 1  
    11    8    9 ar 
    12    8   14 ar 
    13    9   10 ar 
    14   10   11 ar 
    15   11   12 1  
    16   11   13 ar 
    17   13   14 ar 
    18   16   17 am 
    19   16   26 1  
    20   17   18 1  
    21   17   25 2  
    22   18   19 ar 
    23   18   24 ar 
    24   19   20 1  
    25   19   21 ar 
    26   21   22 ar 
    27   22   23 ar 
    28   23   24 ar 
    29    1   27 1  
    30    2   28 1  
    31    3   29 1  
    32    3   30 1  
    33    4   31 1  
    34    6   32 1  
    35    7   33 1  
    36    7   34 1  
    37    9   35 1  
    38   10   36 1  
    39   13   37 1  
    40   14   38 1  
    41   21   39 1  
    42   22   40 1  
    43   23   41 1  
    44   24   42 1  
    45   26   43 1  
    46   26   44 1  
@<TRIPOS>SUBSTRUCTURE
     1 UCK         1

