### 
### Created by X-TOOL on Tue Oct 16 15:17:36 2018
### 

@<TRIPOS>MOLECULE
4b9h_ligand
  111   114     1     0     0
SMALL
GAST_HUCK


@<TRIPOS>ATOM
      1 C1        -12.3170   23.3080   53.9020 C.3       1 NDG         0.1823
      2 C2        -13.4460   23.4820   54.9460 C.3       1 NDG         0.1208
      3 C3        -12.9100   23.3170   56.3830 C.3       1 NDG         0.1114
      4 C4        -12.1710   21.9990   56.4960 C.3       1 NDG         0.1181
      5 C5        -11.1360   21.8380   55.3900 C.3       1 NDG         0.1133
      6 C6        -10.5370   20.4270   55.4560 C.3       1 NDG         0.0730
      7 C7        -15.3790   24.9290   54.3740 C.2       1 NDG         0.1733
      8 C8        -15.9070   26.3550   54.2320 C.3       1 NDG         0.0257
      9 N2        -14.0920   24.7850   54.7790 N.am      1 NDG        -0.2766
     10 O1L       -11.3370   24.3320   54.1070 O.3       1 NDG        -0.3651
     11 O3        -13.9130   23.3680   57.4070 O.3       1 NDG        -0.3867
     12 O4        -11.4700   22.0280   57.7210 O.3       1 NDG        -0.3404
     13 O         -11.6690   22.0420   54.0780 O.3       1 NDG        -0.3409
     14 O6         -9.2280   20.5630   54.9800 O.3       1 NDG        -0.3924
     15 O7        -16.1010   23.9260   54.1020 O.2       1 NDG        -0.3974
     16 C1        -11.9740   21.2290   58.7810 C.3       1 NDG         0.1854
     17 C2        -10.7830   20.9550   59.7150 C.3       1 NDG         0.1210
     18 C3        -11.2140   20.2760   61.0480 C.3       1 NDG         0.1114
     19 C4        -12.4530   20.9360   61.6110 C.3       1 NDG         0.1181
     20 C5        -13.5430   21.1540   60.5450 C.3       1 NDG         0.1134
     21 C6        -14.7400   21.9160   61.0960 C.3       1 NDG         0.0730
     22 C7         -8.4730   20.4750   58.9830 C.2       1 NDG         0.1733
     23 C8         -7.5920   19.4480   58.2860 C.3       1 NDG         0.0257
     24 N2         -9.7650   20.1380   59.0710 N.am      1 NDG        -0.2766
     25 O3        -10.1520   20.1920   61.9790 O.3       1 NDG        -0.3867
     26 O4        -12.9950   20.1250   62.6340 O.3       1 NDG        -0.3404
     27 O5        -12.9970   21.9320   59.4780 O.3       1 NDG        -0.3408
     28 O6        -14.2510   23.1700   61.5310 O.3       1 NDG        -0.3924
     29 O7         -8.0290   21.5210   59.4480 O.2       1 NDG        -0.3974
     30 C1        -13.0280   20.8540   63.8880 C.3       1 NDG         0.1854
     31 C2        -14.0600   20.2440   64.8540 C.3       1 NDG         0.1210
     32 C3        -14.0740   20.9920   66.1760 C.3       1 NDG         0.1114
     33 C4        -12.6450   21.1420   66.6690 C.3       1 NDG         0.1181
     34 C5        -11.6630   21.6560   65.6230 C.3       1 NDG         0.1134
     35 C6        -10.2030   21.5350   66.1160 C.3       1 NDG         0.0730
     36 C7        -15.8340   19.1420   63.5900 C.2       1 NDG         0.1733
     37 C8        -17.1880   19.1990   62.9740 C.3       1 NDG         0.0257
     38 N2        -15.3940   20.2390   64.2520 N.am      1 NDG        -0.2766
     39 O3        -14.9280   20.3400   67.1410 O.3       1 NDG        -0.3867
     40 O4        -12.5850   22.1730   67.5710 O.3       1 NDG        -0.3404
     41 O5        -11.7370   20.8550   64.4450 O.3       1 NDG        -0.3408
     42 O6         -9.8910   20.1700   66.4410 O.3       1 NDG        -0.3924
     43 O7        -15.1560   18.0990   63.5180 O.2       1 NDG        -0.3974
     44 C1        -12.6640   21.7980   68.9290 C.3       1 NDG         0.1854
     45 C2        -11.9370   22.8450   69.7840 C.3       1 NDG         0.1210
     46 C3        -12.2560   22.5490   71.2680 C.3       1 NDG         0.1111
     47 C4        -13.7610   22.4030   71.5270 C.3       1 NDG         0.1116
     48 C5        -14.3620   21.3670   70.5530 C.3       1 NDG         0.1130
     49 C6        -15.8870   21.1930   70.6690 C.3       1 NDG         0.0730
     50 C7         -9.8930   24.1810   69.0420 C.2       1 NDG         0.1733
     51 C8         -8.3910   24.2170   68.8580 C.3       1 NDG         0.0257
     52 N2        -10.4780   23.0290   69.5250 N.am      1 NDG        -0.2766
     53 O3        -11.6800   23.5060   72.1450 O.3       1 NDG        -0.3867
     54 O4        -13.9520   21.9850   72.8650 O.3       1 NDG        -0.3865
     55 O5        -14.0630   21.7300   69.2090 O.3       1 NDG        -0.3408
     56 O6        -16.3160   20.3130   69.6390 O.3       1 NDG        -0.3924
     57 O7        -10.5140   25.2100   68.7340 O.2       1 NDG        -0.3974
     58 H1        -12.7350   23.3782   52.8869 H         1 NDG         0.0932
     59 H2        -14.1986   22.6991   54.7710 H         1 NDG         0.0633
     60 H3        -12.2010   24.1373   56.5685 H         1 NDG         0.0645
     61 H4        -12.8843   21.1621   56.4693 H         1 NDG         0.0650
     62 H5        -10.3382   22.5766   55.5575 H         1 NDG         0.0647
     63 H6        -11.1088   19.7348   54.8205 H         1 NDG         0.0584
     64 H7        -10.5345   20.0568   56.4918 H         1 NDG         0.0584
     65 H8        -16.9552   26.3265   53.8996 H         1 NDG         0.0467
     66 H9        -15.3020   26.8979   53.4909 H         1 NDG         0.0467
     67 H10       -15.8442   26.8677   55.2032 H         1 NDG         0.0467
     68 H11       -13.5591   25.6087   54.9727 H         1 NDG         0.1857
     69 H12       -10.9849   24.2603   54.9864 H         1 NDG         0.2126
     70 H13       -13.4979   23.3012   58.2589 H         1 NDG         0.2100
     71 H14        -8.7972   19.7164   54.9951 H         1 NDG         0.2095
     72 H15       -12.3780   20.2837   58.3896 H         1 NDG         0.0935
     73 H16       -10.3313   21.9269   59.9626 H         1 NDG         0.0633
     74 H17       -11.4925   19.2406   60.8024 H         1 NDG         0.0645
     75 H18       -12.1684   21.9120   62.0309 H         1 NDG         0.0650
     76 H19       -13.8759   20.1764   60.1663 H         1 NDG         0.0647
     77 H20       -15.1841   21.3677   61.9398 H         1 NDG         0.0584
     78 H21       -15.4968   22.0550   60.3100 H         1 NDG         0.0584
     79 H22        -6.5540   19.8112   58.2622 H         1 NDG         0.0467
     80 H23        -7.9506   19.2950   57.2574 H         1 NDG         0.0467
     81 H24        -7.6346   18.4956   58.8347 H         1 NDG         0.0467
     82 H25       -10.0497   19.2682   58.6681 H         1 NDG         0.1857
     83 H26       -10.4311   19.6831   62.7310 H         1 NDG         0.2100
     84 H27       -13.8639   23.6301   60.7955 H         1 NDG         0.2095
     85 H28       -13.3226   21.8939   63.6838 H         1 NDG         0.0935
     86 H29       -13.7688   19.2020   65.0526 H         1 NDG         0.0633
     87 H30       -14.4812   21.9984   65.9992 H         1 NDG         0.0645
     88 H31       -12.3050   20.1886   67.0996 H         1 NDG         0.0650
     89 H32       -11.8983   22.7047   65.3889 H         1 NDG         0.0647
     90 H33       -10.0709   22.1593   67.0120 H         1 NDG         0.0584
     91 H34        -9.5237   21.8824   65.3236 H         1 NDG         0.0584
     92 H35       -17.4047   18.2426   62.4757 H         1 NDG         0.0467
     93 H36       -17.2207   20.0131   62.2350 H         1 NDG         0.0467
     94 H37       -17.9392   19.3834   63.7561 H         1 NDG         0.0467
     95 H38       -15.9806   21.0452   64.3293 H         1 NDG         0.1857
     96 H39       -14.9469   20.8509   67.9417 H         1 NDG         0.2100
     97 H40       -10.0016   19.6284   65.6684 H         1 NDG         0.2095
     98 H41       -12.1994   20.8140   69.0898 H         1 NDG         0.0935
     99 H42       -12.3984   23.8140   69.5428 H         1 NDG         0.0633
    100 H43       -11.7943   21.5787   71.5031 H         1 NDG         0.0645
    101 H44       -14.2558   23.3733   71.3730 H         1 NDG         0.0647
    102 H45       -13.8929   20.3963   70.7711 H         1 NDG         0.0647
    103 H46       -16.3823   22.1685   70.5548 H         1 NDG         0.0584
    104 H47       -16.1390   20.7666   71.6512 H         1 NDG         0.0584
    105 H48        -8.0929   25.2015   68.4682 H         1 NDG         0.0467
    106 H49        -8.0899   23.4343   68.1462 H         1 NDG         0.0467
    107 H50        -7.8987   24.0415   69.8259 H         1 NDG         0.0467
    108 H51        -9.8760   22.2540   69.7174 H         1 NDG         0.1857
    109 H52       -11.8097   23.2283   73.0442 H         1 NDG         0.2100
    110 H53       -13.5782   22.6303   73.4536 H         1 NDG         0.2100
    111 H54       -16.0936   20.6847   68.7935 H         1 NDG         0.2095
@<TRIPOS>BOND
     1    2    1 1  
     2    1   10 1  
     3   13    1 1  
     4    3    2 1  
     5    2    9 1  
     6    4    3 1  
     7    3   11 1  
     8    4    5 1  
     9   12    4 1  
    10    5    6 1  
    11    5   13 1  
    12    6   14 1  
    13    7    8 1  
    14    9    7 am 
    15    7   15 2  
    16   16   12 1  
    17   17   16 1  
    18   27   16 1  
    19   18   17 1  
    20   17   24 1  
    21   19   18 1  
    22   18   25 1  
    23   19   20 1  
    24   26   19 1  
    25   20   21 1  
    26   20   27 1  
    27   21   28 1  
    28   22   23 1  
    29   24   22 am 
    30   22   29 2  
    31   30   26 1  
    32   31   30 1  
    33   41   30 1  
    34   32   31 1  
    35   31   38 1  
    36   33   32 1  
    37   32   39 1  
    38   33   34 1  
    39   40   33 1  
    40   34   35 1  
    41   34   41 1  
    42   35   42 1  
    43   36   37 1  
    44   38   36 am 
    45   36   43 2  
    46   44   40 1  
    47   45   44 1  
    48   44   55 1  
    49   45   46 1  
    50   52   45 1  
    51   46   47 1  
    52   46   53 1  
    53   47   48 1  
    54   47   54 1  
    55   48   49 1  
    56   55   48 1  
    57   49   56 1  
    58   50   51 1  
    59   50   52 am 
    60   50   57 2  
    61    1   58 1  
    62    2   59 1  
    63    3   60 1  
    64    4   61 1  
    65    5   62 1  
    66    6   63 1  
    67    6   64 1  
    68    8   65 1  
    69    8   66 1  
    70    8   67 1  
    71    9   68 1  
    72   10   69 1  
    73   11   70 1  
    74   14   71 1  
    75   16   72 1  
    76   17   73 1  
    77   18   74 1  
    78   19   75 1  
    79   20   76 1  
    80   21   77 1  
    81   21   78 1  
    82   23   79 1  
    83   23   80 1  
    84   23   81 1  
    85   24   82 1  
    86   25   83 1  
    87   28   84 1  
    88   30   85 1  
    89   31   86 1  
    90   32   87 1  
    91   33   88 1  
    92   34   89 1  
    93   35   90 1  
    94   35   91 1  
    95   37   92 1  
    96   37   93 1  
    97   37   94 1  
    98   38   95 1  
    99   39   96 1  
   100   42   97 1  
   101   44   98 1  
   102   45   99 1  
   103   46  100 1  
   104   47  101 1  
   105   48  102 1  
   106   49  103 1  
   107   49  104 1  
   108   51  105 1  
   109   51  106 1  
   110   51  107 1  
   111   52  108 1  
   112   53  109 1  
   113   54  110 1  
   114   56  111 1  
@<TRIPOS>SUBSTRUCTURE
     1 NDG         1

