### 
### Created by X-TOOL on Mon Sep 10 21:13:10 2018
### 

@<TRIPOS>MOLECULE
4b9k_ligand
   58    61     1     0     0
SMALL
GAST_HUCK


@<TRIPOS>ATOM
      1 N01        -4.3610   32.9010   -4.3070 N.pl3     1 TG0        -0.3392
      2 C02        -5.5000   33.6220   -3.7890 C.ar      1 TG0         0.0435
      3 C03        -5.6260   33.9800   -2.4210 C.ar      1 TG0        -0.0073
      4 C04        -4.5440   33.6590   -1.4250 C.3       1 TG0        -0.0309
      5 C05        -6.7910   34.6970   -2.0380 C.ar      1 TG0         0.0401
      6 C06        -7.0110   35.1230   -0.6030 C.2       1 TG0         0.2017
      7 N07        -7.4550   34.1190    0.3460 N.am      1 TG0        -0.2498
      8 C08        -7.6940   34.3620    1.7650 C.3       1 TG0         0.1356
      9 C09        -6.4610   34.9100    2.4740 C.2       1 TG0         0.2037
     10 N10        -6.6590   35.8470    3.5490 N.am      1 TG0        -0.2741
     11 C11        -5.4720   36.3080    4.2460 C.3       1 TG0         0.0631
     12 C12        -5.2330   35.3920    5.4450 C.ar      1 TG0        -0.0241
     13 C13        -3.9810   35.4370    6.0880 C.ar      1 TG0        -0.0617
     14 C14        -3.7690   34.6180    7.2060 C.ar      1 TG0        -0.0654
     15 C15        -4.7810   33.7510    7.6650 C.ar      1 TG0        -0.0244
     16 C16        -4.5740   32.9240    8.9120 C.2       1 TG0         0.0479
     17 C17        -4.0370   33.4180   10.1520 C.2       1 TG0         0.0119
     18 C18        -3.5100   34.7910   10.4490 C.3       1 TG0        -0.0271
     19 N19        -4.0420   32.3350   11.1460 N.2       1 TG0        -0.3006
     20 C20        -4.5930   31.1660   10.6520 C.2       1 TG0         0.0738
     21 S21        -5.0320   31.3830    9.1020 S.3       1 TG0        -0.0127
     22 C22        -6.0100   33.6790    6.9990 C.ar      1 TG0        -0.0654
     23 C23        -6.2510   34.5390    5.9260 C.ar      1 TG0        -0.0617
     24 O24        -5.3170   34.5450    2.1710 O.2       1 TG0        -0.3944
     25 C25        -8.0280   33.0510    2.3940 C.3       1 TG0         0.0157
     26 C26        -8.5680   32.3010    1.2460 C.3       1 TG0         0.0798
     27 O27        -9.9100   32.6300    1.0310 O.3       1 TG0        -0.3896
     28 C28        -7.7380   32.7050    0.0560 C.3       1 TG0         0.0621
     29 O29        -6.8350   36.2950   -0.2600 O.2       1 TG0        -0.3884
     30 C30        -7.8170   34.9770   -2.9490 C.ar      1 TG0        -0.0620
     31 C31        -7.6590   34.6270   -4.2920 C.ar      1 TG0        -0.0751
     32 C32        -6.5250   33.9110   -4.6870 C.ar      1 TG0        -0.0467
     33 H1         -4.3138   32.6632   -5.3081 H         1 TG0         0.1697
     34 H2         -3.5958   32.6246   -3.6754 H         1 TG0         0.1697
     35 H3         -3.7379   33.1027   -1.9258 H         1 TG0         0.0378
     36 H4         -4.9629   33.0461   -0.6133 H         1 TG0         0.0378
     37 H5         -4.1404   34.5935   -1.0081 H         1 TG0         0.0378
     38 H6         -8.5290   35.0686    1.8813 H         1 TG0         0.0802
     39 H7         -7.5720   36.1655    3.8038 H         1 TG0         0.1878
     40 H8         -5.6216   37.3415    4.5917 H         1 TG0         0.0679
     41 H9         -4.6052   36.2693    3.5699 H         1 TG0         0.0679
     42 H10        -3.1968   36.0918    5.7258 H         1 TG0         0.0550
     43 H11        -2.8167   34.6519    7.7228 H         1 TG0         0.0568
     44 H12        -3.1747   34.8365   11.4957 H         1 TG0         0.0382
     45 H13        -4.3061   35.5324   10.2865 H         1 TG0         0.0382
     46 H14        -2.6628   35.0107    9.7827 H         1 TG0         0.0382
     47 H15        -4.7141   30.2419   11.2154 H         1 TG0         0.1176
     48 H16        -6.7639   32.9657    7.3119 H         1 TG0         0.0568
     49 H17        -7.2285   34.5523    5.4576 H         1 TG0         0.0550
     50 H18        -8.7807   33.1667    3.1878 H         1 TG0         0.0338
     51 H19        -7.1322   32.5637    2.8063 H         1 TG0         0.0338
     52 H20        -8.4804   31.2189    1.4233 H         1 TG0         0.0616
     53 H21       -10.2405   32.1380    0.2887 H         1 TG0         0.2099
     54 H22        -6.8110   32.1159   -0.0031 H         1 TG0         0.0549
     55 H23        -8.3031   32.5946   -0.8813 H         1 TG0         0.0549
     56 H24        -8.7270   35.4617   -2.6145 H         1 TG0         0.0537
     57 H25        -8.4094   34.9082   -5.0219 H         1 TG0         0.0537
     58 H26        -6.4416   33.5736   -5.7138 H         1 TG0         0.0528
@<TRIPOS>BOND
     1    1    2 1  
     2    2    3 ar 
     3    2   32 ar 
     4    3    4 1  
     5    3    5 ar 
     6    5    6 1  
     7    5   30 ar 
     8    6    7 am 
     9    6   29 2  
    10    7    8 1  
    11    7   28 1  
    12    8    9 1  
    13    8   25 1  
    14    9   10 am 
    15    9   24 2  
    16   10   11 1  
    17   11   12 1  
    18   12   13 ar 
    19   12   23 ar 
    20   13   14 ar 
    21   14   15 ar 
    22   15   16 1  
    23   15   22 ar 
    24   16   17 2  
    25   16   21 1  
    26   17   18 1  
    27   17   19 1  
    28   19   20 2  
    29   20   21 1  
    30   22   23 ar 
    31   25   26 1  
    32   26   27 1  
    33   26   28 1  
    34   30   31 ar 
    35   31   32 ar 
    36    1   33 1  
    37    1   34 1  
    38    4   35 1  
    39    4   36 1  
    40    4   37 1  
    41    8   38 1  
    42   10   39 1  
    43   11   40 1  
    44   11   41 1  
    45   13   42 1  
    46   14   43 1  
    47   18   44 1  
    48   18   45 1  
    49   18   46 1  
    50   20   47 1  
    51   22   48 1  
    52   23   49 1  
    53   25   50 1  
    54   25   51 1  
    55   26   52 1  
    56   27   53 1  
    57   28   54 1  
    58   28   55 1  
    59   30   56 1  
    60   31   57 1  
    61   32   58 1  
@<TRIPOS>SUBSTRUCTURE
     1 TG0         1

