### 
### Created by X-TOOL on Mon Sep 10 21:13:08 2018
### 

@<TRIPOS>MOLECULE
4b9z_ligand
   88    91     1     0     0
SMALL
GAST_HUCK


@<TRIPOS>ATOM
      1 C1A        29.7750   79.8540   34.7220 C.3       1 ACR         0.0141
      2 C2A        28.2370   79.7440   34.6840 C.3       1 ACR         0.1303
      3 C3A        27.5730   80.2720   35.9640 C.3       1 ACR         0.1215
      4 C4A        27.9980   79.4030   37.1360 C.3       1 ACR         0.1112
      5 C5A        29.4860   79.1140   37.1050 C.2       1 ACR        -0.0200
      6 C6A        30.1970   78.7740   38.3930 C.3       1 ACR         0.0719
      7 C7A        30.2180   79.1280   35.9730 C.2       1 ACR        -0.0543
      8 O2A        27.6770   80.3170   33.4950 O.3       1 ACR        -0.3821
      9 O3A        26.1290   80.2210   35.8860 O.3       1 ACR        -0.3843
     10 O4A        27.6640   80.0930   38.3450 O.3       1 ACR        -0.3780
     11 O6A        30.1070   77.3610   38.5920 O.3       1 ACR        -0.3839
     12 C1B        34.6270   82.2180   34.6140 C.3       1 ACR         0.1886
     13 C2B        34.1050   81.1390   33.6640 C.3       1 ACR         0.1370
     14 C3B        32.5950   81.2660   33.4360 C.3       1 ACR         0.1304
     15 C4B        31.8780   81.2620   34.7780 C.3       1 ACR         0.0341
     16 C5B        32.4240   82.4660   35.5500 C.3       1 ACR         0.1038
     17 C6B        31.7050   82.6840   36.8840 C.3       1 ACR        -0.0332
     18 N4B        30.4100   81.1840   34.6340 N.4       1 ACR         0.2433
     19 O2B        34.7710   81.2690   32.4030 O.3       1 ACR        -0.3840
     20 O3B        32.1330   80.1780   32.6250 O.3       1 ACR        -0.3834
     21 O5B        33.8310   82.2740   35.8080 O.3       1 ACR        -0.3401
     22 C1C        36.6320   86.7240   33.1410 C.3       1 ACR         0.1884
     23 C2C        37.2720   85.5150   32.4890 C.3       1 ACR         0.1341
     24 C3C        36.1740   84.4580   32.5290 C.3       1 ACR         0.1144
     25 C4C        35.7500   84.2240   33.9800 C.3       1 ACR         0.1184
     26 C5C        35.5650   85.5120   34.7860 C.3       1 ACR         0.1134
     27 C6C        35.5350   85.1860   36.2780 C.3       1 ACR         0.0730
     28 O2C        37.6800   85.7910   31.1480 O.3       1 ACR        -0.3841
     29 O3C        36.6270   83.2080   32.0070 O.3       1 ACR        -0.3864
     30 O4C        34.5300   83.4850   33.9670 O.3       1 ACR        -0.3401
     31 O5C        36.6210   86.4500   34.5350 O.3       1 ACR        -0.3405
     32 O6C        34.8980   86.2420   36.9930 O.3       1 ACR        -0.3924
     33 C1D        35.7440   91.0270   30.6720 C.3       1 ACR         0.1854
     34 C2D        36.5930   90.0870   29.8290 C.3       1 ACR         0.1339
     35 C3D        37.0620   88.8820   30.6390 C.3       1 ACR         0.1144
     36 C4D        36.4180   88.7470   32.0210 C.3       1 ACR         0.1184
     37 C5D        36.1560   90.0660   32.7490 C.3       1 ACR         0.1134
     38 C6D        36.9340   90.1840   34.0570 C.3       1 ACR         0.0730
     39 O1D        35.6130   92.2840   30.0000 O.3       1 ACR        -0.3649
     40 O2D        35.8630   89.6380   28.6800 O.3       1 ACR        -0.3841
     41 O3D        36.7620   87.7040   29.8780 O.3       1 ACR        -0.3864
     42 O4D        37.2710   87.9540   32.8420 O.3       1 ACR        -0.3401
     43 O5D        36.4270   91.1850   31.9100 O.3       1 ACR        -0.3407
     44 O6D        36.1400   89.7050   35.1480 O.3       1 ACR        -0.3924
     45 H1         30.1469   79.2934   33.8518 H         1 ACR         0.0950
     46 H2         28.0081   78.6689   34.6428 H         1 ACR         0.0694
     47 H3         27.8923   81.3111   36.1318 H         1 ACR         0.0671
     48 H4         27.4510   78.4496   37.0946 H         1 ACR         0.0769
     49 H5         29.7188   79.2997   39.2326 H         1 ACR         0.0706
     50 H6         31.2531   79.0743   38.3261 H         1 ACR         0.0706
     51 H7         31.1674   78.5947   35.9586 H         1 ACR         0.0299
     52 H8         27.7907   81.2600   33.5154 H         1 ACR         0.2103
     53 H9         25.8331   80.7571   35.1597 H         1 ACR         0.2102
     54 H10        27.8954   79.5524   39.0911 H         1 ACR         0.2130
     55 H11        30.5187   76.9127   37.8626 H         1 ACR         0.2125
     56 H12        35.6741   82.0043   34.8746 H         1 ACR         0.0938
     57 H13        34.3204   80.1498   34.0941 H         1 ACR         0.0672
     58 H14        32.3857   82.2138   32.9184 H         1 ACR         0.0679
     59 H15        32.1796   80.3568   35.3254 H         1 ACR         0.0903
     60 H16        32.2904   83.3649   34.9302 H         1 ACR         0.0652
     61 H17        32.1359   83.5581   37.3942 H         1 ACR         0.0257
     62 H18        31.8280   81.7927   37.5168 H         1 ACR         0.0257
     63 H19        30.6346   82.8579   36.6995 H         1 ACR         0.0257
     64 H20        30.0068   81.7573   35.3585 H         1 ACR         0.2029
     65 H21        30.1764   81.5687   33.7321 H         1 ACR         0.2029
     66 H22        34.4734   80.5832   31.8168 H         1 ACR         0.2101
     67 H23        32.5874   80.1911   31.7908 H         1 ACR         0.2102
     68 H24        35.5939   86.8022   32.7857 H         1 ACR         0.0938
     69 H25        38.1470   85.1843   33.0677 H         1 ACR         0.0671
     70 H26        35.3144   84.8103   31.9400 H         1 ACR         0.0648
     71 H27        36.5286   83.6245   34.4743 H         1 ACR         0.0651
     72 H28        34.6081   85.9717   34.4980 H         1 ACR         0.0647
     73 H29        36.5647   85.0659   36.6458 H         1 ACR         0.0584
     74 H30        34.9778   84.2508   36.4358 H         1 ACR         0.0584
     75 H31        36.9357   86.1093   30.6509 H         1 ACR         0.2101
     76 H32        35.9208   82.5740   32.0488 H         1 ACR         0.2100
     77 H33        34.8833   86.0319   37.9194 H         1 ACR         0.2095
     78 H34        34.7468   90.5950   30.8420 H         1 ACR         0.0935
     79 H35        37.4794   90.6405   29.4856 H         1 ACR         0.0671
     80 H36        38.1504   88.9625   30.7767 H         1 ACR         0.0648
     81 H37        35.4541   88.2324   31.8947 H         1 ACR         0.0651
     82 H38        35.0855   90.0901   33.0008 H         1 ACR         0.0647
     83 H39        37.1936   91.2385   34.2318 H         1 ACR         0.0584
     84 H40        37.8548   89.5863   33.9876 H         1 ACR         0.0584
     85 H41        35.1210   92.8847   30.5474 H         1 ACR         0.2126
     86 H42        35.1092   89.1336   28.9624 H         1 ACR         0.2101
     87 H43        37.1111   86.9420   30.3252 H         1 ACR         0.2100
     88 H44        35.9163   88.7938   34.9992 H         1 ACR         0.2095
@<TRIPOS>BOND
     1    1    2 1  
     2    1    7 1  
     3   18    1 1  
     4    2    3 1  
     5    2    8 1  
     6    3    4 1  
     7    3    9 1  
     8    5    4 1  
     9    4   10 1  
    10    5    6 1  
    11    7    5 2  
    12    6   11 1  
    13   12   13 1  
    14   12   21 1  
    15   30   12 1  
    16   13   14 1  
    17   13   19 1  
    18   14   15 1  
    19   14   20 1  
    20   16   15 1  
    21   15   18 1  
    22   16   17 1  
    23   21   16 1  
    24   22   23 1  
    25   22   31 1  
    26   42   22 1  
    27   23   24 1  
    28   23   28 1  
    29   24   25 1  
    30   24   29 1  
    31   26   25 1  
    32   25   30 1  
    33   26   27 1  
    34   31   26 1  
    35   27   32 1  
    36   34   33 1  
    37   33   39 1  
    38   33   43 1  
    39   35   34 1  
    40   34   40 1  
    41   36   35 1  
    42   35   41 1  
    43   36   37 1  
    44   36   42 1  
    45   37   38 1  
    46   37   43 1  
    47   38   44 1  
    48    1   45 1  
    49    2   46 1  
    50    3   47 1  
    51    4   48 1  
    52    6   49 1  
    53    6   50 1  
    54    7   51 1  
    55    8   52 1  
    56    9   53 1  
    57   10   54 1  
    58   11   55 1  
    59   12   56 1  
    60   13   57 1  
    61   14   58 1  
    62   15   59 1  
    63   16   60 1  
    64   17   61 1  
    65   17   62 1  
    66   17   63 1  
    67   18   64 1  
    68   18   65 1  
    69   19   66 1  
    70   20   67 1  
    71   22   68 1  
    72   23   69 1  
    73   24   70 1  
    74   25   71 1  
    75   26   72 1  
    76   27   73 1  
    77   27   74 1  
    78   28   75 1  
    79   29   76 1  
    80   32   77 1  
    81   33   78 1  
    82   34   79 1  
    83   35   80 1  
    84   36   81 1  
    85   37   82 1  
    86   38   83 1  
    87   38   84 1  
    88   39   85 1  
    89   40   86 1  
    90   41   87 1  
    91   44   88 1  
@<TRIPOS>SUBSTRUCTURE
     1 ACR         1

