### 
### Created by X-TOOL on Mon Sep 10 21:13:14 2018
### 

@<TRIPOS>MOLECULE
4bae_ligand
   53    56     1     0     0
SMALL
GAST_HUCK


@<TRIPOS>ATOM
      1 C28         9.2750   -5.5000  -24.2990 C.2       1 RWX         0.0590
      2 C3          4.4610   -4.6790  -10.3660 C.2       1 RWX         0.0328
      3 C4          4.9880   -4.8030  -11.6800 C.2       1 RWX         0.0160
      4 C20         6.5570   -4.7910  -22.1540 C.2       1 RWX         0.0761
      5 C5          4.5440   -3.7190  -12.4190 C.2       1 RWX         0.1266
      6 C21         5.2940   -4.4230  -22.5600 C.2       1 RWX         0.0916
      7 C2          3.7120   -3.5270  -10.3170 C.2       1 RWX         0.0556
      8 C26         7.5970   -5.2960  -23.0690 C.2       1 RWX         0.1619
      9 C18         5.7440   -4.2840  -20.1540 C.2       1 RWX         0.1901
     10 C7          4.7410   -3.2760  -13.7680 C.2       1 RWX         0.2129
     11 C23         4.7010   -4.3910  -23.8590 C.2       1 RWX         0.0702
     12 C11         4.4570   -3.4890  -16.8590 C.3       1 RWX        -0.0062
     13 C12         4.8290   -3.1010  -18.2740 C.3       1 RWX         0.0391
     14 C14         6.9690   -4.2480  -18.1010 C.3       1 RWX         0.0652
     15 C10         5.6840   -3.7870  -16.0100 C.3       1 RWX         0.0709
     16 C15         6.6850   -4.7360  -16.6840 C.3       1 RWX         0.1020
     17 C1          2.9400   -2.9240   -9.2180 C.3       1 RWX        -0.0065
     18 C31         6.7540   -7.6820  -23.3260 C.3       1 RWX         0.0624
     19 C17         7.0860   -6.9870  -16.1410 C.3       1 RWX         0.0370
     20 N27         8.6120   -4.5910  -23.5160 N.2       1 RWX        -0.2894
     21 N29         8.7340   -6.7230  -24.3550 N.2       1 RWX        -0.1933
     22 N19         6.8000   -4.7170  -20.8080 N.2       1 RWX        -0.2979
     23 N6          3.7660   -2.9870  -11.5650 N.pl3     1 RWX        -0.2713
     24 N30         7.6640   -6.5710  -23.5630 N.pl3     1 RWX        -0.1813
     25 N13         5.6930   -4.1430  -18.8000 N.pl3     1 RWX        -0.2654
     26 N9          5.3460   -4.1530  -14.6480 N.am      1 RWX        -0.2823
     27 O8          4.3740   -2.1540  -14.0880 O.2       1 RWX        -0.3941
     28 O24         3.6100   -4.8560  -24.1530 O.co2     1 RWX        -0.5630
     29 O25         5.5300   -3.7740  -24.7460 O.co2     1 RWX        -0.5630
     30 O16         6.1790   -6.0760  -16.7570 O.3       1 RWX        -0.3754
     31 S22         4.3950   -3.9580  -21.1760 S.3       1 RWX         0.0371
     32 CL3         4.7280   -5.7080   -9.0370 Cl        1 RWX        -0.1125
     33 BR3         6.1340   -6.2370  -12.2210 Br        1 RWX        -0.0766
     34 H          10.1840   -5.2435  -24.8410 H         1 RWX         0.0866
     35 H           3.8212   -4.3860  -16.8919 H         1 RWX         0.0308
     36 H           3.8988   -2.6606  -16.3984 H         1 RWX         0.0308
     37 H           5.3606   -2.1380  -18.2719 H         1 RWX         0.0533
     38 H           3.9223   -3.0180  -18.8913 H         1 RWX         0.0533
     39 H           7.6221   -4.9650  -18.6200 H         1 RWX         0.0559
     40 H           7.4591   -3.2638  -18.0668 H         1 RWX         0.0559
     41 H           6.2159   -2.8279  -15.9255 H         1 RWX         0.0581
     42 H           7.6190   -4.7374  -16.1029 H         1 RWX         0.0640
     43 H           2.4717   -1.9920   -9.5672 H         1 RWX         0.0425
     44 H           3.6122   -2.7033   -8.3757 H         1 RWX         0.0425
     45 H           2.1593   -3.6261   -8.8900 H         1 RWX         0.0425
     46 H           7.1040   -8.5668  -23.8780 H         1 RWX         0.0597
     47 H           5.7455   -7.4100  -23.6709 H         1 RWX         0.0597
     48 H           6.7248   -7.9090  -22.2501 H         1 RWX         0.0597
     49 H           6.6815   -8.0078  -16.2067 H         1 RWX         0.0524
     50 H           7.2198   -6.7130  -15.0841 H         1 RWX         0.0524
     51 H           8.0566   -6.9433  -16.6568 H         1 RWX         0.0524
     52 H           3.2754   -2.1229  -11.8363 H         1 RWX         0.2353
     53 H           5.5595   -5.0777  -14.3328 H         1 RWX         0.1839
@<TRIPOS>BOND
     1   20    1 1  
     2    1   21 2  
     3    3    2 1  
     4    7    2 2  
     5    2   32 1  
     6    5    3 2  
     7    3   33 1  
     8    6    4 2  
     9    4    8 1  
    10   22    4 1  
    11   10    5 1  
    12    5   23 1  
    13    6   11 1  
    14   31    6 1  
    15    7   17 1  
    16   23    7 1  
    17    8   20 2  
    18    8   24 1  
    19    9   22 2  
    20   25    9 1  
    21    9   31 1  
    22   26   10 am 
    23   10   27 2  
    24   11   28 ar 
    25   11   29 ar 
    26   12   13 1  
    27   15   12 1  
    28   13   25 1  
    29   16   14 1  
    30   14   25 1  
    31   15   16 1  
    32   15   26 1  
    33   16   30 1  
    34   24   18 1  
    35   30   19 1  
    36   21   24 1  
    37    1   34 1  
    38   12   35 1  
    39   12   36 1  
    40   13   37 1  
    41   13   38 1  
    42   14   39 1  
    43   14   40 1  
    44   15   41 1  
    45   16   42 1  
    46   17   43 1  
    47   17   44 1  
    48   17   45 1  
    49   18   46 1  
    50   18   47 1  
    51   18   48 1  
    52   19   49 1  
    53   19   50 1  
    54   19   51 1  
    55   23   52 1  
    56   26   53 1  
@<TRIPOS>SUBSTRUCTURE
     1 RWX         1

