### 
### Created by X-TOOL on Mon Sep 10 21:13:12 2018
### 

@<TRIPOS>MOLECULE
4bah_ligand
   63    65     1     0     0
SMALL
GAST_HUCK


@<TRIPOS>ATOM
      1 C1         18.8170  -14.4230   24.3390 C.3       1 MEL         0.0196
      2 C2         19.0530  -15.7530   25.0720 C.3       1 MEL        -0.0429
      3 C3         19.5190  -15.4480   26.5040 C.3       1 MEL        -0.0525
      4 C4         20.8090  -14.6100   26.5010 C.3       1 MEL        -0.0530
      5 C5         20.6120  -13.2860   25.7470 C.3       1 MEL        -0.0525
      6 C6         20.1140  -13.5790   24.3180 C.3       1 MEL        -0.0429
      7 N7         17.0340  -15.4950   22.9870 N.4       1 MEL         0.2579
      8 C8         18.2790  -14.6860   22.9180 C.3       1 MEL         0.0711
      9 C9         17.9420  -13.3730   22.2630 C.2       1 MEL         0.2296
     10 O0         16.8930  -12.8090   22.5600 O.2       1 MEL        -0.3905
     11 N11        18.7350  -12.7990   21.3370 N.am      1 MEL        -0.2468
     12 C12        18.5020  -11.6230   20.4940 C.3       1 MEL         0.1357
     13 C13        17.1070  -11.7900   19.9020 C.2       1 MEL         0.2038
     14 O14        16.7900  -12.8720   19.4230 O.2       1 MEL        -0.3944
     15 N15        16.1760  -10.8150   20.0040 N.am      1 MEL        -0.2737
     16 C16        14.8250  -11.0780   19.4730 C.3       1 MEL         0.0645
     17 C17        13.8440  -11.0140   20.6130 C.ar      1 MEL        -0.0210
     18 C18        13.4640  -12.1670   21.2840 C.ar      1 MEL        -0.0584
     19 C19        12.5810  -12.0810   22.3580 C.ar      1 MEL        -0.0633
     20 C20        12.0990  -10.8210   22.7640 C.ar      1 MEL         0.0188
     21 C21        12.4940   -9.6610   22.0740 C.ar      1 MEL        -0.0633
     22 C22        13.3900   -9.7690   21.0310 C.ar      1 MEL        -0.0584
     23 C23        11.1190  -10.7320   23.8780 C.cat     1 MEL         0.2318
     24 N24        10.8890   -9.5960   24.4700 N.pl3     1 MEL        -0.2729
     25 N25        10.3990  -11.8540   24.2650 N.pl3     1 MEL        -0.2729
     26 C26        19.6700  -12.0180   19.5700 C.3       1 MEL         0.0084
     27 C27        19.9900  -13.0980   20.6110 C.3       1 MEL         0.0411
     28 C28        16.3970  -15.8260   21.6860 C.3       1 MEL         0.0214
     29 C29        14.9890  -16.3550   21.8810 C.2       1 MEL         0.0813
     30 O30        14.5300  -16.5920   22.9810 O.co2     1 MEL        -0.5645
     31 O31        14.2300  -16.5970   20.8100 O.co2     1 MEL        -0.5645
     32 H1         18.0532  -13.8560   24.8914 H         1 MEL         0.0381
     33 H2         19.8257  -16.3335   24.5467 H         1 MEL         0.0271
     34 H3         18.1174  -16.3306   25.1020 H         1 MEL         0.0271
     35 H4         19.7077  -16.3956   27.0297 H         1 MEL         0.0265
     36 H5         18.7291  -14.8893   27.0273 H         1 MEL         0.0265
     37 H6         21.6090  -15.1853   26.0121 H         1 MEL         0.0265
     38 H7         21.0969  -14.3914   27.5399 H         1 MEL         0.0265
     39 H8         21.5688  -12.7456   25.6984 H         1 MEL         0.0265
     40 H9         19.8693  -12.6700   26.2752 H         1 MEL         0.0265
     41 H10        19.9139  -12.6265   23.8055 H         1 MEL         0.0271
     42 H11        20.8931  -14.1321   23.7730 H         1 MEL         0.0271
     43 H12        16.3630  -14.9815   23.5367 H         1 MEL         0.2049
     44 H13        17.2553  -16.3620   23.4510 H         1 MEL         0.2049
     45 H14        19.0393  -15.2181   22.3274 H         1 MEL         0.1102
     46 H15        18.6190  -10.6419   20.9774 H         1 MEL         0.0803
     47 H16        16.3977   -9.9373   20.4289 H         1 MEL         0.1878
     48 H17        14.7948  -12.0767   19.0130 H         1 MEL         0.0683
     49 H18        14.5681  -10.3192   18.7192 H         1 MEL         0.0683
     50 H19        13.8523  -13.1304   20.9741 H         1 MEL         0.0557
     51 H20        12.2666  -12.9784   22.8784 H         1 MEL         0.0599
     52 H21        12.0986   -8.6927   22.3587 H         1 MEL         0.0599
     53 H22        13.7435   -8.8738   20.5324 H         1 MEL         0.0557
     54 H23        10.2078   -9.5457   25.2409 H         1 MEL         0.3180
     55 H24        11.3882   -8.7473   24.1676 H         1 MEL         0.3180
     56 H25        10.5704  -12.7597   23.8053 H         1 MEL         0.3180
     57 H26         9.6934  -11.7808   25.0118 H         1 MEL         0.3180
     58 H27        20.4455  -11.2477   19.4470 H         1 MEL         0.0332
     59 H28        19.3719  -12.3993   18.5822 H         1 MEL         0.0332
     60 H29        20.0344  -14.1164   20.1978 H         1 MEL         0.0526
     61 H30        20.9010  -12.8990   21.1945 H         1 MEL         0.0526
     62 H31        17.0001  -16.5917   21.1762 H         1 MEL         0.0989
     63 H32        16.3561  -14.9185   21.0658 H         1 MEL         0.0989
@<TRIPOS>BOND
     1    1    2 1  
     2    1    6 1  
     3    1    8 1  
     4    2    3 1  
     5    3    4 1  
     6    4    5 1  
     7    5    6 1  
     8    8    7 1  
     9    7   28 1  
    10    8    9 1  
    11    9   10 2  
    12    9   11 am 
    13   11   12 1  
    14   11   27 1  
    15   12   13 1  
    16   12   26 1  
    17   13   14 2  
    18   13   15 am 
    19   15   16 1  
    20   16   17 1  
    21   17   18 ar 
    22   17   22 ar 
    23   18   19 ar 
    24   19   20 ar 
    25   20   21 ar 
    26   20   23 1  
    27   21   22 ar 
    28   23   24 ar 
    29   23   25 ar 
    30   26   27 1  
    31   28   29 1  
    32   29   30 ar 
    33   29   31 ar 
    34    1   32 1  
    35    2   33 1  
    36    2   34 1  
    37    3   35 1  
    38    3   36 1  
    39    4   37 1  
    40    4   38 1  
    41    5   39 1  
    42    5   40 1  
    43    6   41 1  
    44    6   42 1  
    45    7   43 1  
    46    7   44 1  
    47    8   45 1  
    48   12   46 1  
    49   15   47 1  
    50   16   48 1  
    51   16   49 1  
    52   18   50 1  
    53   19   51 1  
    54   21   52 1  
    55   22   53 1  
    56   24   54 1  
    57   24   55 1  
    58   25   56 1  
    59   25   57 1  
    60   26   58 1  
    61   26   59 1  
    62   27   60 1  
    63   27   61 1  
    64   28   62 1  
    65   28   63 1  
@<TRIPOS>SUBSTRUCTURE
     1 MEL         1

