### 
### Created by X-TOOL on Mon Sep 10 21:13:13 2018
### 

@<TRIPOS>MOLECULE
4bak_ligand
   74    76     1     0     0
SMALL
GAST_HUCK


@<TRIPOS>ATOM
      1 C1         12.2020  -14.9350   19.4280 C.3       1 M67        -0.0635
      2 C2         12.0870  -15.8450   20.6530 C.3       1 M67        -0.0356
      3 C3         13.0710  -17.0160   20.5520 C.3       1 M67         0.0308
      4 N4         14.4570  -16.5260   20.6160 N.am      1 M67        -0.2826
      5 C5         15.0830  -16.2070   21.7670 C.2       1 M67         0.2215
      6 O6         14.5200  -16.3220   22.8490 O.2       1 M67        -0.3912
      7 C7         16.5080  -15.7250   21.6520 C.3       1 M67         0.0582
      8 N8         17.0910  -15.4080   22.9770 N.4       1 M67         0.2630
      9 C9         18.3430  -14.6140   22.9310 C.3       1 M67         0.0716
     10 C11        18.8730  -14.3340   24.3520 C.3       1 M67         0.0196
     11 C12        19.1140  -15.6620   25.0910 C.3       1 M67        -0.0429
     12 C13        19.6460  -15.3870   26.5060 C.3       1 M67        -0.0525
     13 C14        20.9690  -14.6080   26.4450 C.3       1 M67        -0.0530
     14 C15        20.7810  -13.2760   25.7050 C.3       1 M67        -0.0525
     15 C16        20.1910  -13.5270   24.3030 C.3       1 M67        -0.0429
     16 C17        18.0160  -13.3180   22.2410 C.2       1 M67         0.2296
     17 O18        16.9410  -12.7670   22.4860 O.2       1 M67        -0.3905
     18 N19        18.8320  -12.7660   21.3190 N.am      1 M67        -0.2468
     19 C20        20.1090  -13.0610   20.6390 C.3       1 M67         0.0411
     20 C21        19.7980  -12.0240   19.5530 C.3       1 M67         0.0084
     21 C22        18.6350  -11.5930   20.4600 C.3       1 M67         0.1357
     22 C24        17.2470  -11.7400   19.8720 C.2       1 M67         0.2038
     23 O25        16.9370  -12.8030   19.3720 O.2       1 M67        -0.3944
     24 N26        16.3190  -10.7780   20.0260 N.am      1 M67        -0.2737
     25 C27        14.9780  -11.0060   19.4760 C.3       1 M67         0.0645
     26 C28        13.9980  -10.9420   20.6110 C.ar      1 M67        -0.0210
     27 C29        13.7170  -12.0860   21.3400 C.ar      1 M67        -0.0584
     28 C30        12.8140  -12.0210   22.3880 C.ar      1 M67        -0.0633
     29 C31        12.2070  -10.7950   22.7170 C.ar      1 M67         0.0188
     30 C32        12.4930   -9.6410   21.9700 C.ar      1 M67        -0.0633
     31 C33        13.4110   -9.7240   20.9350 C.ar      1 M67        -0.0584
     32 C34        11.2070  -10.7410   23.8140 C.cat     1 M67         0.2318
     33 N35        10.5160  -11.8100   24.1380 N.pl3     1 M67        -0.2729
     34 N36        10.9460   -9.5540   24.4550 N.pl3     1 M67        -0.2729
     35 H1         11.4885  -14.1030   19.5211 H         1 M67         0.0230
     36 H2         11.9754  -15.5125   18.5196 H         1 M67         0.0230
     37 H3         13.2247  -14.5353   19.3628 H         1 M67         0.0230
     38 H4         11.0619  -16.2391   20.7152 H         1 M67         0.0282
     39 H5         12.3113  -15.2619   21.5584 H         1 M67         0.0282
     40 H6         12.9151  -17.5396   19.5973 H         1 M67         0.0520
     41 H7         12.8935  -17.7119   21.3851 H         1 M67         0.0520
     42 H8         14.9623  -16.4240   19.7591 H         1 M67         0.1852
     43 H9         16.5281  -14.8191   21.0284 H         1 M67         0.1062
     44 H10        17.1124  -16.5113   21.1761 H         1 M67         0.1062
     45 H11        17.2876  -16.2766   23.4492 H         1 M67         0.2055
     46 H12        16.4079  -14.8863   23.5036 H         1 M67         0.2055
     47 H13        19.1089  -15.1603   22.3610 H         1 M67         0.1102
     48 H14        18.1198  -13.7497   24.9008 H         1 M67         0.0381
     49 H15        19.8508  -16.2600   24.5347 H         1 M67         0.0271
     50 H16        18.1672  -16.2178   25.1595 H         1 M67         0.0271
     51 H17        19.8137  -16.3442   27.0215 H         1 M67         0.0265
     52 H18        18.9039  -14.7958   27.0626 H         1 M67         0.0265
     53 H19        21.7199  -15.2125   25.9151 H         1 M67         0.0265
     54 H20        21.3168  -14.4062   27.4689 H         1 M67         0.0265
     55 H21        21.7550  -12.7746   25.6053 H         1 M67         0.0265
     56 H22        20.0955  -12.6348   26.2786 H         1 M67         0.0265
     57 H23        19.9930  -12.5565   23.8245 H         1 M67         0.0271
     58 H24        20.9258  -14.0871   23.7060 H         1 M67         0.0271
     59 H25        20.1854  -14.0916   20.2621 H         1 M67         0.0526
     60 H26        20.9991  -12.8234   21.2400 H         1 M67         0.0526
     61 H27        19.4995  -12.4432   18.5808 H         1 M67         0.0332
     62 H28        20.5764  -11.2619   19.4003 H         1 M67         0.0332
     63 H29        18.7707  -10.6086   20.9316 H         1 M67         0.0803
     64 H30        16.5381   -9.9275   20.5041 H         1 M67         0.1878
     65 H31        14.9330  -11.9959   18.9985 H         1 M67         0.0683
     66 H32        14.7414  -10.2297   18.7335 H         1 M67         0.0683
     67 H33        14.1999  -13.0243   21.0922 H         1 M67         0.0557
     68 H34        12.5750  -12.9139   22.9543 H         1 M67         0.0599
     69 H35        12.0040   -8.7010   22.1990 H         1 M67         0.0599
     70 H36        13.6730   -8.8338   20.3746 H         1 M67         0.0557
     71 H37         9.8243  -11.7648   24.8999 H         1 M67         0.3180
     72 H38        10.6658  -12.6935   23.6302 H         1 M67         0.3180
     73 H39        11.4806   -8.7082   24.2104 H         1 M67         0.3180
     74 H40        10.2158   -9.5100   25.1801 H         1 M67         0.3180
@<TRIPOS>BOND
     1    1    2 1  
     2    2    3 1  
     3    3    4 1  
     4    4    5 am 
     5    5    6 2  
     6    5    7 1  
     7    7    8 1  
     8    8    9 1  
     9    9   10 1  
    10    9   16 1  
    11   10   11 1  
    12   10   15 1  
    13   11   12 1  
    14   12   13 1  
    15   13   14 1  
    16   14   15 1  
    17   16   17 2  
    18   16   18 am 
    19   18   19 1  
    20   18   21 1  
    21   19   20 1  
    22   20   21 1  
    23   21   22 1  
    24   22   23 2  
    25   22   24 am 
    26   24   25 1  
    27   25   26 1  
    28   26   27 ar 
    29   26   31 ar 
    30   27   28 ar 
    31   28   29 ar 
    32   29   30 ar 
    33   29   32 1  
    34   30   31 ar 
    35   32   33 ar 
    36   32   34 ar 
    37    1   35 1  
    38    1   36 1  
    39    1   37 1  
    40    2   38 1  
    41    2   39 1  
    42    3   40 1  
    43    3   41 1  
    44    4   42 1  
    45    7   43 1  
    46    7   44 1  
    47    8   45 1  
    48    8   46 1  
    49    9   47 1  
    50   10   48 1  
    51   11   49 1  
    52   11   50 1  
    53   12   51 1  
    54   12   52 1  
    55   13   53 1  
    56   13   54 1  
    57   14   55 1  
    58   14   56 1  
    59   15   57 1  
    60   15   58 1  
    61   19   59 1  
    62   19   60 1  
    63   20   61 1  
    64   20   62 1  
    65   21   63 1  
    66   24   64 1  
    67   25   65 1  
    68   25   66 1  
    69   27   67 1  
    70   28   68 1  
    71   30   69 1  
    72   31   70 1  
    73   33   71 1  
    74   33   72 1  
    75   34   73 1  
    76   34   74 1  
@<TRIPOS>SUBSTRUCTURE
     1 M67         1

