### 
### Created by X-TOOL on Mon Sep 10 21:13:13 2018
### 

@<TRIPOS>MOLECULE
4bam_ligand
   71    73     1     0     0
SMALL
GAST_HUCK


@<TRIPOS>ATOM
      1 C1         18.7580  -14.4100   24.2350 C.3       1 MM9         0.0196
      2 C2         18.8850  -15.7670   24.9610 C.3       1 MM9        -0.0429
      3 C3         19.4730  -15.5880   26.3700 C.3       1 MM9        -0.0525
      4 C4         20.8280  -14.8600   26.3120 C.3       1 MM9        -0.0530
      5 C5         20.6840  -13.4900   25.6230 C.3       1 MM9        -0.0525
      6 C6         20.1280  -13.6970   24.2010 C.3       1 MM9        -0.0429
      7 N7         16.9340  -15.3900   22.8200 N.4       1 MM9         0.2630
      8 C8         18.2000  -14.6130   22.8030 C.3       1 MM9         0.0716
      9 C9         17.9120  -13.2740   22.1670 C.2       1 MM9         0.2296
     10 O0         16.8690  -12.6920   22.4490 O.2       1 MM9        -0.3905
     11 N11        18.7370  -12.6980   21.2700 N.am      1 MM9        -0.2468
     12 C12        18.5550  -11.5070   20.4350 C.3       1 MM9         0.1357
     13 C13        17.1810  -11.6540   19.8010 C.2       1 MM9         0.2038
     14 O14        16.8790  -12.6960   19.2430 O.2       1 MM9        -0.3944
     15 N15        16.2590  -10.6940   19.9950 N.am      1 MM9        -0.2737
     16 C16        14.9020  -10.8410   19.4620 C.3       1 MM9         0.0645
     17 C17        13.9440  -10.8230   20.6240 C.ar      1 MM9        -0.0210
     18 C18        13.3340   -9.6230   20.9720 C.ar      1 MM9        -0.0584
     19 C19        12.4450   -9.5740   22.0260 C.ar      1 MM9        -0.0633
     20 C20        12.2150  -10.7340   22.7870 C.ar      1 MM9         0.0188
     21 C21        12.8420  -11.9450   22.4370 C.ar      1 MM9        -0.0633
     22 C22        13.7010  -11.9780   21.3440 C.ar      1 MM9        -0.0584
     23 C23        11.2270  -10.6890   23.8950 C.cat     1 MM9         0.2318
     24 N24        10.9340   -9.5600   24.4770 N.pl3     1 MM9        -0.2729
     25 N25        10.5360  -11.8340   24.2760 N.pl3     1 MM9        -0.2729
     26 C26        19.7440  -11.8950   19.5470 C.3       1 MM9         0.0084
     27 C27        19.9830  -13.0310   20.5500 C.3       1 MM9         0.0411
     28 C28        16.3400  -15.6770   21.4820 C.3       1 MM9         0.0584
     29 C10        14.6100  -15.5200   19.0600 C.3       1 MM9         0.0224
     30 C29        14.8200  -15.6910   21.5430 C.2       1 MM9         0.2235
     31 O30        14.2730  -15.7660   22.6390 O.2       1 MM9        -0.3910
     32 C30        12.5630  -15.5960   20.5270 C.3       1 MM9         0.0224
     33 N2         14.0380  -15.6080   20.4160 N.am      1 MM9        -0.2750
     34 H1         18.0521  -13.7789   24.7948 H         1 MM9         0.0381
     35 H2         19.5446  -16.4262   24.3776 H         1 MM9         0.0271
     36 H3         17.8883  -16.2251   25.0432 H         1 MM9         0.0271
     37 H4         19.6153  -16.5774   26.8291 H         1 MM9         0.0265
     38 H5         18.7731  -14.9979   26.9799 H         1 MM9         0.0265
     39 H6         21.5437  -15.4746   25.7463 H         1 MM9         0.0265
     40 H7         21.2015  -14.7112   27.3359 H         1 MM9         0.0265
     41 H8         21.6677  -13.0009   25.5663 H         1 MM9         0.0265
     42 H9         19.9930  -12.8581   26.2003 H         1 MM9         0.0265
     43 H10        20.0105  -12.7169   23.7156 H         1 MM9         0.0271
     44 H11        20.8369  -14.3092   23.6242 H         1 MM9         0.0271
     45 H12        16.2570  -14.8693   23.3553 H         1 MM9         0.2055
     46 H13        17.1162  -16.2710   23.2746 H         1 MM9         0.2055
     47 H14        18.9484  -15.1518   22.2033 H         1 MM9         0.1102
     48 H15        18.6660  -10.5343   20.9365 H         1 MM9         0.0803
     49 H16        16.5023   -9.8711   20.5085 H         1 MM9         0.1878
     50 H17        14.8144  -11.7943   18.9202 H         1 MM9         0.0683
     51 H18        14.6766  -10.0089   18.7788 H         1 MM9         0.0683
     52 H19        13.5579   -8.7218   20.4127 H         1 MM9         0.0557
     53 H20        11.9292   -8.6510   22.2650 H         1 MM9         0.0599
     54 H21        12.6568  -12.8436   23.0144 H         1 MM9         0.0599
     55 H22        14.1792  -12.9075   21.0570 H         1 MM9         0.0557
     56 H23        10.2475   -9.5392   25.2445 H         1 MM9         0.3180
     57 H24        11.3890   -8.6887   24.1693 H         1 MM9         0.3180
     58 H25        10.7505  -12.7373   23.8300 H         1 MM9         0.3180
     59 H26         9.8097  -11.7788   25.0042 H         1 MM9         0.3180
     60 H27        20.5477  -11.1459   19.4933 H         1 MM9         0.0332
     61 H28        19.4780  -12.2209   18.5306 H         1 MM9         0.0332
     62 H29        19.9798  -14.0329   20.0959 H         1 MM9         0.0526
     63 H30        20.8931  -12.9056   21.1550 H         1 MM9         0.0526
     64 H31        16.6937  -16.6595   21.1363 H         1 MM9         0.1063
     65 H32        16.6629  -14.9007   20.7727 H         1 MM9         0.1063
     66 H33        13.7964  -15.4633   18.3219 H         1 MM9         0.0486
     67 H34        15.2231  -16.4116   18.8621 H         1 MM9         0.0486
     68 H35        15.2372  -14.6195   18.9843 H         1 MM9         0.0486
     69 H36        12.2744  -15.6669   21.5861 H         1 MM9         0.0486
     70 H37        12.1468  -16.4520   19.9756 H         1 MM9         0.0486
     71 H38        12.1709  -14.6603   20.1020 H         1 MM9         0.0486
@<TRIPOS>BOND
     1    1    2 1  
     2    1    6 1  
     3    8    1 1  
     4    2    3 1  
     5    3    4 1  
     6    5    4 1  
     7    6    5 1  
     8    7    8 1  
     9   28    7 1  
    10    8    9 1  
    11    9   10 2  
    12    9   11 am 
    13   11   12 1  
    14   11   27 1  
    15   12   13 1  
    16   12   26 1  
    17   13   14 2  
    18   13   15 am 
    19   15   16 1  
    20   16   17 1  
    21   17   18 ar 
    22   17   22 ar 
    23   18   19 ar 
    24   19   20 ar 
    25   21   20 ar 
    26   20   23 1  
    27   22   21 ar 
    28   23   24 ar 
    29   23   25 ar 
    30   27   26 1  
    31   30   28 1  
    32   33   29 1  
    33   30   31 2  
    34   30   33 am 
    35   33   32 1  
    36    1   34 1  
    37    2   35 1  
    38    2   36 1  
    39    3   37 1  
    40    3   38 1  
    41    4   39 1  
    42    4   40 1  
    43    5   41 1  
    44    5   42 1  
    45    6   43 1  
    46    6   44 1  
    47    7   45 1  
    48    7   46 1  
    49    8   47 1  
    50   12   48 1  
    51   15   49 1  
    52   16   50 1  
    53   16   51 1  
    54   18   52 1  
    55   19   53 1  
    56   21   54 1  
    57   22   55 1  
    58   24   56 1  
    59   24   57 1  
    60   25   58 1  
    61   25   59 1  
    62   26   60 1  
    63   26   61 1  
    64   27   62 1  
    65   27   63 1  
    66   28   64 1  
    67   28   65 1  
    68   29   66 1  
    69   29   67 1  
    70   29   68 1  
    71   32   69 1  
    72   32   70 1  
    73   32   71 1  
@<TRIPOS>SUBSTRUCTURE
     1 MM9         1

