### 
### Created by X-TOOL on Mon Sep 10 21:13:13 2018
### 

@<TRIPOS>MOLECULE
4ban_ligand
   68    70     1     0     0
SMALL
GAST_HUCK


@<TRIPOS>ATOM
      1 C1         18.7550  -14.5330   24.3130 C.3       1 M6S         0.0196
      2 C2         18.9820  -15.9020   24.9910 C.3       1 M6S        -0.0429
      3 C3         19.5380  -15.7040   26.4150 C.3       1 M6S        -0.0525
      4 C4         20.8480  -14.8930   26.3990 C.3       1 M6S        -0.0530
      5 C5         20.6360  -13.5210   25.7340 C.3       1 M6S        -0.0525
      6 C6         20.0780  -13.7220   24.3110 C.3       1 M6S        -0.0429
      7 N7         16.9120  -15.4810   22.9110 N.4       1 M6S         0.2630
      8 C8         18.1870  -14.7150   22.8850 C.3       1 M6S         0.0716
      9 C9         17.8930  -13.3740   22.2670 C.2       1 M6S         0.2296
     10 O0         16.8400  -12.8000   22.5530 O.2       1 M6S        -0.3905
     11 N11        18.7300  -12.7970   21.3670 N.am      1 M6S        -0.2468
     12 C12        18.5620  -11.5920   20.5480 C.3       1 M6S         0.1357
     13 C13        17.1940  -11.7130   19.9190 C.2       1 M6S         0.2038
     14 O14        16.9030  -12.7360   19.3270 O.2       1 M6S        -0.3944
     15 N15        16.2630  -10.7680   20.1290 N.am      1 M6S        -0.2737
     16 C16        14.9340  -10.9720   19.5560 C.3       1 M6S         0.0645
     17 C17        13.9560  -10.9430   20.6920 C.ar      1 M6S        -0.0210
     18 C18        13.4490   -9.7210   21.0990 C.ar      1 M6S        -0.0584
     19 C19        12.5350   -9.6630   22.1360 C.ar      1 M6S        -0.0633
     20 C20        12.1730  -10.8340   22.8130 C.ar      1 M6S         0.0188
     21 C21        12.7020  -12.0710   22.3980 C.ar      1 M6S        -0.0633
     22 C22        13.5990  -12.1160   21.3380 C.ar      1 M6S        -0.0584
     23 C23        11.1560  -10.7780   23.9000 C.cat     1 M6S         0.2318
     24 N24        10.4320  -11.8410   24.1870 N.pl3     1 M6S        -0.2729
     25 N25        10.8940   -9.5970   24.5570 N.pl3     1 M6S        -0.2729
     26 C26        19.7500  -11.9790   19.6520 C.3       1 M6S         0.0084
     27 C27        19.9870  -13.1160   20.6570 C.3       1 M6S         0.0411
     28 C28        16.3280  -15.8450   21.5910 C.3       1 M6S         0.0582
     29 C29        14.8150  -15.9560   21.6790 C.2       1 M6S         0.2213
     30 O30        14.2850  -16.3140   22.7220 O.2       1 M6S        -0.3912
     31 C10        12.5900  -15.6930   20.5780 C.3       1 M6S         0.0197
     32 N2         14.0640  -15.6410   20.5900 N.am      1 M6S        -0.2857
     33 H1         18.0132  -13.9744   24.9027 H         1 M6S         0.0381
     34 H2         19.7009  -16.4866   24.3981 H         1 M6S         0.0271
     35 H3         18.0260  -16.4434   25.0461 H         1 M6S         0.0271
     36 H4         19.7326  -16.6894   26.8635 H         1 M6S         0.0265
     37 H5         18.7919  -15.1669   27.0191 H         1 M6S         0.0265
     38 H6         21.6108  -15.4517   25.8369 H         1 M6S         0.0265
     39 H7         21.1914  -14.7428   27.4332 H         1 M6S         0.0265
     40 H8         21.5963  -12.9873   25.6795 H         1 M6S         0.0265
     41 H9         19.9221  -12.9316   26.3281 H         1 M6S         0.0265
     42 H10        19.8892  -12.7360   23.8614 H         1 M6S         0.0271
     43 H11        20.8245  -14.2622   23.7102 H         1 M6S         0.0271
     44 H12        16.2309  -14.9252   23.4042 H         1 M6S         0.2055
     45 H13        17.0788  -16.3360   23.4181 H         1 M6S         0.2055
     46 H14        18.9260  -15.2517   22.2720 H         1 M6S         0.1102
     47 H15        18.6841  -10.6281   21.0636 H         1 M6S         0.0803
     48 H16        16.4731   -9.9484   20.6621 H         1 M6S         0.1878
     49 H17        14.8889  -11.9445   19.0439 H         1 M6S         0.0683
     50 H18        14.7044  -10.1693   18.8397 H         1 M6S         0.0683
     51 H19        13.7679   -8.8100   20.6055 H         1 M6S         0.0557
     52 H20        12.0999   -8.7128   22.4239 H         1 M6S         0.0599
     53 H21        12.4106  -12.9846   22.9035 H         1 M6S         0.0599
     54 H22        14.0174  -13.0634   21.0180 H         1 M6S         0.0557
     55 H23         9.7299  -11.7981   24.9394 H         1 M6S         0.3180
     56 H24        10.5683  -12.7148   23.6590 H         1 M6S         0.3180
     57 H25        11.4496   -8.7559   24.3457 H         1 M6S         0.3180
     58 H26        10.1423   -9.5545   25.2599 H         1 M6S         0.3180
     59 H27        20.5547  -11.2311   19.5966 H         1 M6S         0.0332
     60 H28        19.4808  -12.3039   18.6362 H         1 M6S         0.0332
     61 H29        19.9972  -14.1168   20.2006 H         1 M6S         0.0526
     62 H30        20.8897  -12.9840   21.2716 H         1 M6S         0.0526
     63 H31        16.7418  -16.8118   21.2685 H         1 M6S         0.1062
     64 H32        16.5900  -15.0703   20.8554 H         1 M6S         0.1062
     65 H33        12.2207  -15.3941   19.5859 H         1 M6S         0.0484
     66 H34        12.1926  -15.0058   21.3395 H         1 M6S         0.0484
     67 H35        12.2574  -16.7178   20.7996 H         1 M6S         0.0484
     68 H36        14.5354  -15.3596   19.7542 H         1 M6S         0.1849
@<TRIPOS>BOND
     1    1    2 1  
     2    1    6 1  
     3    1    8 1  
     4    2    3 1  
     5    3    4 1  
     6    4    5 1  
     7    5    6 1  
     8    8    7 1  
     9    7   28 1  
    10    8    9 1  
    11    9   10 2  
    12    9   11 am 
    13   11   12 1  
    14   11   27 1  
    15   12   13 1  
    16   12   26 1  
    17   13   14 2  
    18   13   15 am 
    19   15   16 1  
    20   16   17 1  
    21   17   18 ar 
    22   17   22 ar 
    23   18   19 ar 
    24   19   20 ar 
    25   20   21 ar 
    26   20   23 1  
    27   21   22 ar 
    28   23   24 ar 
    29   23   25 ar 
    30   26   27 1  
    31   28   29 1  
    32   29   30 2  
    33   29   32 am 
    34   32   31 1  
    35    1   33 1  
    36    2   34 1  
    37    2   35 1  
    38    3   36 1  
    39    3   37 1  
    40    4   38 1  
    41    4   39 1  
    42    5   40 1  
    43    5   41 1  
    44    6   42 1  
    45    6   43 1  
    46    7   44 1  
    47    7   45 1  
    48    8   46 1  
    49   12   47 1  
    50   15   48 1  
    51   16   49 1  
    52   16   50 1  
    53   18   51 1  
    54   19   52 1  
    55   21   53 1  
    56   22   54 1  
    57   24   55 1  
    58   24   56 1  
    59   25   57 1  
    60   25   58 1  
    61   26   59 1  
    62   26   60 1  
    63   27   61 1  
    64   27   62 1  
    65   28   63 1  
    66   28   64 1  
    67   31   65 1  
    68   31   66 1  
    69   31   67 1  
    70   32   68 1  
@<TRIPOS>SUBSTRUCTURE
     1 M6S         1

