### 
### Created by X-TOOL on Mon Sep 10 21:13:14 2018
### 

@<TRIPOS>MOLECULE
4bao_ligand
   65    67     1     0     0
SMALL
GAST_HUCK


@<TRIPOS>ATOM
      1 C1         18.8260  -14.4920   24.2160 C.3       1 MVF         0.0196
      2 C2         18.9260  -15.7910   25.0380 C.3       1 MVF        -0.0429
      3 C3         19.4630  -15.4470   26.4360 C.3       1 MVF        -0.0525
      4 C4         20.8600  -14.8050   26.3340 C.3       1 MVF        -0.0530
      5 C5         20.7940  -13.4950   25.5410 C.3       1 MVF        -0.0525
      6 C6         20.2040  -13.7840   24.1440 C.3       1 MVF        -0.0429
      7 N7         16.9740  -15.5260   22.8620 N.4       1 MVF         0.2630
      8 C8         18.2640  -14.7820   22.8100 C.3       1 MVF         0.0716
      9 C9         17.9860  -13.4590   22.1550 C.2       1 MVF         0.2296
     10 O0         16.9690  -12.8750   22.4850 O.2       1 MVF        -0.3905
     11 N11        18.7990  -12.9000   21.2270 N.am      1 MVF        -0.2468
     12 C12        18.6330  -11.7020   20.3900 C.3       1 MVF         0.1357
     13 C13        17.2430  -11.8200   19.8070 C.2       1 MVF         0.2038
     14 O14        16.9390  -12.8630   19.2540 O.2       1 MVF        -0.3944
     15 N15        16.3140  -10.8710   20.0530 N.am      1 MVF        -0.2737
     16 C16        14.9510  -11.0570   19.5600 C.3       1 MVF         0.0645
     17 C17        13.9780  -11.0110   20.7090 C.ar      1 MVF        -0.0210
     18 C22        13.6590  -12.1700   21.4040 C.ar      1 MVF        -0.0584
     19 C21        12.7390  -12.1230   22.4440 C.ar      1 MVF        -0.0633
     20 C20        12.1560  -10.8880   22.8020 C.ar      1 MVF         0.0188
     21 C19        12.5010   -9.7210   22.0970 C.ar      1 MVF        -0.0633
     22 C18        13.4130   -9.7910   21.0600 C.ar      1 MVF        -0.0584
     23 C23        11.1650  -10.8050   23.9070 C.cat     1 MVF         0.2318
     24 N25        10.4330  -11.9160   24.2990 N.pl3     1 MVF        -0.2729
     25 N24        10.9450   -9.6670   24.5050 N.pl3     1 MVF        -0.2729
     26 C26        19.7940  -12.1380   19.4720 C.3       1 MVF         0.0084
     27 C27        20.0340  -13.2510   20.4970 C.3       1 MVF         0.0411
     28 C28        16.3960  -15.9280   21.5510 C.3       1 MVF         0.0580
     29 C29        14.9570  -16.3940   21.6930 C.2       1 MVF         0.2190
     30 O30        14.3610  -16.3550   22.7550 O.2       1 MVF        -0.3914
     31 N30        14.3000  -16.8850   20.6250 N.am      1 MVF        -0.2965
     32 H1         18.1249  -13.8165   24.7280 H         1 MVF         0.0381
     33 H2         19.6115  -16.4926   24.5402 H         1 MVF         0.0271
     34 H3         17.9308  -16.2511   25.1263 H         1 MVF         0.0271
     35 H4         19.5304  -16.3674   27.0346 H         1 MVF         0.0265
     36 H5         18.7751  -14.7413   26.9246 H         1 MVF         0.0265
     37 H6         21.5421  -15.5019   25.8250 H         1 MVF         0.0265
     38 H7         21.2370  -14.5965   27.3461 H         1 MVF         0.0265
     39 H8         21.8057  -13.0764   25.4349 H         1 MVF         0.0265
     40 H9         20.1529  -12.7749   26.0706 H         1 MVF         0.0265
     41 H10        20.0834  -12.8310   23.6081 H         1 MVF         0.0271
     42 H11        20.9036  -14.4290   23.5922 H         1 MVF         0.0271
     43 H12        16.2995  -14.9405   23.3292 H         1 MVF         0.2055
     44 H13        17.1233  -16.3637   23.4024 H         1 MVF         0.2055
     45 H14        19.0002  -15.3562   22.2284 H         1 MVF         0.1102
     46 H15        18.7864  -10.7293   20.8803 H         1 MVF         0.0803
     47 H16        16.5566  -10.0487   20.5677 H         1 MVF         0.1878
     48 H17        14.8752  -12.0324   19.0571 H         1 MVF         0.0683
     49 H18        14.7094  -10.2563   18.8455 H         1 MVF         0.0683
     50 H19        14.1271  -13.1101   21.1355 H         1 MVF         0.0557
     51 H20        12.4707  -13.0281   22.9768 H         1 MVF         0.0599
     52 H21        12.0539   -8.7707   22.3654 H         1 MVF         0.0599
     53 H22        13.6878   -8.8923   20.5198 H         1 MVF         0.0557
     54 H23         9.7509  -11.8386   25.0669 H         1 MVF         0.3180
     55 H24        10.5715  -12.8184   23.8222 H         1 MVF         0.3180
     56 H25        11.4772   -8.8292   24.2297 H         1 MVF         0.3180
     57 H26        10.2390   -9.6061   25.2525 H         1 MVF         0.3180
     58 H27        20.6117  -11.4084   19.3770 H         1 MVF         0.0332
     59 H28        19.4925  -12.4831   18.4720 H         1 MVF         0.0332
     60 H29        20.0205  -14.2622   20.0642 H         1 MVF         0.0526
     61 H30        20.9515  -13.1177   21.0889 H         1 MVF         0.0526
     62 H31        16.9972  -16.7486   21.1325 H         1 MVF         0.1062
     63 H32        16.4262  -15.0661   20.8683 H         1 MVF         0.1062
     64 H33        13.3528  -17.1918   20.7183 H         1 MVF         0.1816
     65 H34        14.7593  -16.9428   19.7386 H         1 MVF         0.1816
@<TRIPOS>BOND
     1    1    2 1  
     2    1    6 1  
     3    1    8 1  
     4    2    3 1  
     5    3    4 1  
     6    4    5 1  
     7    5    6 1  
     8    8    7 1  
     9    7   28 1  
    10    8    9 1  
    11    9   10 2  
    12    9   11 am 
    13   11   12 1  
    14   11   27 1  
    15   12   13 1  
    16   12   26 1  
    17   13   14 2  
    18   13   15 am 
    19   15   16 1  
    20   16   17 1  
    21   17   18 ar 
    22   17   22 ar 
    23   18   19 ar 
    24   19   20 ar 
    25   20   21 ar 
    26   20   23 1  
    27   21   22 ar 
    28   23   24 ar 
    29   23   25 ar 
    30   26   27 1  
    31   28   29 1  
    32   29   30 2  
    33   29   31 am 
    34    1   32 1  
    35    2   33 1  
    36    2   34 1  
    37    3   35 1  
    38    3   36 1  
    39    4   37 1  
    40    4   38 1  
    41    5   39 1  
    42    5   40 1  
    43    6   41 1  
    44    6   42 1  
    45    7   43 1  
    46    7   44 1  
    47    8   45 1  
    48   12   46 1  
    49   15   47 1  
    50   16   48 1  
    51   16   49 1  
    52   18   50 1  
    53   19   51 1  
    54   21   52 1  
    55   22   53 1  
    56   24   54 1  
    57   24   55 1  
    58   25   56 1  
    59   25   57 1  
    60   26   58 1  
    61   26   59 1  
    62   27   60 1  
    63   27   61 1  
    64   28   62 1  
    65   28   63 1  
    66   31   64 1  
    67   31   65 1  
@<TRIPOS>SUBSTRUCTURE
     1 MVF         1

