### 
### Created by X-TOOL on Mon Sep 10 21:13:14 2018
### 

@<TRIPOS>MOLECULE
4baq_ligand
   71    73     1     0     0
SMALL
GAST_HUCK


@<TRIPOS>ATOM
      1 C1         18.7700  -14.5310   24.2010 C.3       1 M4Z         0.0196
      2 C2         18.8900  -15.8540   24.9790 C.3       1 M4Z        -0.0429
      3 C3         19.4250  -15.5690   26.3880 C.3       1 M4Z        -0.0525
      4 C4         20.8250  -14.9400   26.2940 C.3       1 M4Z        -0.0530
      5 C5         20.7250  -13.5770   25.5940 C.3       1 M4Z        -0.0525
      6 C6         20.1110  -13.7580   24.1860 C.3       1 M4Z        -0.0429
      7 N7         17.0040  -15.5640   22.7950 N.4       1 M4Z         0.2630
      8 C8         18.2700  -14.7950   22.7660 C.3       1 M4Z         0.0716
      9 C9         17.9940  -13.4660   22.1110 C.2       1 M4Z         0.2296
     10 O0         16.9890  -12.8630   22.4510 O.2       1 M4Z        -0.3905
     11 N11        18.8060  -12.9080   21.1800 N.am      1 M4Z        -0.2468
     12 C12        18.6340  -11.7030   20.3590 C.3       1 M4Z         0.1357
     13 C13        17.2390  -11.8210   19.7690 C.2       1 M4Z         0.2038
     14 O14        16.8970  -12.8940   19.2870 O.2       1 M4Z        -0.3944
     15 N15        16.3370  -10.8280   19.9420 N.am      1 M4Z        -0.2737
     16 C16        14.9700  -11.0130   19.4510 C.3       1 M4Z         0.0645
     17 C17        14.0140  -11.0280   20.6150 C.ar      1 M4Z        -0.0210
     18 C22        13.4600   -9.8210   21.0260 C.ar      1 M4Z        -0.0584
     19 C21        12.5830   -9.7860   22.0930 C.ar      1 M4Z        -0.0633
     20 C20        12.2690  -10.9790   22.7660 C.ar      1 M4Z         0.0188
     21 C19        12.8180  -12.2040   22.3360 C.ar      1 M4Z        -0.0633
     22 C18        13.7050  -12.2160   21.2610 C.ar      1 M4Z        -0.0584
     23 C23        11.2680  -10.9270   23.8550 C.cat     1 M4Z         0.2318
     24 N24        10.5420  -11.9780   24.1770 N.pl3     1 M4Z        -0.2729
     25 N25        11.0360   -9.7280   24.4760 N.pl3     1 M4Z        -0.2729
     26 C26        19.7960  -12.1120   19.4430 C.3       1 M4Z         0.0084
     27 C27        20.0340  -13.2570   20.4360 C.3       1 M4Z         0.0411
     28 C28        16.3660  -15.8900   21.4900 C.3       1 M4Z         0.0582
     29 C10        12.0350  -15.5660   19.4200 C.3       1 M4Z        -0.0449
     30 C29        14.8900  -16.2140   21.6700 C.2       1 M4Z         0.2215
     31 O30        14.4460  -16.5720   22.7540 O.2       1 M4Z        -0.3912
     32 C24        12.6200  -16.3420   20.6020 C.3       1 M4Z         0.0282
     33 N3         14.0720  -16.1010   20.5930 N.am      1 M4Z        -0.2829
     34 H1         18.0248  -13.9035   24.7119 H         1 M4Z         0.0381
     35 H2         19.5822  -16.5278   24.4529 H         1 M4Z         0.0271
     36 H3         17.9003  -16.3285   25.0512 H         1 M4Z         0.0271
     37 H4         19.4845  -16.5104   26.9538 H         1 M4Z         0.0265
     38 H5         18.7458  -14.8738   26.9032 H         1 M4Z         0.0265
     39 H6         21.4868  -15.6018   25.7160 H         1 M4Z         0.0265
     40 H7         21.2350  -14.8039   27.3056 H         1 M4Z         0.0265
     41 H8         21.7297  -13.1390   25.5012 H         1 M4Z         0.0265
     42 H9         20.0863  -12.9068   26.1880 H         1 M4Z         0.0265
     43 H10        19.9364  -12.7633   23.7501 H         1 M4Z         0.0271
     44 H11        20.8269  -14.3118   23.5609 H         1 M4Z         0.0271
     45 H12        16.3384  -15.0293   23.3309 H         1 M4Z         0.2055
     46 H13        17.1912  -16.4357   23.2653 H         1 M4Z         0.2055
     47 H14        19.0328  -15.3496   22.1998 H         1 M4Z         0.1102
     48 H15        18.7789  -10.7364   20.8637 H         1 M4Z         0.0803
     49 H16        16.6003   -9.9786   20.3993 H         1 M4Z         0.1878
     50 H17        14.9016  -11.9675   18.9086 H         1 M4Z         0.0683
     51 H18        14.7091  -10.1867   18.7734 H         1 M4Z         0.0683
     52 H19        13.7170   -8.9043   20.5076 H         1 M4Z         0.0557
     53 H20        12.1414   -8.8474   22.4079 H         1 M4Z         0.0599
     54 H21        12.5528  -13.1281   22.8367 H         1 M4Z         0.0599
     55 H22        14.1506  -13.1478   20.9318 H         1 M4Z         0.0557
     56 H23         9.8525  -11.9136   24.9394 H         1 M4Z         0.3180
     57 H24        10.6639  -12.8642   23.6663 H         1 M4Z         0.3180
     58 H25        11.6001   -8.9024   24.2289 H         1 M4Z         0.3180
     59 H26        10.2975   -9.6522   25.1900 H         1 M4Z         0.3180
     60 H27        20.6135  -11.3792   19.3744 H         1 M4Z         0.0332
     61 H28        19.5011  -12.4282   18.4315 H         1 M4Z         0.0332
     62 H29        20.0066  -14.2562   19.9769 H         1 M4Z         0.0526
     63 H30        20.9565  -13.1494   21.0255 H         1 M4Z         0.0526
     64 H31        16.8740  -16.7602   21.0487 H         1 M4Z         0.1062
     65 H32        16.4650  -15.0267   20.8156 H         1 M4Z         0.1062
     66 H33        10.9459  -15.7165   19.3856 H         1 M4Z         0.0249
     67 H34        12.4850  -15.9290   18.4842 H         1 M4Z         0.0249
     68 H35        12.2535  -14.4947   19.5405 H         1 M4Z         0.0249
     69 H36        12.4140  -17.4166   20.4886 H         1 M4Z         0.0517
     70 H37        12.1824  -15.9822   21.5449 H         1 M4Z         0.0517
     71 H38        14.4888  -15.8327   19.7245 H         1 M4Z         0.1852
@<TRIPOS>BOND
     1    1    2 1  
     2    1    6 1  
     3    8    1 1  
     4    2    3 1  
     5    3    4 1  
     6    5    4 1  
     7    6    5 1  
     8    7    8 1  
     9   28    7 1  
    10    8    9 1  
    11    9   10 2  
    12    9   11 am 
    13   11   12 1  
    14   11   27 1  
    15   12   13 1  
    16   12   26 1  
    17   13   14 2  
    18   13   15 am 
    19   15   16 1  
    20   16   17 1  
    21   17   18 ar 
    22   17   22 ar 
    23   18   19 ar 
    24   19   20 ar 
    25   21   20 ar 
    26   20   23 1  
    27   22   21 ar 
    28   23   24 ar 
    29   23   25 ar 
    30   27   26 1  
    31   30   28 1  
    32   32   29 1  
    33   30   31 2  
    34   33   30 am 
    35   32   33 1  
    36    1   34 1  
    37    2   35 1  
    38    2   36 1  
    39    3   37 1  
    40    3   38 1  
    41    4   39 1  
    42    4   40 1  
    43    5   41 1  
    44    5   42 1  
    45    6   43 1  
    46    6   44 1  
    47    7   45 1  
    48    7   46 1  
    49    8   47 1  
    50   12   48 1  
    51   15   49 1  
    52   16   50 1  
    53   16   51 1  
    54   18   52 1  
    55   19   53 1  
    56   21   54 1  
    57   22   55 1  
    58   24   56 1  
    59   24   57 1  
    60   25   58 1  
    61   25   59 1  
    62   26   60 1  
    63   26   61 1  
    64   27   62 1  
    65   27   63 1  
    66   28   64 1  
    67   28   65 1  
    68   29   66 1  
    69   29   67 1  
    70   29   68 1  
    71   32   69 1  
    72   32   70 1  
    73   33   71 1  
@<TRIPOS>SUBSTRUCTURE
     1 M4Z         1

