### 
### Created by X-TOOL on Mon Sep 10 21:13:09 2018
### 

@<TRIPOS>MOLECULE
4bb2_ligand
   53    56     1     0     0
SMALL
GAST_HUCK


@<TRIPOS>ATOM
      1 C1        -30.5220   -8.7000    2.1330 C.3       1 STR        -0.0611
      2 C2        -30.6380   -7.5620    3.1480 C.3       1 STR         0.0243
      3 C3        -30.3490   -8.0960    4.5340 C.2       1 STR         0.1764
      4 O3        -30.9020   -7.6230    5.5140 O.2       1 STR        -0.3440
      5 C4        -29.3840   -9.2000    4.7130 C.2       1 STR         0.0476
      6 C5        -28.8290   -9.8330    3.6670 C.2       1 STR        -0.0413
      7 C6        -27.7490  -10.8570    3.9560 C.3       1 STR        -0.0169
      8 C7        -28.0890  -12.1850    3.2840 C.3       1 STR        -0.0393
      9 C8        -28.4180  -12.0050    1.8040 C.3       1 STR        -0.0416
     10 C9        -29.5140  -10.9350    1.5620 C.3       1 STR        -0.0619
     11 C10       -29.2490   -9.5640    2.2300 C.3       1 STR        -0.0378
     12 C11       -29.8880  -10.8250    0.0680 C.3       1 STR        -0.0582
     13 C12       -30.2290  -12.1680   -0.5910 C.3       1 STR        -0.0456
     14 C13       -29.1680  -13.2350   -0.3160 C.3       1 STR        -0.0105
     15 C14       -28.8900  -13.3260    1.1840 C.3       1 STR        -0.0308
     16 C15       -28.0950  -14.6140    1.3900 C.3       1 STR        -0.0469
     17 C16       -28.7090  -15.5360    0.3290 C.3       1 STR        -0.0335
     18 C17       -29.6290  -14.6680   -0.5550 C.3       1 STR         0.0379
     19 C18       -27.9060  -12.9240   -1.1410 C.3       1 STR        -0.0569
     20 C19       -28.0960   -8.8020    1.5700 C.3       1 STR        -0.0890
     21 C20       -29.6780  -15.0840   -2.0140 C.2       1 STR         0.1055
     22 O20       -28.7980  -15.8070   -2.4700 O.2       1 STR        -0.3916
     23 C21       -30.8250  -14.6120   -2.8740 C.3       1 STR         0.0097
     24 H1        -30.5528   -8.2577    1.1263 H         1 STR         0.0172
     25 H2        -31.3896   -9.3624    2.2692 H         1 STR         0.0172
     26 H3        -31.6561   -7.1465    3.1194 H         1 STR         0.0483
     27 H4        -29.9129   -6.7730    2.8998 H         1 STR         0.0483
     28 H5        -29.1151   -9.5093    5.7220 H         1 STR         0.1318
     29 H6        -27.6733  -11.0086    5.0429 H         1 STR         0.0450
     30 H7        -26.7870  -10.4897    3.5691 H         1 STR         0.0450
     31 H8        -28.9592  -12.6277    3.7906 H         1 STR         0.0293
     32 H9        -27.2270  -12.8619    3.3771 H         1 STR         0.0293
     33 H10       -27.4998  -11.6827    1.2912 H         1 STR         0.0299
     34 H11       -30.4127  -11.3245    2.0625 H         1 STR         0.0187
     35 H12       -29.0368  -10.3822   -0.4699 H         1 STR         0.0259
     36 H13       -30.7625  -10.1639   -0.0218 H         1 STR         0.0259
     37 H14       -30.3074  -12.0190   -1.6780 H         1 STR         0.0272
     38 H15       -31.1945  -12.5197   -0.1985 H         1 STR         0.0272
     39 H16       -29.8596  -13.5085    1.6704 H         1 STR         0.0310
     40 H17       -28.2408  -15.0168    2.4031 H         1 STR         0.0270
     41 H18       -27.0216  -14.4552    1.2095 H         1 STR         0.0270
     42 H19       -29.2939  -16.3313    0.8141 H         1 STR         0.0293
     43 H20       -27.9143  -15.9869   -0.2835 H         1 STR         0.0293
     44 H21       -30.6566  -14.7631   -0.1744 H         1 STR         0.0535
     45 H22       -27.5917  -11.8867   -0.9533 H         1 STR         0.0237
     46 H23       -28.1265  -13.0524   -2.2110 H         1 STR         0.0237
     47 H24       -27.0980  -13.6106   -0.8481 H         1 STR         0.0237
     48 H25       -27.9520   -7.8393    2.0823 H         1 STR         0.0112
     49 H26       -28.3339   -8.6220    0.5113 H         1 STR         0.0112
     50 H27       -27.1739   -9.3974    1.6425 H         1 STR         0.0112
     51 H28       -30.7031  -15.0033   -3.8948 H         1 STR         0.0459
     52 H29       -30.8344  -13.5124   -2.9015 H         1 STR         0.0459
     53 H30       -31.7735  -14.9764   -2.4526 H         1 STR         0.0459
@<TRIPOS>BOND
     1    1    2 1  
     2    1   11 1  
     3    2    3 1  
     4    3    4 2  
     5    3    5 1  
     6    5    6 2  
     7    6    7 1  
     8    6   11 1  
     9    7    8 1  
    10    8    9 1  
    11    9   10 1  
    12    9   15 1  
    13   10   11 1  
    14   10   12 1  
    15   11   20 1  
    16   12   13 1  
    17   13   14 1  
    18   14   15 1  
    19   14   18 1  
    20   14   19 1  
    21   15   16 1  
    22   16   17 1  
    23   17   18 1  
    24   18   21 1  
    25   21   22 2  
    26   21   23 1  
    27    1   24 1  
    28    1   25 1  
    29    2   26 1  
    30    2   27 1  
    31    5   28 1  
    32    7   29 1  
    33    7   30 1  
    34    8   31 1  
    35    8   32 1  
    36    9   33 1  
    37   10   34 1  
    38   12   35 1  
    39   12   36 1  
    40   13   37 1  
    41   13   38 1  
    42   15   39 1  
    43   16   40 1  
    44   16   41 1  
    45   17   42 1  
    46   17   43 1  
    47   18   44 1  
    48   19   45 1  
    49   19   46 1  
    50   19   47 1  
    51   20   48 1  
    52   20   49 1  
    53   20   50 1  
    54   23   51 1  
    55   23   52 1  
    56   23   53 1  
@<TRIPOS>SUBSTRUCTURE
     1 STR         1

