### 
### Created by X-TOOL on Mon Sep 10 21:13:15 2018
### 

@<TRIPOS>MOLECULE
4bb4_ligand
   51    54     1     0     0
SMALL
GAST_HUCK


@<TRIPOS>ATOM
      1 O1         14.1650   14.6920   10.0410 O.2       1 32W        -0.3901
      2 C3         13.3530   14.0190   10.6730 C.2       1 32W         0.1965
      3 N          12.2400   14.5460   11.1980 N.am      1 32W        -0.2856
      4 C2         11.8750   15.9530   11.0590 C.3       1 32W         0.0535
      5 C1         12.3970   16.8110   12.1760 C.3       1 32W         0.0673
      6 O          11.8160   16.3560   13.3820 O.3       1 32W        -0.3810
      7 C          12.2640   17.0930   14.5080 C.3       1 32W         0.0365
      8 C4         13.5850   12.5560   10.9070 C.ar      1 32W         0.0380
      9 C22        14.8840   12.0490   10.9030 C.ar      1 32W        -0.0512
     10 C21        15.1150   10.6990   11.1060 C.ar      1 32W        -0.0318
     11 C7         14.0470    9.8120   11.1800 C.ar      1 32W         0.0716
     12 C6         12.7570   10.3220   11.2900 C.ar      1 32W        -0.0318
     13 C5         12.5240   11.6720   11.0920 C.ar      1 32W        -0.0512
     14 N1         14.3250    8.4760   11.5280 N.pl3     1 32W        -0.2379
     15 C8         13.5590    7.3910   11.8030 C.ar      1 32W         0.2108
     16 N3         12.1820    7.4260   11.4960 N.ar      1 32W        -0.2613
     17 C15        11.4950    6.2700   11.7650 C.ar      1 32W         0.0439
     18 C10        12.1380    5.1120   12.2700 C.ar      1 32W         0.0260
     19 C9         13.5440    5.2200   12.4340 C.ar      1 32W         0.0347
     20 N2         14.2370    6.3240   12.2610 N.ar      1 32W        -0.2377
     21 C14        10.1060    6.2200   11.4910 C.ar      1 32W        -0.0388
     22 C13         9.3800    5.0960   11.7630 C.ar      1 32W        -0.0457
     23 C12         9.9810    3.9380   12.2660 C.ar      1 32W        -0.0022
     24 C11        11.3490    3.9570   12.5030 C.ar      1 32W        -0.0322
     25 C16         9.1720    2.7720   12.6840 C.ar      1 32W         0.0014
     26 C20         8.7130    1.8340   11.7660 C.ar      1 32W        -0.0276
     27 C19         7.9660    0.7610   12.2140 C.ar      1 32W         0.0097
     28 N4          7.6680    0.5450   13.5000 N.ar      1 32W        -0.2993
     29 C18         8.1310    1.4350   14.3820 C.ar      1 32W         0.0097
     30 C17         8.8870    2.5390   14.0300 C.ar      1 32W        -0.0276
     31 H1         11.6272   13.9454   11.7116 H         1 32W         0.1842
     32 H2         10.7778   16.0299   11.0421 H         1 32W         0.0542
     33 H3         12.2836   16.3284   10.1092 H         1 32W         0.0542
     34 H4         12.1205   17.8612   12.0010 H         1 32W         0.0580
     35 H5         13.4921   16.7247   12.2330 H         1 32W         0.0580
     36 H6         11.7844   16.7012   15.4171 H         1 32W         0.0523
     37 H7         11.9990   18.1531   14.3815 H         1 32W         0.0523
     38 H8         13.3560   16.9963   14.5988 H         1 32W         0.0523
     39 H9         15.7209   12.7182   10.7394 H         1 32W         0.0640
     40 H10        16.1303   10.3330   11.2074 H         1 32W         0.0552
     41 H11        11.9327    9.6606   11.5313 H         1 32W         0.0552
     42 H12        11.5063   12.0451   11.0808 H         1 32W         0.0640
     43 H13        15.3343    8.2791   11.5867 H         1 32W         0.2208
     44 H14        14.0860    4.3268   12.7230 H         1 32W         0.1009
     45 H15         9.6136    7.0844   11.0603 H         1 32W         0.0622
     46 H16         8.3108    5.1015   11.5845 H         1 32W         0.0691
     47 H17        11.8291    3.0604   12.8781 H         1 32W         0.0707
     48 H18         8.9384    1.9430   10.7113 H         1 32W         0.0710
     49 H19         7.5999    0.0525   11.4798 H         1 32W         0.0819
     50 H20         7.9019    1.2840   15.4307 H         1 32W         0.0819
     51 H21         9.2544    3.2164   14.7924 H         1 32W         0.0710
@<TRIPOS>BOND
     1    1    2 2  
     2    2    3 am 
     3    2    8 1  
     4    3    4 1  
     5    4    5 1  
     6    5    6 1  
     7    6    7 1  
     8    8    9 ar 
     9    8   13 ar 
    10    9   10 ar 
    11   10   11 ar 
    12   11   12 ar 
    13   11   14 1  
    14   12   13 ar 
    15   14   15 1  
    16   15   16 ar 
    17   15   20 ar 
    18   16   17 ar 
    19   17   18 ar 
    20   17   21 ar 
    21   18   19 ar 
    22   18   24 ar 
    23   19   20 ar 
    24   21   22 ar 
    25   22   23 ar 
    26   23   24 ar 
    27   23   25 1  
    28   25   26 ar 
    29   25   30 ar 
    30   26   27 ar 
    31   27   28 ar 
    32   28   29 ar 
    33   29   30 ar 
    34    3   31 1  
    35    4   32 1  
    36    4   33 1  
    37    5   34 1  
    38    5   35 1  
    39    7   36 1  
    40    7   37 1  
    41    7   38 1  
    42    9   39 1  
    43   10   40 1  
    44   12   41 1  
    45   13   42 1  
    46   14   43 1  
    47   19   44 1  
    48   21   45 1  
    49   22   46 1  
    50   24   47 1  
    51   26   48 1  
    52   27   49 1  
    53   29   50 1  
    54   30   51 1  
@<TRIPOS>SUBSTRUCTURE
     1 32W         1

