### 
### Created by X-TOOL on Mon Sep 10 21:13:12 2018
### 

@<TRIPOS>MOLECULE
4bbe_ligand
   52    55     1     0     0
SMALL
GAST_HUCK


@<TRIPOS>ATOM
      1 O23         2.6020   -6.9730   -6.0520 O.2       1 3O4        -0.3838
      2 C22         1.6770   -7.7360   -5.7750 C.2       1 3O4         0.2029
      3 N24         1.6930   -8.6600   -4.8080 N.am      1 3O4        -0.2303
      4 C25         2.7050   -8.9160   -3.9660 C.ar      1 3O4         0.0727
      5 C26         3.9640   -8.3180   -4.0850 C.ar      1 3O4        -0.0350
      6 C19         0.3690   -7.6770   -6.5640 C.3       1 3O4         0.0322
      7 C17         3.4870  -10.1240   -2.0230 C.ar      1 3O4        -0.0603
      8 C16         4.7450   -9.5300   -2.1420 C.ar      1 3O4        -0.0105
      9 C12         5.7420   -9.8450   -1.2160 C.ar      1 3O4         0.0438
     10 C11         6.9870   -9.2220   -1.2470 C.ar      1 3O4        -0.0218
     11 C10         7.9290   -9.5790   -0.2880 C.ar      1 3O4         0.0098
     12 N15         7.6340  -10.4910    0.6270 N.ar      1 3O4        -0.2569
     13 C14         6.4270  -11.0880    0.6560 C.ar      1 3O4         0.2031
     14 N13         5.4970  -10.7610   -0.2620 N.ar      1 3O4        -0.2538
     15 N7          6.1890  -12.0030    1.6080 N.pl3     1 3O4        -0.2494
     16 C1          5.0140  -12.5920    1.8910 C.ar      1 3O4         0.0530
     17 C2          5.0250  -13.6820    2.7600 C.ar      1 3O4        -0.0489
     18 C3          3.8440  -14.3390    3.0970 C.ar      1 3O4        -0.0528
     19 C4          2.6230  -13.9130    2.5700 C.ar      1 3O4         0.0295
     20 C5          2.6060  -12.8170    1.7010 C.ar      1 3O4        -0.0528
     21 C6          3.7910  -12.1610    1.3670 C.ar      1 3O4        -0.0489
     22 C90         2.4740   -9.8200   -2.9300 C.ar      1 3O4        -0.0350
     23 N8          1.4280  -14.5830    2.9250 N.pl3     1 3O4        -0.3103
     24 C13         4.9780   -8.6210   -3.1770 C.ar      1 3O4        -0.0603
     25 C9          1.3720  -15.3760    4.1890 C.3       1 3O4         0.0482
     26 C31         0.5050  -16.6310    4.0280 C.3       1 3O4         0.0670
     27 O30        -0.7680  -16.2520    3.4610 O.3       1 3O4        -0.3759
     28 C29        -0.6210  -15.7790    2.1030 C.3       1 3O4         0.0670
     29 C28         0.2190  -14.4920    2.0540 C.3       1 3O4         0.0482
     30 H           0.8516   -9.2264   -4.7002 H         1 3O4         0.2289
     31 H           4.1536   -7.6108   -4.8925 H         1 3O4         0.0521
     32 H          -0.0704   -6.6847   -6.4628 H         1 3O4         0.0472
     33 H           0.5710   -7.8808   -7.6156 H         1 3O4         0.0472
     34 H          -0.3229   -8.4236   -6.1743 H         1 3O4         0.0472
     35 H           3.2961  -10.8303   -1.2151 H         1 3O4         0.0621
     36 H           7.2177   -8.4728   -2.0044 H         1 3O4         0.0645
     37 H           8.9118   -9.1077   -0.2891 H         1 3O4         0.0879
     38 H           6.9865  -12.2822    2.1794 H         1 3O4         0.2145
     39 H           5.9701  -14.0246    3.1812 H         1 3O4         0.0507
     40 H           3.8730  -15.1910    3.7763 H         1 3O4         0.0490
     41 H           1.6604  -12.4732    1.2819 H         1 3O4         0.0490
     42 H           3.7635  -11.3055    0.6921 H         1 3O4         0.0507
     43 H           1.4963  -10.2911   -2.8292 H         1 3O4         0.0521
     44 H           5.9549   -8.1475   -3.2750 H         1 3O4         0.0621
     45 H           0.9347  -14.7522    4.9686 H         1 3O4         0.0532
     46 H           2.3845  -15.6868    4.4465 H         1 3O4         0.0532
     47 H           0.3502  -17.0986    5.0004 H         1 3O4         0.0579
     48 H           1.0045  -17.3413    3.3692 H         1 3O4         0.0579
     49 H          -1.6105  -15.5657    1.6985 H         1 3O4         0.0579
     50 H          -0.1161  -16.5479    1.5182 H         1 3O4         0.0579
     51 H           0.5487  -14.3379    1.0266 H         1 3O4         0.0532
     52 H          -0.3980  -13.6673    2.4108 H         1 3O4         0.0532
@<TRIPOS>BOND
     1    2    1 2  
     2    3    2 am 
     3    2    6 1  
     4    4    3 1  
     5    4    5 ar 
     6   22    4 ar 
     7    5   24 ar 
     8    7    8 ar 
     9    7   22 ar 
    10    8    9 1  
    11    8   24 ar 
    12    9   10 ar 
    13    9   14 ar 
    14   10   11 ar 
    15   11   12 ar 
    16   12   13 ar 
    17   13   14 ar 
    18   13   15 1  
    19   15   16 1  
    20   16   17 ar 
    21   16   21 ar 
    22   17   18 ar 
    23   18   19 ar 
    24   19   20 ar 
    25   19   23 1  
    26   20   21 ar 
    27   23   25 1  
    28   23   29 1  
    29   25   26 1  
    30   26   27 1  
    31   27   28 1  
    32   28   29 1  
    33    3   30 1  
    34    5   31 1  
    35    6   32 1  
    36    6   33 1  
    37    6   34 1  
    38    7   35 1  
    39   10   36 1  
    40   11   37 1  
    41   15   38 1  
    42   17   39 1  
    43   18   40 1  
    44   20   41 1  
    45   21   42 1  
    46   22   43 1  
    47   24   44 1  
    48   25   45 1  
    49   25   46 1  
    50   26   47 1  
    51   26   48 1  
    52   28   49 1  
    53   28   50 1  
    54   29   51 1  
    55   29   52 1  
@<TRIPOS>SUBSTRUCTURE
     1 3O4         1

