### 
### Created by X-TOOL on Mon Sep 10 21:13:11 2018
### 

@<TRIPOS>MOLECULE
4bbf_ligand
   62    66     1     0     0
SMALL
GAST_HUCK


@<TRIPOS>ATOM
      1 O10        -1.3500  -26.8590  -32.1030 O.2       1 O19        -0.3773
      2 C9         -1.8570  -25.8660  -31.5760 C.2       1 O19         0.2545
      3 C11        -1.1160  -25.1280  -30.5140 C.3       1 O19         0.0733
      4 C15        -1.6610  -25.6520  -29.1790 C.3       1 O19         0.0133
      5 C14        -0.8600  -26.9320  -28.9120 C.3       1 O19        -0.0052
      6 C13         0.4980  -26.6410  -29.5170 C.3       1 O19        -0.0313
      7 N12         0.2640  -25.5430  -30.4660 N.4       1 O19         0.2465
      8 N8         -3.1000  -25.4040  -31.7760 N.am      1 O19        -0.2254
      9 C6         -4.0890  -25.8690  -32.6570 C.ar      1 O19         0.0729
     10 C1         -3.9360  -27.0530  -33.3960 C.ar      1 O19        -0.0349
     11 C5         -5.2650  -25.1050  -32.7280 C.ar      1 O19        -0.0349
     12 C4         -6.3400  -25.5260  -33.5280 C.ar      1 O19        -0.0603
     13 C3         -6.1710  -26.7120  -34.2750 C.ar      1 O19        -0.0105
     14 C2         -5.0000  -27.4500  -34.2170 C.ar      1 O19        -0.0603
     15 C7         -7.2250  -27.1730  -35.2020 C.ar      1 O19         0.0438
     16 N20        -6.8070  -28.0420  -36.1570 N.ar      1 O19        -0.2538
     17 C19        -7.6990  -28.5560  -37.0220 C.ar      1 O19         0.2031
     18 N18        -8.9470  -28.1300  -36.9750 N.ar      1 O19        -0.2569
     19 C17        -9.4340  -27.2370  -36.0740 C.ar      1 O19         0.0098
     20 C16        -8.5740  -26.7360  -35.1040 C.ar      1 O19        -0.0218
     21 N21        -7.4000  -29.3640  -38.0600 N.pl3     1 O19        -0.2494
     22 C22        -6.2160  -30.0380  -38.3500 C.ar      1 O19         0.0530
     23 C27        -4.9810  -29.7400  -37.7480 C.ar      1 O19        -0.0489
     24 C26        -3.8460  -30.4820  -38.0600 C.ar      1 O19        -0.0528
     25 C25        -3.9660  -31.5420  -38.9540 C.ar      1 O19         0.0295
     26 C24        -5.1840  -31.8540  -39.5390 C.ar      1 O19        -0.0528
     27 C23        -6.3060  -31.1060  -39.2330 C.ar      1 O19        -0.0489
     28 N28        -2.8620  -32.3230  -39.2560 N.pl3     1 O19        -0.3103
     29 C33        -1.8720  -32.6030  -38.1750 C.3       1 O19         0.0482
     30 C32        -0.7540  -33.5720  -38.5840 C.3       1 O19         0.0670
     31 O31        -0.7980  -33.9930  -39.9560 O.3       1 O19        -0.3759
     32 C30        -2.1180  -34.2200  -40.4710 C.3       1 O19         0.0670
     33 C29        -2.7840  -32.8670  -40.6180 C.3       1 O19         0.0482
     34 H1         -1.2203  -24.0392  -30.6302 H         1 O19         0.1105
     35 H2         -2.7352  -25.8753  -29.2585 H         1 O19         0.0348
     36 H3         -1.4976  -24.9170  -28.3771 H         1 O19         0.0348
     37 H4         -1.3298  -27.7977  -29.4018 H         1 O19         0.0320
     38 H5         -0.7751  -27.1231  -27.8321 H         1 O19         0.0320
     39 H6          0.8865  -27.5275  -30.0396 H         1 O19         0.0814
     40 H7          1.2106  -26.3332  -28.7376 H         1 O19         0.0814
     41 H8          0.8278  -24.7541  -30.1906 H         1 O19         0.2035
     42 H9          0.5402  -25.8486  -31.3860 H         1 O19         0.2035
     43 H10        -3.3593  -24.6158  -31.2179 H         1 O19         0.2291
     44 H11        -3.0265  -27.6396  -33.3336 H         1 O19         0.0521
     45 H12        -5.3437  -24.1841  -32.1616 H         1 O19         0.0521
     46 H13        -7.2645  -24.9616  -33.5703 H         1 O19         0.0621
     47 H14        -4.9053  -28.3485  -34.8160 H         1 O19         0.0621
     48 H15       -10.4706  -26.9223  -36.1110 H         1 O19         0.0879
     49 H16        -8.9088  -26.0589  -34.3265 H         1 O19         0.0645
     50 H17        -8.1611  -29.5034  -38.7399 H         1 O19         0.2145
     51 H18        -4.9124  -28.9260  -37.0354 H         1 O19         0.0507
     52 H19        -2.8875  -30.2393  -37.6157 H         1 O19         0.0490
     53 H20        -5.2563  -32.6823  -40.2345 H         1 O19         0.0490
     54 H21        -7.2598  -31.3543  -39.6843 H         1 O19         0.0507
     55 H22        -2.4091  -33.0371  -37.3188 H         1 O19         0.0532
     56 H23        -1.4107  -31.6508  -37.8740 H         1 O19         0.0532
     57 H24        -0.8264  -34.4669  -37.9484 H         1 O19         0.0579
     58 H25         0.2115  -33.0750  -38.4088 H         1 O19         0.0579
     59 H26        -2.6914  -34.8478  -39.7731 H         1 O19         0.0579
     60 H27        -2.0595  -34.7189  -41.4496 H         1 O19         0.0579
     61 H28        -2.1817  -32.2091  -41.2617 H         1 O19         0.0532
     62 H29        -3.7909  -32.9779  -41.0468 H         1 O19         0.0532
@<TRIPOS>BOND
     1    1    2 2  
     2    2    3 1  
     3    2    8 am 
     4    3    4 1  
     5    3    7 1  
     6    4    5 1  
     7    5    6 1  
     8    6    7 1  
     9    8    9 1  
    10    9   10 ar 
    11    9   11 ar 
    12   10   14 ar 
    13   11   12 ar 
    14   12   13 ar 
    15   13   14 ar 
    16   13   15 1  
    17   15   16 ar 
    18   15   20 ar 
    19   16   17 ar 
    20   17   18 ar 
    21   17   21 1  
    22   18   19 ar 
    23   19   20 ar 
    24   21   22 1  
    25   22   23 ar 
    26   22   27 ar 
    27   23   24 ar 
    28   24   25 ar 
    29   25   26 ar 
    30   25   28 1  
    31   26   27 ar 
    32   28   29 1  
    33   28   33 1  
    34   29   30 1  
    35   30   31 1  
    36   31   32 1  
    37   32   33 1  
    38    3   34 1  
    39    4   35 1  
    40    4   36 1  
    41    5   37 1  
    42    5   38 1  
    43    6   39 1  
    44    6   40 1  
    45    7   41 1  
    46    7   42 1  
    47    8   43 1  
    48   10   44 1  
    49   11   45 1  
    50   12   46 1  
    51   14   47 1  
    52   19   48 1  
    53   20   49 1  
    54   21   50 1  
    55   23   51 1  
    56   24   52 1  
    57   26   53 1  
    58   27   54 1  
    59   29   55 1  
    60   29   56 1  
    61   30   57 1  
    62   30   58 1  
    63   32   59 1  
    64   32   60 1  
    65   33   61 1  
    66   33   62 1  
@<TRIPOS>SUBSTRUCTURE
     1 O19         1

