### 
### Created by X-TOOL on Mon Sep 10 21:13:13 2018
### 

@<TRIPOS>MOLECULE
4bbg_ligand
   52    54     1     0     0
SMALL
GAST_HUCK


@<TRIPOS>ATOM
      1 CAA        18.9120   33.6420  -23.6650 C.3       1 V02        -0.0551
      2 CAU        17.8190   33.0290  -22.8690 C.3       1 V02        -0.0180
      3 CAV        16.9460   32.2600  -23.7840 C.ar      1 V02        -0.0254
      4 CAK        16.7170   30.9520  -23.4950 C.ar      1 V02        -0.0417
      5 CAQ        16.3990   32.8540  -24.8830 C.ar      1 V02        -0.0546
      6 CAY        15.5890   32.1000  -25.6870 C.ar      1 V02        -0.0798
      7 CAP        15.3630   30.7870  -25.3970 C.ar      1 V02        -0.0619
      8 CAJ        15.9130   30.2050  -24.2980 C.ar      1 V02        -0.0495
      9 CAZ        14.8970   32.6380  -26.9260 C.3       1 V02         0.0139
     10 CAN        15.3910   34.6160  -28.2610 C.ar      1 V02        -0.0556
     11 CAH        15.3610   35.9570  -28.5250 C.ar      1 V02        -0.0435
     12 CAE        14.7460   36.7930  -27.6330 C.ar      1 V02        -0.0437
     13 CAI        14.1580   36.2900  -26.4980 C.ar      1 V02        -0.0435
     14 CAO        14.1880   34.9450  -26.2380 C.ar      1 V02        -0.0556
     15 CAX        14.8210   34.1190  -27.1200 C.ar      1 V02        -0.0728
     16 SAT        15.9130   32.2250  -28.3200 S.3       1 V02        -0.2225
     17 CAS        17.5720   32.2060  -27.5400 C.3       1 V02         0.0187
     18 CAR        18.7110   32.7760  -28.3880 C.3       1 V02        -0.0276
     19 NAB        19.5250   31.6750  -28.8810 N.4       1 V02         0.2191
     20 CAG        11.3700   31.4120  -26.6220 C.ar      1 V02        -0.0511
     21 CAM        12.5560   32.0110  -26.3040 C.ar      1 V02        -0.0657
     22 CAW        13.5800   31.9940  -27.2050 C.ar      1 V02        -0.0819
     23 CAL        13.4180   31.3890  -28.4120 C.ar      1 V02        -0.0278
     24 CAF        12.2330   30.7870  -28.7260 C.ar      1 V02         0.1050
     25 CAD        11.2020   30.7970  -27.8360 C.ar      1 V02        -0.0142
     26 OAC        12.0820   30.1950  -29.9130 O.3       1 V02        -0.3287
     27 H1         19.5715   34.2183  -22.9994 H         1 V02         0.0252
     28 H2         18.4816   34.3115  -24.4242 H         1 V02         0.0252
     29 H3         19.4928   32.8504  -24.1610 H         1 V02         0.0252
     30 H4         17.2338   33.8175  -22.3732 H         1 V02         0.0426
     31 H5         18.2450   32.3564  -22.1100 H         1 V02         0.0426
     32 H6         17.1765   30.5029  -22.6220 H         1 V02         0.0716
     33 H7         16.6004   33.8940  -25.1128 H         1 V02         0.0691
     34 H8         14.7341   30.1970  -26.0538 H         1 V02         0.0707
     35 H9         15.7142   29.1649  -24.0663 H         1 V02         0.0653
     36 H10        15.8700   33.9408  -28.9608 H         1 V02         0.0760
     37 H11        15.8168   36.3516  -29.4259 H         1 V02         0.0669
     38 H12        14.7227   37.8599  -27.8235 H         1 V02         0.0772
     39 H13        13.6669   36.9617  -25.8033 H         1 V02         0.0669
     40 H14        13.7172   34.5445  -25.3475 H         1 V02         0.0760
     41 H15        17.8201   31.1618  -27.2990 H         1 V02         0.0414
     42 H16        17.5156   32.7932  -26.6115 H         1 V02         0.0414
     43 H17        19.3295   33.4467  -27.7735 H         1 V02         0.0821
     44 H18        18.2944   33.3370  -29.2375 H         1 V02         0.0821
     45 H19        20.2793   32.0396  -29.4416 H         1 V02         0.1994
     46 H20        18.9556   31.0612  -29.4423 H         1 V02         0.1994
     47 H21        19.9041   31.1617  -28.1007 H         1 V02         0.1994
     48 H22        10.5544   31.4230  -25.9081 H         1 V02         0.0644
     49 H23        12.6823   32.4961  -25.3429 H         1 V02         0.0674
     50 H24        14.2323   31.3845  -29.1275 H         1 V02         0.0671
     51 H25        10.2589   30.3239  -28.0847 H         1 V02         0.0705
     52 H26        12.8871   30.2760  -30.4107 H         1 V02         0.2485
@<TRIPOS>BOND
     1    2    1 1  
     2    3    2 1  
     3    3    4 ar 
     4    5    3 ar 
     5    8    4 ar 
     6    6    5 ar 
     7    6    7 ar 
     8    9    6 1  
     9    7    8 ar 
    10    9   15 1  
    11    9   16 1  
    12   22    9 1  
    13   10   11 ar 
    14   15   10 ar 
    15   11   12 ar 
    16   13   12 ar 
    17   14   13 ar 
    18   15   14 ar 
    19   16   17 1  
    20   17   18 1  
    21   18   19 1  
    22   21   20 ar 
    23   20   25 ar 
    24   21   22 ar 
    25   22   23 ar 
    26   23   24 ar 
    27   24   25 ar 
    28   24   26 1  
    29    1   27 1  
    30    1   28 1  
    31    1   29 1  
    32    2   30 1  
    33    2   31 1  
    34    4   32 1  
    35    5   33 1  
    36    7   34 1  
    37    8   35 1  
    38   10   36 1  
    39   11   37 1  
    40   12   38 1  
    41   13   39 1  
    42   14   40 1  
    43   17   41 1  
    44   17   42 1  
    45   18   43 1  
    46   18   44 1  
    47   19   45 1  
    48   19   46 1  
    49   19   47 1  
    50   20   48 1  
    51   21   49 1  
    52   23   50 1  
    53   25   51 1  
    54   26   52 1  
@<TRIPOS>SUBSTRUCTURE
     1 V02         1

