### 
### Created by X-TOOL on Mon Sep 10 21:13:11 2018
### 

@<TRIPOS>MOLECULE
4bbh_ligand
   52    55     1     0     0
SMALL
GAST_HUCK


@<TRIPOS>ATOM
      1 C          24.8180   49.9600   64.2900 C.3       1 YBN         0.0592
      2 N          27.4310   41.0870   68.0210 N.4       1 YBN         0.2271
      3 O          25.1070   49.1830   63.1240 O.3       1 YBN        -0.3230
      4 S          22.4330   41.8270   63.0790 S.3       1 YBN        -0.0427
      5 C1         24.2120   48.2680   62.5730 C.ar      1 YBN         0.0841
      6 O1         24.8340   43.8320   62.8490 O.3       1 YBN        -0.2697
      7 C2         23.1270   48.7210   61.7960 C.ar      1 YBN        -0.0401
      8 O2         26.2070   42.0820   63.5580 O.2       1 YBN        -0.3753
      9 C3         22.2120   47.8150   61.2490 C.ar      1 YBN        -0.0771
     10 O3         24.9680   40.3950   65.5620 O.3       1 YBN        -0.3160
     11 C4         22.3890   46.4420   61.4870 C.ar      1 YBN        -0.0689
     12 C5         23.4690   45.9250   62.2270 C.ar      1 YBN        -0.0221
     13 C6         23.5730   44.3960   62.4110 C.3       1 YBN         0.1062
     14 C7         25.0790   42.4940   63.3910 C.2       1 YBN         0.2532
     15 C8         23.9600   41.6420   63.8310 C.2       1 YBN         0.1305
     16 C9         21.6810   40.6300   64.0340 C.ar      1 YBN         0.0400
     17 C10        20.3230   40.2240   63.9960 C.ar      1 YBN        -0.0468
     18 C11        19.8460   39.2470   64.9260 C.ar      1 YBN        -0.0672
     19 C12        20.7390   38.6940   65.8340 C.ar      1 YBN        -0.0677
     20 C13        22.0770   39.0870   65.8940 C.ar      1 YBN        -0.0574
     21 C14        22.5590   40.0680   64.9900 C.ar      1 YBN         0.0252
     22 C15        23.8590   40.6740   64.8260 C.2       1 YBN         0.1182
     23 C16        24.8370   40.5390   66.9870 C.3       1 YBN         0.0904
     24 C17        25.6540   39.4510   67.6990 C.3       1 YBN         0.0183
     25 C18        27.1150   39.7770   67.4110 C.3       1 YBN        -0.0309
     26 C19        26.6450   42.2520   67.7150 C.3       1 YBN        -0.0309
     27 C20        25.1820   41.9800   67.4510 C.3       1 YBN         0.0183
     28 C21        24.3820   46.8690   62.7700 C.ar      1 YBN        -0.0298
     29 H          23.9402   50.5790   64.1042 H         1 YBN         0.0577
     30 H          24.6229   49.2934   65.1301 H         1 YBN         0.0577
     31 H          25.6714   50.5975   64.5209 H         1 YBN         0.0577
     32 H          28.3585   41.3115   67.6609 H         1 YBN         0.2013
     33 H          27.2788   40.9396   69.0188 H         1 YBN         0.2013
     34 H          22.9993   49.7890   61.6193 H         1 YBN         0.0486
     35 H          21.3748   48.1690   60.6475 H         1 YBN         0.0572
     36 H          21.6565   45.7450   61.0800 H         1 YBN         0.0465
     37 H          22.8650   44.1574   63.2047 H         1 YBN         0.0773
     38 H          23.4059   43.9791   61.4178 H         1 YBN         0.0773
     39 H          19.6442   40.6551   63.2602 H         1 YBN         0.0576
     40 H          18.7995   38.9421   64.9218 H         1 YBN         0.0597
     41 H          20.3835   37.9276   66.5227 H         1 YBN         0.0563
     42 H          22.7468   38.6431   66.6305 H         1 YBN         0.0609
     43 H          23.7944   40.3917   67.2686 H         1 YBN         0.0654
     44 H          25.3903   38.4565   67.3391 H         1 YBN         0.0346
     45 H          25.4529   39.4401   68.7702 H         1 YBN         0.0346
     46 H          27.7591   39.0049   67.8318 H         1 YBN         0.0815
     47 H          27.2828   39.8169   66.3347 H         1 YBN         0.0815
     48 H          27.0568   42.6797   66.8009 H         1 YBN         0.0815
     49 H          26.6927   42.9034   68.5876 H         1 YBN         0.0815
     50 H          24.6645   42.1310   68.3984 H         1 YBN         0.0346
     51 H          24.8865   42.6444   66.6390 H         1 YBN         0.0346
     52 H          25.2327   46.5130   63.3512 H         1 YBN         0.0479
@<TRIPOS>BOND
     1    3    1 1  
     2   25    2 1  
     3    2   26 1  
     4    5    3 1  
     5   15    4 1  
     6   16    4 1  
     7    5    7 ar 
     8   28    5 ar 
     9    6   13 1  
    10   14    6 1  
    11    9    7 ar 
    12   14    8 2  
    13   11    9 ar 
    14   10   22 1  
    15   23   10 1  
    16   12   11 ar 
    17   13   12 1  
    18   12   28 ar 
    19   15   14 1  
    20   22   15 2  
    21   16   17 ar 
    22   21   16 ar 
    23   17   18 ar 
    24   19   18 ar 
    25   20   19 ar 
    26   21   20 ar 
    27   22   21 1  
    28   24   23 1  
    29   23   27 1  
    30   24   25 1  
    31   26   27 1  
    32    1   29 1  
    33    1   30 1  
    34    1   31 1  
    35    2   32 1  
    36    2   33 1  
    37    7   34 1  
    38    9   35 1  
    39   11   36 1  
    40   13   37 1  
    41   13   38 1  
    42   17   39 1  
    43   18   40 1  
    44   19   41 1  
    45   20   42 1  
    46   23   43 1  
    47   24   44 1  
    48   24   45 1  
    49   25   46 1  
    50   25   47 1  
    51   26   48 1  
    52   26   49 1  
    53   27   50 1  
    54   27   51 1  
    55   28   52 1  
@<TRIPOS>SUBSTRUCTURE
     1 YBN         1

