### 
### Created by X-TOOL on Mon Sep 10 21:13:09 2018
### 

@<TRIPOS>MOLECULE
4bc5_ligand
   19    18     1     0     0
SMALL
GAST_HUCK


@<TRIPOS>ATOM
      1 C1         13.7970   -0.4910   29.2660 C.3       1 5FX         0.1198
      2 O1         13.9580    0.8860   29.5850 O.3       1 5FX        -0.3756
      3 C2         14.9010   -1.3640   29.9260 C.2       1 5FX         0.1614
      4 O2         15.7190   -0.9170   30.6970 O.2       1 5FX        -0.3863
      5 C3         14.9750   -2.8260   29.5940 C.3       1 5FX         0.1580
      6 O3         13.7970   -3.3060   28.9740 O.3       1 5FX        -0.3697
      7 C4         16.2730   -3.1700   28.7870 C.3       1 5FX         0.1250
      8 O4         16.1590   -2.7380   27.4240 O.3       1 5FX        -0.3842
      9 C5         16.3790   -4.7090   28.7750 C.3       1 5FX         0.1206
     10 F          17.6090   -5.0480   28.1400 F         1 5FX        -0.2461
     11 H1         13.8505   -0.6132   28.1741 H         1 5FX         0.0793
     12 H2         12.8133   -0.8280   29.6249 H         1 5FX         0.0793
     13 H3         14.8041    1.1853   29.2734 H         1 5FX         0.2130
     14 H4         15.0555   -3.3590   30.5529 H         1 5FX         0.0857
     15 H5         13.8946   -4.2320   28.7853 H         1 5FX         0.2135
     16 H6         17.1545   -2.7128   29.2603 H         1 5FX         0.0672
     17 H7         15.4205   -3.1742   27.0154 H         1 5FX         0.2102
     18 H8         15.5359   -5.1393   28.2147 H         1 5FX         0.0643
     19 H9         16.3694   -5.0943   29.8052 H         1 5FX         0.0643
@<TRIPOS>BOND
     1    1    2 1  
     2    1    3 1  
     3    3    4 2  
     4    3    5 1  
     5    5    6 1  
     6    5    7 1  
     7    7    8 1  
     8    7    9 1  
     9    9   10 1  
    10    1   11 1  
    11    1   12 1  
    12    2   13 1  
    13    5   14 1  
    14    6   15 1  
    15    7   16 1  
    16    8   17 1  
    17    9   18 1  
    18    9   19 1  
@<TRIPOS>SUBSTRUCTURE
     1 5FX         1

