### 
### Created by X-TOOL on Mon Sep 10 21:13:12 2018
### 

@<TRIPOS>MOLECULE
4bcd_ligand
   65    69     1     0     0
SMALL
GAST_HUCK


@<TRIPOS>ATOM
      1 C12        42.7490   37.6400   86.5450 C.3       1 TDV         0.0393
      2 C13        44.1820   37.9120   86.0560 C.3       1 TDV        -0.0263
      3 C14        45.2600   37.8390   87.1530 C.3       1 TDV        -0.0171
      4 C15        45.3870   36.4340   87.7660 C.ar      1 TDV        -0.0429
      5 C20        45.6020   35.3310   86.9580 C.ar      1 TDV        -0.0603
      6 C16        45.3150   36.3010   89.1400 C.ar      1 TDV        -0.0603
      7 C19        45.7180   34.0590   87.5160 C.ar      1 TDV        -0.0686
      8 C17        45.4190   35.0230   89.7220 C.ar      1 TDV        -0.0686
      9 C18        45.6260   33.9000   88.9050 C.ar      1 TDV        -0.0687
     10 C10        41.7980   37.2600   85.4110 C.2       1 TDV         0.1810
     11 O11        42.2140   37.1100   84.2470 O.2       1 TDV        -0.3967
     12 F35        33.2450   42.1010   91.8400 F         1 TDV        -0.1864
     13 C32        33.9950   41.1550   91.2410 C.ar      1 TDV         0.1284
     14 C31        35.0640   41.5440   90.4340 C.ar      1 TDV        -0.0320
     15 C30        35.8480   40.5720   89.8100 C.ar      1 TDV        -0.0613
     16 C33        33.7090   39.7960   91.4210 C.ar      1 TDV        -0.0320
     17 C34        34.5010   38.8240   90.7930 C.ar      1 TDV        -0.0613
     18 C29        35.5800   39.2090   89.9920 C.ar      1 TDV        -0.0231
     19 C27        36.4380   38.1840   89.3000 C.2       1 TDV         0.0673
     20 N26        36.5160   36.9620   89.8650 N.2       1 TDV        -0.2175
     21 N25        37.3460   36.1710   89.0430 N.2       1 TDV        -0.0909
     22 C28        37.2130   38.2500   88.1620 C.2       1 TDV         0.0866
     23 N24        37.7220   37.0290   87.9950 N.pl3     1 TDV        -0.1627
     24 C22        38.6460   36.4510   86.9730 C.3       1 TDV         0.1148
     25 C21        39.9230   37.2530   87.0930 C.3       1 TDV         0.0706
     26 C23        38.1770   36.6100   85.5260 C.3       1 TDV         0.0236
     27 C8         39.4810   36.7340   84.7400 C.3       1 TDV         0.1369
     28 C6         39.4000   37.7860   83.6440 C.2       1 TDV         0.2044
     29 O7         39.7200   38.9680   83.8730 O.2       1 TDV        -0.3943
     30 N9         40.5000   37.1040   85.7370 N.am      1 TDV        -0.2484
     31 N5         38.9760   37.4040   82.4450 N.am      1 TDV        -0.2713
     32 C4         38.8990   38.3780   81.3470 C.3       1 TDV         0.0340
     33 C3         38.4340   37.5290   80.1780 C.3       1 TDV        -0.0307
     34 C2         37.7060   36.3580   80.8660 C.3       1 TDV        -0.0307
     35 C1         38.5400   36.0370   82.1090 C.3       1 TDV         0.0340
     36 H1         42.3667   38.5476   87.0349 H         1 TDV         0.0504
     37 H2         42.7764   36.8148   87.2719 H         1 TDV         0.0504
     38 H3         44.2086   38.9198   85.6159 H         1 TDV         0.0312
     39 H4         44.4278   37.1681   85.2839 H         1 TDV         0.0312
     40 H5         44.9987   38.5492   87.9513 H         1 TDV         0.0427
     41 H6         46.2286   38.1206   86.7142 H         1 TDV         0.0427
     42 H7         45.6807   35.4572   85.8842 H         1 TDV         0.0557
     43 H8         45.1792   37.1756   89.7659 H         1 TDV         0.0557
     44 H9         45.8786   33.1971   86.8785 H         1 TDV         0.0599
     45 H10        45.3395   34.9066   90.7968 H         1 TDV         0.0599
     46 H11        45.7143   32.9142   89.3470 H         1 TDV         0.0559
     47 H12        35.2849   42.5957   90.2921 H         1 TDV         0.0595
     48 H13        36.6740   40.8755   89.1771 H         1 TDV         0.0574
     49 H14        32.8756   39.4955   92.0456 H         1 TDV         0.0595
     50 H15        34.2761   37.7723   90.9289 H         1 TDV         0.0574
     51 H16        37.3761   39.1210   87.5290 H         1 TDV         0.1065
     52 H17        38.8180   35.3861   87.1886 H         1 TDV         0.0714
     53 H18        40.5896   36.8331   87.8607 H         1 TDV         0.0557
     54 H19        39.7138   38.3075   87.3260 H         1 TDV         0.0557
     55 H20        37.5604   37.5134   85.4096 H         1 TDV         0.0346
     56 H21        37.6034   35.7300   85.1996 H         1 TDV         0.0346
     57 H22        39.7328   35.7660   84.2823 H         1 TDV         0.0803
     58 H23        39.8830   38.8261   81.1448 H         1 TDV         0.0522
     59 H24        38.1733   39.1733   81.5727 H         1 TDV         0.0522
     60 H25        39.2886   37.1697   79.5860 H         1 TDV         0.0285
     61 H26        37.7488   38.0929   79.5280 H         1 TDV         0.0285
     62 H27        37.6608   35.4861   80.1969 H         1 TDV         0.0285
     63 H28        36.6859   36.6536   81.1525 H         1 TDV         0.0285
     64 H29        37.9335   35.5879   82.9093 H         1 TDV         0.0522
     65 H30        39.3892   35.3770   81.8781 H         1 TDV         0.0522
@<TRIPOS>BOND
     1    1    2 1  
     2   10    1 1  
     3    2    3 1  
     4    3    4 1  
     5    4    5 ar 
     6    4    6 ar 
     7    5    7 ar 
     8    6    8 ar 
     9    7    9 ar 
    10    8    9 ar 
    11   10   11 2  
    12   30   10 am 
    13   13   12 1  
    14   14   13 ar 
    15   16   13 ar 
    16   15   14 ar 
    17   18   15 ar 
    18   17   16 ar 
    19   18   17 ar 
    20   19   18 1  
    21   19   20 1  
    22   22   19 2  
    23   21   20 2  
    24   23   21 1  
    25   23   22 1  
    26   24   23 1  
    27   25   24 1  
    28   24   26 1  
    29   25   30 1  
    30   26   27 1  
    31   27   28 1  
    32   27   30 1  
    33   28   29 2  
    34   28   31 am 
    35   31   32 1  
    36   31   35 1  
    37   32   33 1  
    38   33   34 1  
    39   34   35 1  
    40    1   36 1  
    41    1   37 1  
    42    2   38 1  
    43    2   39 1  
    44    3   40 1  
    45    3   41 1  
    46    5   42 1  
    47    6   43 1  
    48    7   44 1  
    49    8   45 1  
    50    9   46 1  
    51   14   47 1  
    52   15   48 1  
    53   16   49 1  
    54   17   50 1  
    55   22   51 1  
    56   24   52 1  
    57   25   53 1  
    58   25   54 1  
    59   26   55 1  
    60   26   56 1  
    61   27   57 1  
    62   32   58 1  
    63   32   59 1  
    64   33   60 1  
    65   33   61 1  
    66   34   62 1  
    67   34   63 1  
    68   35   64 1  
    69   35   65 1  
@<TRIPOS>SUBSTRUCTURE
     1 TDV         1

