### 
### Created by X-TOOL on Mon Sep 10 21:13:13 2018
### 

@<TRIPOS>MOLECULE
4bcf_ligand
   59    62     1     0     0
SMALL
GAST_HUCK


@<TRIPOS>ATOM
      1 C01        49.0660  -19.3240  -10.4380 C.3       1 T6Q         0.0249
      2 N02        50.1740  -19.3740  -11.3640 N.pl3     1 T6Q        -0.2796
      3 C03        50.7870  -18.2040  -11.8460 C.2       1 T6Q         0.1927
      4 N04        50.3660  -17.3680  -12.7950 N.2       1 T6Q        -0.2860
      5 C05        51.1630  -16.3110  -13.0980 C.2       1 T6Q         0.0107
      6 C06        50.7040  -15.3590  -14.1970 C.3       1 T6Q        -0.0212
      7 C07        52.3450  -16.1790  -12.3410 C.2       1 T6Q         0.0694
      8 C08        53.4380  -15.2830  -12.3350 C.ar      1 T6Q         0.0694
      9 N09        54.7170  -15.8110  -12.2700 N.ar      1 T6Q        -0.2577
     10 C10        55.8300  -14.9830  -12.2790 C.ar      1 T6Q         0.2027
     11 N11        57.1780  -15.5320  -12.2220 N.pl3     1 T6Q        -0.2428
     12 C12        57.4890  -16.9070  -11.8550 C.ar      1 T6Q         0.0554
     13 C13        58.8440  -17.1350  -11.5460 C.ar      1 T6Q        -0.0508
     14 C14        59.2550  -18.4120  -11.1910 C.ar      1 T6Q        -0.0824
     15 C15        58.2940  -19.4680  -11.1510 C.ar      1 T6Q        -0.0555
     16 C16        56.9490  -19.2590  -11.4450 C.ar      1 T6Q         0.0304
     17 N17        56.0180  -20.4020  -11.3660 N.pl3     1 T6Q        -0.3090
     18 C18        56.8300  -21.5310  -11.7140 C.3       1 T6Q         0.0284
     19 C19        57.1170  -22.4160  -10.5550 C.3       1 T6Q        -0.0128
     20 C20        56.0040  -22.4210   -9.5580 C.3       1 T6Q         0.0357
     21 N21        54.6740  -22.6090  -10.0820 N.am      1 T6Q        -0.2715
     22 C22        53.9190  -23.7130   -9.4310 C.2       1 T6Q         0.1754
     23 C23        52.4940  -24.1030   -9.7940 C.3       1 T6Q         0.0258
     24 O24        54.4420  -24.3750   -8.5320 O.2       1 T6Q        -0.3972
     25 C25        53.9960  -21.8580  -11.1380 C.3       1 T6Q         0.0534
     26 C26        54.6240  -20.5910  -11.6860 C.3       1 T6Q         0.0469
     27 C27        56.5280  -17.9720  -11.8160 C.ar      1 T6Q        -0.0214
     28 N28        55.7070  -13.6290  -12.3370 N.ar      1 T6Q        -0.2532
     29 C29        54.4320  -13.0720  -12.3910 C.ar      1 T6Q         0.0358
     30 C30        53.2770  -13.8870  -12.3950 C.ar      1 T6Q         0.1204
     31 C31        51.9350  -13.2770  -12.4050 C.1       1 T6Q         0.0888
     32 N32        50.8740  -12.7960  -12.4410 N.1       1 T6Q        -0.3429
     33 S33        52.2960  -17.5530  -11.3700 S.3       1 T6Q         0.0211
     34 H1         48.7444  -20.3476  -10.1955 H         1 T6Q         0.0500
     35 H2         48.2296  -18.7758  -10.8962 H         1 T6Q         0.0500
     36 H3         49.3804  -18.8107   -9.5173 H         1 T6Q         0.0500
     37 H4         50.5237  -20.2901  -11.6791 H         1 T6Q         0.1948
     38 H5         51.4495  -14.5604  -14.3253 H         1 T6Q         0.0426
     39 H6         49.7366  -14.9160  -13.9180 H         1 T6Q         0.0426
     40 H7         50.5948  -15.9137  -15.1406 H         1 T6Q         0.0426
     41 H8         57.9625  -14.9072  -12.4565 H         1 T6Q         0.2203
     42 H9         59.5588  -16.3210  -11.5851 H         1 T6Q         0.0432
     43 H10        60.2932  -18.6059  -10.9469 H         1 T6Q         0.0556
     44 H11        58.6227  -20.4655  -10.8828 H         1 T6Q         0.0425
     45 H12        57.7842  -21.1650  -12.1209 H         1 T6Q         0.0514
     46 H13        56.3048  -22.1177  -12.4820 H         1 T6Q         0.0514
     47 H14        58.0342  -22.0646  -10.0598 H         1 T6Q         0.0304
     48 H15        57.2683  -23.4419  -10.9218 H         1 T6Q         0.0304
     49 H16        56.0225  -21.4556   -9.0310 H         1 T6Q         0.0523
     50 H17        56.1995  -23.2332   -8.8424 H         1 T6Q         0.0523
     51 H18        52.1733  -24.9467   -9.1653 H         1 T6Q         0.0467
     52 H19        52.4531  -24.3985  -10.8528 H         1 T6Q         0.0467
     53 H20        51.8252  -23.2459   -9.6264 H         1 T6Q         0.0467
     54 H21        53.0072  -21.5788  -10.7453 H         1 T6Q         0.0542
     55 H22        53.8723  -22.5452  -11.9880 H         1 T6Q         0.0542
     56 H23        54.5271  -20.6108  -12.7815 H         1 T6Q         0.0533
     57 H24        54.0643  -19.7337  -11.2838 H         1 T6Q         0.0533
     58 H25        55.4908  -17.7853  -12.0696 H         1 T6Q         0.0430
     59 H26        54.3232  -11.9942  -12.4307 H         1 T6Q         0.0960
@<TRIPOS>BOND
     1    1    2 1  
     2    2    3 1  
     3    3    4 2  
     4    3   33 1  
     5    4    5 1  
     6    5    6 1  
     7    5    7 2  
     8    7    8 1  
     9    7   33 1  
    10    8    9 ar 
    11    8   30 ar 
    12    9   10 ar 
    13   10   11 1  
    14   10   28 ar 
    15   11   12 1  
    16   12   13 ar 
    17   12   27 ar 
    18   13   14 ar 
    19   14   15 ar 
    20   15   16 ar 
    21   16   17 1  
    22   16   27 ar 
    23   17   18 1  
    24   17   26 1  
    25   18   19 1  
    26   19   20 1  
    27   20   21 1  
    28   21   22 am 
    29   21   25 1  
    30   22   23 1  
    31   22   24 2  
    32   25   26 1  
    33   28   29 ar 
    34   29   30 ar 
    35   30   31 1  
    36   31   32 3  
    37    1   34 1  
    38    1   35 1  
    39    1   36 1  
    40    2   37 1  
    41    6   38 1  
    42    6   39 1  
    43    6   40 1  
    44   11   41 1  
    45   13   42 1  
    46   14   43 1  
    47   15   44 1  
    48   18   45 1  
    49   18   46 1  
    50   19   47 1  
    51   19   48 1  
    52   20   49 1  
    53   20   50 1  
    54   23   51 1  
    55   23   52 1  
    56   23   53 1  
    57   25   54 1  
    58   25   55 1  
    59   26   56 1  
    60   26   57 1  
    61   27   58 1  
    62   29   59 1  
@<TRIPOS>SUBSTRUCTURE
     1 T6Q         1

