### 
### Created by X-TOOL on Mon Sep 10 21:13:12 2018
### 

@<TRIPOS>MOLECULE
4bcg_ligand
   55    58     1     0     0
SMALL
GAST_HUCK


@<TRIPOS>ATOM
      1 C01        50.5740  -19.8360  -10.6280 C.3       1 T3C         0.0249
      2 N02        50.2220  -19.3400  -11.9470 N.pl3     1 T3C        -0.2796
      3 C03        50.9370  -18.1970  -12.4380 C.2       1 T3C         0.1927
      4 N04        50.6050  -17.3500  -13.4110 N.2       1 T3C        -0.2860
      5 C05        51.4730  -16.3520  -13.6650 C.2       1 T3C         0.0107
      6 C06        51.1060  -15.3640  -14.7890 C.3       1 T3C        -0.0212
      7 C07        52.6460  -16.2920  -12.8720 C.2       1 T3C         0.0694
      8 C08        53.7300  -15.4270  -12.8460 C.ar      1 T3C         0.0694
      9 N09        54.9980  -15.9560  -12.8120 N.ar      1 T3C        -0.2577
     10 C10        56.0730  -15.1420  -12.7820 C.ar      1 T3C         0.2027
     11 N11        57.4290  -15.6860  -12.7670 N.pl3     1 T3C        -0.2428
     12 C12        57.7630  -17.0210  -12.3980 C.ar      1 T3C         0.0554
     13 C13        59.1270  -17.2020  -11.9920 C.ar      1 T3C        -0.0508
     14 C14        59.5820  -18.4540  -11.6090 C.ar      1 T3C        -0.0824
     15 C15        58.6980  -19.5510  -11.6230 C.ar      1 T3C        -0.0555
     16 C16        57.3610  -19.4050  -12.0260 C.ar      1 T3C         0.0306
     17 N17        56.5160  -20.6180  -12.0290 N.pl3     1 T3C        -0.3058
     18 C18        56.9880  -21.9900  -12.0520 C.3       1 T3C         0.0316
     19 C19        56.9440  -22.7590  -10.7640 C.3       1 T3C         0.0071
     20 C20        55.5460  -23.1440  -10.3380 C.3       1 T3C        -0.0318
     21 N21        54.5080  -22.6970  -11.2350 N.4       1 T3C         0.2284
     22 C22        54.2330  -21.2740  -11.3360 C.3       1 T3C        -0.0136
     23 C23        55.4270  -20.3730  -11.1320 C.3       1 T3C         0.0664
     24 C24        56.8840  -18.1220  -12.4280 C.ar      1 T3C        -0.0214
     25 N25        55.9440  -13.7770  -12.7810 N.ar      1 T3C        -0.2532
     26 C26        54.6940  -13.2090  -12.8090 C.ar      1 T3C         0.0358
     27 C27        53.5630  -14.0160  -12.8320 C.ar      1 T3C         0.1204
     28 C28        52.2110  -13.4080  -12.8240 C.1       1 T3C         0.0888
     29 N29        51.1650  -12.9450  -12.8190 N.1       1 T3C        -0.3429
     30 S30        52.4700  -17.6320  -11.8770 S.3       1 T3C         0.0211
     31 H1         49.9492  -20.7082  -10.3855 H         1 T3C         0.0500
     32 H2         50.4054  -19.0455   -9.8819 H         1 T3C         0.0500
     33 H3         51.6339  -20.1300  -10.6176 H         1 T3C         0.0500
     34 H4         49.4865  -19.7919  -12.5089 H         1 T3C         0.1948
     35 H5         51.8988  -14.6076  -14.8855 H         1 T3C         0.0426
     36 H6         50.1544  -14.8688  -14.5457 H         1 T3C         0.0426
     37 H7         51.0029  -15.9103  -15.7382 H         1 T3C         0.0426
     38 H8         58.1986  -15.0595  -13.0430 H         1 T3C         0.2203
     39 H9         59.8047  -16.3560  -11.9847 H         1 T3C         0.0432
     40 H10        60.6124  -18.5884  -11.3004 H         1 T3C         0.0556
     41 H11        59.0571  -20.5268  -11.3166 H         1 T3C         0.0425
     42 H12        58.0346  -21.9729  -12.3900 H         1 T3C         0.0515
     43 H13        56.3753  -22.5371  -12.7836 H         1 T3C         0.0515
     44 H14        57.3904  -22.1386   -9.9729 H         1 T3C         0.0336
     45 H15        57.5357  -23.6781  -10.8870 H         1 T3C         0.0336
     46 H16        55.3556  -22.7080   -9.3462 H         1 T3C         0.0814
     47 H17        55.4956  -24.2409  -10.2721 H         1 T3C         0.0814
     48 H18        53.6526  -23.1437  -10.9438 H         1 T3C         0.2014
     49 H19        54.7567  -23.0166  -12.1581 H         1 T3C         0.2014
     50 H20        53.4798  -21.0181  -10.5763 H         1 T3C         0.0833
     51 H21        53.8248  -21.0765  -12.3382 H         1 T3C         0.0833
     52 H22        55.0986  -19.3318  -11.2665 H         1 T3C         0.0566
     53 H23        55.7910  -20.5127  -10.1034 H         1 T3C         0.0566
     54 H24        55.8575  -17.9956  -12.7527 H         1 T3C         0.0430
     55 H25        54.5895  -12.1301  -12.8132 H         1 T3C         0.0960
@<TRIPOS>BOND
     1    1    2 1  
     2    2    3 1  
     3    3    4 2  
     4    3   30 1  
     5    4    5 1  
     6    5    6 1  
     7    5    7 2  
     8    7    8 1  
     9    7   30 1  
    10    8    9 ar 
    11    8   27 ar 
    12    9   10 ar 
    13   10   11 1  
    14   10   25 ar 
    15   11   12 1  
    16   12   13 ar 
    17   12   24 ar 
    18   13   14 ar 
    19   14   15 ar 
    20   15   16 ar 
    21   16   17 1  
    22   16   24 ar 
    23   17   18 1  
    24   17   23 1  
    25   18   19 1  
    26   19   20 1  
    27   20   21 1  
    28   21   22 1  
    29   22   23 1  
    30   25   26 ar 
    31   26   27 ar 
    32   27   28 1  
    33   28   29 3  
    34    1   31 1  
    35    1   32 1  
    36    1   33 1  
    37    2   34 1  
    38    6   35 1  
    39    6   36 1  
    40    6   37 1  
    41   11   38 1  
    42   13   39 1  
    43   14   40 1  
    44   15   41 1  
    45   18   42 1  
    46   18   43 1  
    47   19   44 1  
    48   19   45 1  
    49   20   46 1  
    50   20   47 1  
    51   21   48 1  
    52   21   49 1  
    53   22   50 1  
    54   22   51 1  
    55   23   52 1  
    56   23   53 1  
    57   24   54 1  
    58   26   55 1  
@<TRIPOS>SUBSTRUCTURE
     1 T3C         1

