### 
### Created by X-TOOL on Mon Sep 10 21:13:13 2018
### 

@<TRIPOS>MOLECULE
4bch_ligand
   56    59     1     0     0
SMALL
GAST_HUCK


@<TRIPOS>ATOM
      1 C01        49.3510  -19.2010  -11.3300 C.3       1 T7Z         0.0249
      2 N02        50.6190  -19.2770  -11.9540 N.pl3     1 T7Z        -0.2796
      3 C03        51.3050  -18.0770  -12.3950 C.2       1 T7Z         0.1927
      4 N04        50.8380  -17.1700  -13.3770 N.2       1 T7Z        -0.2860
      5 C05        51.8330  -16.0720  -13.5630 C.2       1 T7Z         0.0107
      6 C06        51.6050  -14.9380  -14.5190 C.3       1 T7Z        -0.0212
      7 C07        52.9730  -16.2580  -12.6990 C.2       1 T7Z         0.0693
      8 C08        54.1850  -15.3490  -12.6580 C.ar      1 T7Z         0.0691
      9 N09        55.4360  -15.8870  -12.6920 N.ar      1 T7Z        -0.2582
     10 C10        56.5300  -15.0800  -12.6620 C.ar      1 T7Z         0.2014
     11 N11        57.8580  -15.6510  -12.6560 N.pl3     1 T7Z        -0.2435
     12 C12        58.1750  -17.0420  -12.3190 C.ar      1 T7Z         0.0629
     13 C13        57.1690  -17.9960  -12.3130 C.ar      1 T7Z        -0.0171
     14 C14        57.4720  -19.3500  -12.0230 C.ar      1 T7Z         0.1010
     15 S15        56.1260  -20.5550  -12.0120 S.o2      1 T7Z         0.0659
     16 N16        56.5960  -21.7600  -11.0070 N.am      1 T7Z        -0.2307
     17 C17        55.8360  -21.7720   -9.8850 C.3       1 T7Z         0.0530
     18 C18        54.9250  -22.9760   -9.8670 C.3       1 T7Z         0.0647
     19 O19        55.6360  -24.2210  -10.1620 O.3       1 T7Z        -0.3766
     20 C20        56.4710  -24.0820  -11.3720 C.3       1 T7Z         0.0647
     21 C21        57.2980  -22.8320  -11.4500 C.3       1 T7Z         0.0530
     22 O22        54.9430  -19.9590  -11.4790 O.2       1 T7Z        -0.1513
     23 O23        55.8210  -21.0580  -13.3300 O.2       1 T7Z        -0.1513
     24 C24        58.7960  -19.7370  -11.7320 C.ar      1 T7Z        -0.0302
     25 C25        59.1410  -21.1500  -11.4210 C.3       1 T7Z        -0.0343
     26 C26        59.8160  -18.7990  -11.7550 C.ar      1 T7Z        -0.0673
     27 C27        59.4990  -17.4470  -12.0550 C.ar      1 T7Z        -0.0436
     28 N28        56.3980  -13.7400  -12.6440 N.ar      1 T7Z        -0.2536
     29 C29        55.1630  -13.1700  -12.6170 C.ar      1 T7Z         0.0355
     30 C30        53.9930  -13.9820  -12.6270 C.ar      1 T7Z         0.1202
     31 C31        52.6190  -13.4260  -12.5600 C.1       1 T7Z         0.0886
     32 N32        51.5350  -12.9940  -12.5140 N.1       1 T7Z        -0.3431
     33 S33        52.7730  -17.5950  -11.8280 S.3       1 T7Z         0.0211
     34 H1         49.0068  -20.2140  -11.0745 H         1 T7Z         0.0500
     35 H2         48.6316  -18.7318  -12.0173 H         1 T7Z         0.0500
     36 H3         49.4290  -18.5982  -10.4132 H         1 T7Z         0.0500
     37 H4         51.0607  -20.1964  -12.0970 H         1 T7Z         0.1948
     38 H5         52.4658  -14.2539  -14.4883 H         1 T7Z         0.0426
     39 H6         50.6936  -14.3935  -14.2313 H         1 T7Z         0.0426
     40 H7         51.4886  -15.3353  -15.5381 H         1 T7Z         0.0426
     41 H8         58.6422  -15.0326  -12.9080 H         1 T7Z         0.2189
     42 H9         56.1476  -17.7055  -12.5308 H         1 T7Z         0.0543
     43 H10        55.2256  -20.8575   -9.8532 H         1 T7Z         0.0501
     44 H11        56.4940  -21.8045   -9.0041 H         1 T7Z         0.0501
     45 H12        54.1364  -22.8331  -10.6204 H         1 T7Z         0.0576
     46 H13        54.4686  -23.0582   -8.8695 H         1 T7Z         0.0576
     47 H14        55.8047  -24.1019  -12.2470 H         1 T7Z         0.0576
     48 H15        57.1546  -24.9429  -11.4120 H         1 T7Z         0.0576
     49 H16        58.1973  -22.9556  -10.8287 H         1 T7Z         0.0501
     50 H17        57.5951  -22.6612  -12.4952 H         1 T7Z         0.0501
     51 H18        60.2207  -21.2294  -11.2260 H         1 T7Z         0.0371
     52 H19        58.8748  -21.7891  -12.2758 H         1 T7Z         0.0371
     53 H20        58.5828  -21.4764  -10.5312 H         1 T7Z         0.0371
     54 H21        60.8388  -19.0921  -11.5475 H         1 T7Z         0.0531
     55 H22        60.2935  -16.7101  -12.0815 H         1 T7Z         0.0524
     56 H23        55.0689  -12.0905  -12.5877 H         1 T7Z         0.0960
@<TRIPOS>BOND
     1    1    2 1  
     2    2    3 1  
     3    3    4 2  
     4    3   33 1  
     5    4    5 1  
     6    5    6 1  
     7    5    7 2  
     8    7    8 1  
     9    7   33 1  
    10    8    9 ar 
    11    8   30 ar 
    12    9   10 ar 
    13   10   11 1  
    14   10   28 ar 
    15   11   12 1  
    16   12   13 ar 
    17   12   27 ar 
    18   13   14 ar 
    19   14   15 1  
    20   14   24 ar 
    21   15   16 am 
    22   15   22 2  
    23   15   23 2  
    24   16   17 1  
    25   16   21 1  
    26   17   18 1  
    27   18   19 1  
    28   19   20 1  
    29   20   21 1  
    30   24   25 1  
    31   24   26 ar 
    32   26   27 ar 
    33   28   29 ar 
    34   29   30 ar 
    35   30   31 1  
    36   31   32 3  
    37    1   34 1  
    38    1   35 1  
    39    1   36 1  
    40    2   37 1  
    41    6   38 1  
    42    6   39 1  
    43    6   40 1  
    44   11   41 1  
    45   13   42 1  
    46   17   43 1  
    47   17   44 1  
    48   18   45 1  
    49   18   46 1  
    50   20   47 1  
    51   20   48 1  
    52   21   49 1  
    53   21   50 1  
    54   25   51 1  
    55   25   52 1  
    56   25   53 1  
    57   26   54 1  
    58   27   55 1  
    59   29   56 1  
@<TRIPOS>SUBSTRUCTURE
     1 T7Z         1

