### 
### Created by X-TOOL on Mon Sep 10 21:13:13 2018
### 

@<TRIPOS>MOLECULE
4bci_ligand
   42    44     1     0     0
SMALL
GAST_HUCK


@<TRIPOS>ATOM
      1 C7A        51.1150  -20.7230  -12.7410 C.3       1 T3E         0.0249
      2 N6A        50.8460  -19.4970  -11.9990 N.pl3     1 T3E        -0.2796
      3 C3A        51.4090  -18.2480  -12.4450 C.2       1 T3E         0.1927
      4 N2A        50.7660  -17.3590  -13.2820 N.2       1 T3E        -0.2860
      5 C1A        51.6240  -16.1910  -13.5510 C.2       1 T3E         0.0107
      6 C8A        51.1460  -15.1550  -14.4660 C.3       1 T3E        -0.0212
      7 C5A        52.8670  -16.2710  -12.8720 C.2       1 T3E         0.0694
      8 C4         54.0180  -15.3420  -12.8380 C.ar      1 T3E         0.0694
      9 N3         55.2880  -15.8380  -12.7550 N.ar      1 T3E        -0.2577
     10 C2         56.3650  -14.9440  -12.6880 C.ar      1 T3E         0.2029
     11 N7         57.7230  -15.3990  -12.6060 N.pl3     1 T3E        -0.2398
     12 C1B        58.0390  -16.8030  -12.4070 C.ar      1 T3E         0.0694
     13 C2B        59.3620  -17.1120  -12.6570 C.ar      1 T3E        -0.0110
     14 C3B        59.7860  -18.4400  -12.5060 C.ar      1 T3E         0.0989
     15 S7B        61.4780  -18.7640  -12.8910 S.o2      1 T3E         0.0634
     16 O8B        61.7010  -20.1820  -12.6590 O.2       1 T3E        -0.1507
     17 N9B        62.4180  -17.8850  -11.8720 N.am      1 T3E        -0.2611
     18 O1B        61.6810  -18.3490  -14.2730 O.2       1 T3E        -0.1507
     19 C4B        58.9200  -19.4690  -12.0940 C.ar      1 T3E        -0.0464
     20 C5B        57.5800  -19.1640  -11.8280 C.ar      1 T3E        -0.0692
     21 C6B        57.1440  -17.8220  -11.9980 C.ar      1 T3E        -0.0374
     22 N1         56.1970  -13.5870  -12.7100 N.ar      1 T3E        -0.2532
     23 C6         54.9060  -13.1260  -12.7780 C.ar      1 T3E         0.0358
     24 C5         53.8250  -13.9920  -12.8290 C.ar      1 T3E         0.1204
     25 C8         52.4580  -13.4200  -12.8070 C.1       1 T3E         0.0888
     26 N9         51.4010  -12.9700  -12.8550 N.1       1 T3E        -0.3429
     27 S4A        52.8860  -17.6360  -12.1050 S.3       1 T3E         0.0211
     28 H1         50.6047  -21.5664  -12.2529 H         1 T3E         0.0500
     29 H2         52.1987  -20.9107  -12.7585 H         1 T3E         0.0500
     30 H3         50.7445  -20.6169  -13.7713 H         1 T3E         0.0500
     31 H4         50.2539  -19.5238  -11.1566 H         1 T3E         0.1948
     32 H5         51.9047  -14.3631  -14.5518 H         1 T3E         0.0426
     33 H6         50.2105  -14.7260  -14.0777 H         1 T3E         0.0426
     34 H7         50.9634  -15.5966  -15.4568 H         1 T3E         0.0426
     35 H8         58.4897  -14.7163  -12.6899 H         1 T3E         0.2206
     36 H9         60.0599  -16.3416  -12.9644 H         1 T3E         0.0559
     37 H10        63.4143  -17.9388  -11.9392 H         1 T3E         0.1635
     38 H11        61.9943  -17.2957  -11.1840 H         1 T3E         0.1635
     39 H12        59.2851  -20.4837  -11.9841 H         1 T3E         0.0541
     40 H13        56.8907  -19.9336  -11.4999 H         1 T3E         0.0589
     41 H14        56.1057  -17.5732  -11.8109 H         1 T3E         0.0539
     42 H15        54.7272  -12.0569  -12.7922 H         1 T3E         0.0960
@<TRIPOS>BOND
     1    1    2 1  
     2    2    3 1  
     3    3    4 2  
     4    3   27 1  
     5    4    5 1  
     6    5    6 1  
     7    5    7 2  
     8    7    8 1  
     9    7   27 1  
    10    8    9 ar 
    11    8   24 ar 
    12    9   10 ar 
    13   10   11 1  
    14   10   22 ar 
    15   11   12 1  
    16   12   13 ar 
    17   12   21 ar 
    18   13   14 ar 
    19   14   15 1  
    20   14   19 ar 
    21   15   16 2  
    22   15   17 am 
    23   15   18 2  
    24   19   20 ar 
    25   20   21 ar 
    26   22   23 ar 
    27   23   24 ar 
    28   24   25 1  
    29   25   26 3  
    30    1   28 1  
    31    1   29 1  
    32    1   30 1  
    33    2   31 1  
    34    6   32 1  
    35    6   33 1  
    36    6   34 1  
    37   11   35 1  
    38   13   36 1  
    39   17   37 1  
    40   17   38 1  
    41   19   39 1  
    42   20   40 1  
    43   21   41 1  
    44   23   42 1  
@<TRIPOS>SUBSTRUCTURE
     1 T3E         1

