### 
### Created by X-TOOL on Mon Sep 10 21:13:12 2018
### 

@<TRIPOS>MOLECULE
4bcj_ligand
   38    40     1     0     0
SMALL
GAST_HUCK


@<TRIPOS>ATOM
      1 C01        51.1980  -20.2920  -12.3620 C.3       1 T9N         0.0249
      2 N02        50.6860  -19.0090  -11.9580 N.pl3     1 T9N        -0.2796
      3 C03        51.3500  -17.8500  -12.3830 C.2       1 T9N         0.1927
      4 N04        50.8800  -16.8010  -13.1360 N.2       1 T9N        -0.2860
      5 C05        51.8280  -15.8170  -13.3530 C.2       1 T9N         0.0107
      6 C06        51.5010  -14.5890  -14.1700 C.3       1 T9N        -0.0212
      7 C07        53.0980  -16.0330  -12.7680 C.2       1 T9N         0.0694
      8 C08        54.3060  -15.1360  -12.7720 C.ar      1 T9N         0.0694
      9 N09        55.5460  -15.6460  -12.7490 N.ar      1 T9N        -0.2577
     10 C10        56.5960  -14.7810  -12.7300 C.ar      1 T9N         0.2028
     11 N11        57.9330  -15.3480  -12.7610 N.pl3     1 T9N        -0.2423
     12 C12        58.2140  -16.7020  -12.2620 C.ar      1 T9N         0.0584
     13 C13        59.4880  -16.9570  -11.7360 C.ar      1 T9N        -0.0102
     14 C14        59.7850  -18.2270  -11.2420 C.ar      1 T9N         0.0785
     15 O15        61.0530  -18.4410  -10.7010 O.3       1 T9N        -0.3360
     16 C16        58.8130  -19.2900  -11.2860 C.ar      1 T9N        -0.0445
     17 C17        57.5630  -19.0390  -11.8170 C.ar      1 T9N        -0.0794
     18 C18        57.2560  -17.7320  -12.3120 C.ar      1 T9N        -0.0486
     19 N19        56.4650  -13.4060  -12.7140 N.ar      1 T9N        -0.2532
     20 C20        55.2240  -12.8530  -12.7010 C.ar      1 T9N         0.0358
     21 C21        54.1050  -13.6990  -12.7130 C.ar      1 T9N         0.1204
     22 C22        52.6880  -13.1470  -12.6190 C.1       1 T9N         0.0888
     23 N23        51.6210  -12.7320  -12.6060 N.1       1 T9N        -0.3429
     24 S24        52.9500  -17.5170  -12.0330 S.3       1 T9N         0.0211
     25 H1         50.5634  -21.0878  -11.9449 H         1 T9N         0.0500
     26 H2         52.2264  -20.4102  -11.9898 H         1 T9N         0.0500
     27 H3         51.1954  -20.3586  -13.4600 H         1 T9N         0.0500
     28 H4         49.8455  -18.9435  -11.3663 H         1 T9N         0.1948
     29 H5         52.3852  -13.9367  -14.2214 H         1 T9N         0.0426
     30 H6         50.6705  -14.0443  -13.6971 H         1 T9N         0.0426
     31 H7         51.2093  -14.8918  -15.1864 H         1 T9N         0.0426
     32 H8         58.7063  -14.7853  -13.1435 H         1 T9N         0.2204
     33 H9         60.2365  -16.1733  -11.7134 H         1 T9N         0.0458
     34 H10        61.1217  -19.3408  -10.4043 H         1 T9N         0.2478
     35 H11        59.0600  -20.2750  -10.9068 H         1 T9N         0.0451
     36 H12        56.8195  -19.8268  -11.8585 H         1 T9N         0.0562
     37 H13        56.2757  -17.5331  -12.7297 H         1 T9N         0.0449
     38 H14        55.1006  -11.7762  -12.6817 H         1 T9N         0.0960
@<TRIPOS>BOND
     1    1    2 1  
     2    2    3 1  
     3    3    4 2  
     4    3   24 1  
     5    4    5 1  
     6    5    6 1  
     7    5    7 2  
     8    7    8 1  
     9    7   24 1  
    10    8    9 ar 
    11    8   21 ar 
    12    9   10 ar 
    13   10   11 1  
    14   10   19 ar 
    15   11   12 1  
    16   12   13 ar 
    17   12   18 ar 
    18   13   14 ar 
    19   14   15 1  
    20   14   16 ar 
    21   16   17 ar 
    22   17   18 ar 
    23   19   20 ar 
    24   20   21 ar 
    25   21   22 1  
    26   22   23 3  
    27    1   25 1  
    28    1   26 1  
    29    1   27 1  
    30    2   28 1  
    31    6   29 1  
    32    6   30 1  
    33    6   31 1  
    34   11   32 1  
    35   13   33 1  
    36   15   34 1  
    37   16   35 1  
    38   17   36 1  
    39   18   37 1  
    40   20   38 1  
@<TRIPOS>SUBSTRUCTURE
     1 T9N         1

