### 
### Created by X-TOOL on Mon Sep 10 21:13:14 2018
### 

@<TRIPOS>MOLECULE
4bck_ligand
   42    44     1     0     0
SMALL
GAST_HUCK


@<TRIPOS>ATOM
      1 C7A         3.5300   18.8590   21.3710 C.3       1 T3E         0.0249
      2 N6A         3.7440   20.1870   21.9020 N.pl3     1 T3E        -0.2796
      3 C3A         5.0090   20.5260   22.5060 C.2       1 T3E         0.1927
      4 N2A         6.0760   19.6490   22.7100 N.2       1 T3E        -0.2860
      5 C1A         7.2260   20.3260   23.3580 C.2       1 T3E         0.0107
      6 C8A         8.4940   19.6310   23.6920 C.3       1 T3E        -0.0212
      7 C5A         6.9200   21.7070   23.5890 C.2       1 T3E         0.0694
      8 C4          7.7740   22.7830   24.2370 C.ar      1 T3E         0.0694
      9 N3          7.1820   23.5280   25.2100 N.ar      1 T3E        -0.2577
     10 C2          7.8510   24.5430   25.8450 C.ar      1 T3E         0.2029
     11 N7          7.1760   25.3050   26.8850 N.pl3     1 T3E        -0.2398
     12 C1B         5.9730   26.0640   26.5690 C.ar      1 T3E         0.0694
     13 C2B         4.9750   25.5080   25.7630 C.ar      1 T3E        -0.0110
     14 C3B         3.8120   26.2380   25.4680 C.ar      1 T3E         0.0989
     15 S7B         2.5510   25.5310   24.4340 S.o2      1 T3E         0.0634
     16 O8B         2.6310   24.0890   24.4590 O.2       1 T3E        -0.1507
     17 N9B         2.8390   26.0810   22.9140 N.am      1 T3E        -0.2611
     18 O1B         1.2500   25.9460   24.8840 O.2       1 T3E        -0.1507
     19 C4B         3.6440   27.5110   25.9880 C.ar      1 T3E        -0.0464
     20 C5B         4.6320   28.0650   26.8020 C.ar      1 T3E        -0.0692
     21 C6B         5.7950   27.3390   27.0910 C.ar      1 T3E        -0.0374
     22 N1          9.1470   24.8010   25.5150 N.ar      1 T3E        -0.2532
     23 C6          9.7550   24.0660   24.5480 C.ar      1 T3E         0.0358
     24 C5          9.0800   23.0580   23.8960 C.ar      1 T3E         0.1204
     25 C8          9.8070   22.2870   22.8370 C.1       1 T3E         0.0888
     26 N9         10.3780   21.7080   22.0310 N.1       1 T3E        -0.3429
     27 S4A         5.4280   21.9970   23.0680 S.3       1 T3E         0.0211
     28 H1          2.5142   18.7899   20.9546 H         1 T3E         0.0500
     29 H2          3.6472   18.1188   22.1762 H         1 T3E         0.0500
     30 H3          4.2657   18.6581   20.5783 H         1 T3E         0.0500
     31 H4          2.9934   20.8903   21.8489 H         1 T3E         0.1948
     32 H5          9.1887   20.3419   24.1631 H         1 T3E         0.0426
     33 H6          8.9463   19.2312   22.7724 H         1 T3E         0.0426
     34 H7          8.2870   18.8048   24.3880 H         1 T3E         0.0426
     35 H8          7.5489   25.3078   27.8451 H         1 T3E         0.2206
     36 H9          5.0996   24.5080   25.3636 H         1 T3E         0.0559
     37 H10         2.2421   25.8047   22.1608 H         1 T3E         0.1635
     38 H11         3.6113   26.6923   22.7414 H         1 T3E         0.1635
     39 H12         2.7464   28.0755   25.7627 H         1 T3E         0.0541
     40 H13         4.4997   29.0597   27.2120 H         1 T3E         0.0589
     41 H14         6.5593   27.7742   27.7247 H         1 T3E         0.0539
     42 H15        10.7857   24.2757   24.2858 H         1 T3E         0.0960
@<TRIPOS>BOND
     1    1    2 1  
     2    2    3 1  
     3    3    4 2  
     4    3   27 1  
     5    4    5 1  
     6    5    6 1  
     7    5    7 2  
     8    7    8 1  
     9    7   27 1  
    10    8    9 ar 
    11    8   24 ar 
    12    9   10 ar 
    13   10   11 1  
    14   10   22 ar 
    15   11   12 1  
    16   12   13 ar 
    17   12   21 ar 
    18   13   14 ar 
    19   14   15 1  
    20   14   19 ar 
    21   15   16 2  
    22   15   17 am 
    23   15   18 2  
    24   19   20 ar 
    25   20   21 ar 
    26   22   23 ar 
    27   23   24 ar 
    28   24   25 1  
    29   25   26 3  
    30    1   28 1  
    31    1   29 1  
    32    1   30 1  
    33    2   31 1  
    34    6   32 1  
    35    6   33 1  
    36    6   34 1  
    37   11   35 1  
    38   13   36 1  
    39   17   37 1  
    40   17   38 1  
    41   19   39 1  
    42   20   40 1  
    43   21   41 1  
    44   23   42 1  
@<TRIPOS>SUBSTRUCTURE
     1 T3E         1

