### 
### Created by X-TOOL on Mon Sep 10 21:13:14 2018
### 

@<TRIPOS>MOLECULE
4bcm_ligand
   56    59     1     0     0
SMALL
GAST_HUCK


@<TRIPOS>ATOM
      1 C01         2.8030   18.7210   20.4100 C.3       1 T7Z         0.0249
      2 N02         3.1950   20.0360   20.8210 N.pl3     1 T7Z        -0.2796
      3 C03         4.5130   20.2430   21.4290 C.2       1 T7Z         0.1927
      4 N04         5.5160   19.2440   21.4770 N.2       1 T7Z        -0.2860
      5 C05         6.7600   19.7590   22.1680 C.2       1 T7Z         0.0107
      6 C06         8.0070   18.8960   22.3770 C.3       1 T7Z        -0.0212
      7 C07         6.5660   21.1400   22.5730 C.2       1 T7Z         0.0693
      8 C08         7.5570   22.0460   23.3250 C.ar      1 T7Z         0.0691
      9 N09         7.0660   22.8340   24.3160 N.ar      1 T7Z        -0.2582
     10 C10         7.8730   23.6660   25.0160 C.ar      1 T7Z         0.2014
     11 N11         7.3450   24.4980   26.0680 N.pl3     1 T7Z        -0.2435
     12 C12         6.0280   25.1430   26.0800 C.ar      1 T7Z         0.0629
     13 C13         5.1970   25.2430   24.9540 C.ar      1 T7Z        -0.0171
     14 C14         3.9300   25.8910   25.0660 C.ar      1 T7Z         0.1010
     15 S15         2.8520   26.0340   23.6120 S.o2      1 T7Z         0.0659
     16 N16         1.7130   24.8620   23.7510 N.am      1 T7Z        -0.2307
     17 C17         0.5610   25.2910   23.1870 C.3       1 T7Z         0.0530
     18 C18        -0.5640   24.3590   23.5010 C.3       1 T7Z         0.0647
     19 O19        -0.2020   22.9860   23.1880 O.3       1 T7Z        -0.3766
     20 C20         0.9400   22.6350   24.0220 C.3       1 T7Z         0.0647
     21 C21         2.0920   23.5640   23.8350 C.3       1 T7Z         0.0530
     22 O22         2.2740   27.3500   23.5580 O.2       1 T7Z        -0.1513
     23 O23         3.5790   25.7920   22.3950 O.2       1 T7Z        -0.1513
     24 C24         3.5140   26.4150   26.3160 C.ar      1 T7Z        -0.0302
     25 C25         2.1980   27.0970   26.4970 C.3       1 T7Z        -0.0343
     26 C26         4.3390   26.3080   27.4250 C.ar      1 T7Z        -0.0673
     27 C27         5.5980   25.6710   27.3070 C.ar      1 T7Z        -0.0436
     28 N28         9.1850   23.7230   24.7750 N.ar      1 T7Z        -0.2536
     29 C29         9.7460   22.9630   23.8160 C.ar      1 T7Z         0.0355
     30 C30         8.9270   22.0870   23.0470 C.ar      1 T7Z         0.1202
     31 C31         9.5570   21.2580   21.9740 C.1       1 T7Z         0.0886
     32 N32        10.0680   20.6250   21.1520 N.1       1 T7Z        -0.3431
     33 S33         5.0650   21.6300   22.1470 S.3       1 T7Z         0.0211
     34 H1          1.7915   18.7578   19.9793 H         1 T7Z         0.0500
     35 H2          2.8066   18.0484   21.2804 H         1 T7Z         0.0500
     36 H3          3.5097   18.3470   19.6546 H         1 T7Z         0.0500
     37 H4          2.5544   20.8319   20.6901 H         1 T7Z         0.1948
     38 H5          8.7765   19.4839   22.8989 H         1 T7Z         0.0426
     39 H6          8.3946   18.5692   21.4008 H         1 T7Z         0.0426
     40 H7          7.7460   18.0149   22.9816 H         1 T7Z         0.0426
     41 H8          7.9489   24.6540   26.8876 H         1 T7Z         0.2189
     42 H9          5.5155   24.8302   24.0036 H         1 T7Z         0.0543
     43 H10         0.6915   25.3437   22.0961 H         1 T7Z         0.0501
     44 H11         0.3197   26.2912   23.5762 H         1 T7Z         0.0501
     45 H12        -1.4445   24.6439   22.9065 H         1 T7Z         0.0576
     46 H13        -0.8049   24.4329   24.5717 H         1 T7Z         0.0576
     47 H14         1.2639   21.6156   23.7654 H         1 T7Z         0.0576
     48 H15         0.6293   22.6665   25.0767 H         1 T7Z         0.0576
     49 H16         2.7755   23.4523   24.6896 H         1 T7Z         0.0501
     50 H17         2.6166   23.2906   22.9077 H         1 T7Z         0.0501
     51 H18         2.0926   27.4185   27.5437 H         1 T7Z         0.0371
     52 H19         1.3858   26.3997   26.2441 H         1 T7Z         0.0371
     53 H20         2.1462   27.9752   25.8367 H         1 T7Z         0.0371
     54 H21         4.0211   26.7109   28.3798 H         1 T7Z         0.0531
     55 H22         6.2392   25.5900   28.1773 H         1 T7Z         0.0524
     56 H23        10.8126   23.0171   23.6303 H         1 T7Z         0.0960
@<TRIPOS>BOND
     1    1    2 1  
     2    2    3 1  
     3    3    4 2  
     4    3   33 1  
     5    4    5 1  
     6    5    6 1  
     7    5    7 2  
     8    7    8 1  
     9    7   33 1  
    10    8    9 ar 
    11    8   30 ar 
    12    9   10 ar 
    13   10   11 1  
    14   10   28 ar 
    15   11   12 1  
    16   12   13 ar 
    17   12   27 ar 
    18   13   14 ar 
    19   14   15 1  
    20   14   24 ar 
    21   15   16 am 
    22   15   22 2  
    23   15   23 2  
    24   16   17 1  
    25   16   21 1  
    26   17   18 1  
    27   18   19 1  
    28   19   20 1  
    29   20   21 1  
    30   24   25 1  
    31   24   26 ar 
    32   26   27 ar 
    33   28   29 ar 
    34   29   30 ar 
    35   30   31 1  
    36   31   32 3  
    37    1   34 1  
    38    1   35 1  
    39    1   36 1  
    40    2   37 1  
    41    6   38 1  
    42    6   39 1  
    43    6   40 1  
    44   11   41 1  
    45   13   42 1  
    46   17   43 1  
    47   17   44 1  
    48   18   45 1  
    49   18   46 1  
    50   20   47 1  
    51   20   48 1  
    52   21   49 1  
    53   21   50 1  
    54   25   51 1  
    55   25   52 1  
    56   25   53 1  
    57   26   54 1  
    58   27   55 1  
    59   29   56 1  
@<TRIPOS>SUBSTRUCTURE
     1 T7Z         1

