### 
### Created by X-TOOL on Mon Sep 10 21:13:14 2018
### 

@<TRIPOS>MOLECULE
4bcn_ligand
   40    42     1     0     0
SMALL
GAST_HUCK


@<TRIPOS>ATOM
      1 C01        37.1100  -13.5320   35.1220 C.3       1 T9N         0.0245
      2 N02        36.6680  -14.6160   34.2980 N.pl3     1 T9N        -0.2829
      3 C03        35.3480  -14.3510   33.7910 C.2       1 T9N         0.1600
      4 N04        34.8090  -13.1600   33.4920 N.2       1 T9N        -0.3576
      5 C05        33.9220  -13.1350   32.4070 C.3       1 T9N         0.0148
      6 C06        33.0520  -11.9640   32.0690 C.3       1 T9N        -0.0555
      7 C07        33.7740  -14.4630   31.8270 C.3       1 T9N         0.0941
      8 C08        33.6880  -14.9000   30.3930 C.ar      1 T9N         0.0842
      9 N09        33.3940  -16.2160   30.1570 N.ar      1 T9N        -0.2374
     10 C10        33.2530  -16.8610   28.9670 C.ar      1 T9N         0.2126
     11 N11        32.9960  -18.2680   28.8450 N.pl3     1 T9N        -0.2405
     12 C12        33.5240  -19.2020   29.8160 C.ar      1 T9N         0.0588
     13 C13        34.3600  -18.7930   30.8030 C.ar      1 T9N        -0.0102
     14 C14        34.8900  -19.7860   31.8180 C.ar      1 T9N         0.0785
     15 O15        35.7400  -19.3750   32.8180 O.3       1 T9N        -0.3360
     16 C16        34.5270  -21.0950   31.7380 C.ar      1 T9N        -0.0445
     17 C17        33.6120  -21.5480   30.6610 C.ar      1 T9N        -0.0794
     18 C18        33.1290  -20.6500   29.7370 C.ar      1 T9N        -0.0485
     19 N19        33.4350  -16.0460   27.9460 N.ar      1 T9N        -0.2459
     20 C20        33.7260  -14.7360   28.0490 C.ar      1 T9N         0.0431
     21 C21        33.8800  -14.0570   29.2780 C.ar      1 T9N         0.1355
     22 C22        34.2320  -12.6110   29.3420 C.1       1 T9N         0.0968
     23 N23        34.4970  -11.5030   29.3690 N.1       1 T9N        -0.3375
     24 S24        34.2900  -15.5370   33.1260 S.3       1 T9N        -0.0069
     25 H1         38.1193  -13.7483   35.5021 H         1 T9N         0.0497
     26 H2         36.4182  -13.4089   35.9683 H         1 T9N         0.0497
     27 H3         37.1322  -12.6059   34.5288 H         1 T9N         0.0497
     28 H4         37.2166  -15.4643   34.0969 H         1 T9N         0.1936
     29 H5         34.6868  -12.8167   31.6833 H         1 T9N         0.0377
     30 H6         32.4526  -12.1980   31.1768 H         1 T9N         0.0237
     31 H7         33.6821  -11.0852   31.8672 H         1 T9N         0.0237
     32 H8         32.3822  -11.7486   32.9146 H         1 T9N         0.0237
     33 H9         32.6876  -14.5457   31.9778 H         1 T9N         0.0695
     34 H10        32.4299  -18.6164   28.0582 H         1 T9N         0.2208
     35 H11        34.6505  -17.7505   30.8661 H         1 T9N         0.0458
     36 H12        35.9727  -20.1196   33.3603 H         1 T9N         0.2478
     37 H13        34.9065  -21.8074   32.4615 H         1 T9N         0.0451
     38 H14        33.3228  -22.5911   30.6019 H         1 T9N         0.0562
     39 H15        32.4628  -20.9873   28.9512 H         1 T9N         0.0449
     40 H16        33.8496  -14.1680   27.1340 H         1 T9N         0.0981
@<TRIPOS>BOND
     1    1    2 1  
     2    2    3 1  
     3    3    4 2  
     4    3   24 1  
     5    4    5 1  
     6    5    6 1  
     7    5    7 1  
     8    7    8 1  
     9    7   24 1  
    10    8    9 ar 
    11    8   21 ar 
    12    9   10 ar 
    13   10   11 1  
    14   10   19 ar 
    15   11   12 1  
    16   12   13 ar 
    17   12   18 ar 
    18   13   14 ar 
    19   14   15 1  
    20   14   16 ar 
    21   16   17 ar 
    22   17   18 ar 
    23   19   20 ar 
    24   20   21 ar 
    25   21   22 1  
    26   22   23 3  
    27    1   25 1  
    28    1   26 1  
    29    1   27 1  
    30    2   28 1  
    31    5   29 1  
    32    6   30 1  
    33    6   31 1  
    34    6   32 1  
    35    7   33 1  
    36   11   34 1  
    37   13   35 1  
    38   15   36 1  
    39   16   37 1  
    40   17   38 1  
    41   18   39 1  
    42   20   40 1  
@<TRIPOS>SUBSTRUCTURE
     1 T9N         1

