### 
### Created by X-TOOL on Mon Sep 10 21:13:14 2018
### 

@<TRIPOS>MOLECULE
4bco_ligand
   59    62     1     0     0
SMALL
GAST_HUCK


@<TRIPOS>ATOM
      1 C01        -3.8260   21.3860  -18.5080 C.3       1 T6Q         0.0249
      2 N02        -4.4790   20.1420  -18.8970 N.pl3     1 T6Q        -0.2796
      3 C03        -5.5200   20.1830  -19.8550 C.2       1 T6Q         0.1927
      4 N04        -6.3580   19.1690  -20.1870 N.2       1 T6Q        -0.2860
      5 C05        -7.2840   19.4350  -21.1270 C.2       1 T6Q         0.0107
      6 C06        -8.2440   18.3370  -21.5560 C.3       1 T6Q        -0.0212
      7 C07        -7.2570   20.7510  -21.6580 C.2       1 T6Q         0.0694
      8 C08        -8.0720   21.4290  -22.6080 C.ar      1 T6Q         0.0694
      9 N09        -7.5060   22.2710  -23.5060 N.ar      1 T6Q        -0.2577
     10 C10        -8.2690   22.9720  -24.3970 C.ar      1 T6Q         0.2027
     11 N11        -7.6260   23.8510  -25.3730 N.pl3     1 T6Q        -0.2428
     12 C12        -6.3710   24.5370  -25.0890 C.ar      1 T6Q         0.0554
     13 C13        -5.7780   24.4750  -23.8180 C.ar      1 T6Q        -0.0508
     14 C14        -4.5750   25.1400  -23.5760 C.ar      1 T6Q        -0.0824
     15 C15        -3.9460   25.8860  -24.6180 C.ar      1 T6Q        -0.0555
     16 C16        -4.5370   25.9400  -25.8810 C.ar      1 T6Q         0.0304
     17 N17        -3.8930   26.7090  -26.9640 N.pl3     1 T6Q        -0.3090
     18 C18        -2.6130   26.0890  -27.2040 C.3       1 T6Q         0.0284
     19 C19        -2.3590   25.6900  -28.6120 C.3       1 T6Q        -0.0128
     20 C20        -3.4360   24.8510  -29.2120 C.3       1 T6Q         0.0357
     21 N21        -4.5330   25.6200  -29.6940 N.am      1 T6Q        -0.2715
     22 C22        -4.9130   25.4170  -31.0840 C.2       1 T6Q         0.1754
     23 C23        -6.0630   26.1990  -31.6780 C.3       1 T6Q         0.0258
     24 O24        -4.2980   24.6120  -31.7800 O.2       1 T6Q        -0.3972
     25 C25        -5.3080   26.5860  -28.9710 C.3       1 T6Q         0.0534
     26 C26        -4.4410   27.4320  -28.0790 C.3       1 T6Q         0.0469
     27 C27        -5.7440   25.2760  -26.1190 C.ar      1 T6Q        -0.0214
     28 N28        -9.6070   22.8660  -24.4000 N.ar      1 T6Q        -0.2532
     29 C29       -10.2380   22.0530  -23.4970 C.ar      1 T6Q         0.0358
     30 C30        -9.4720   21.3340  -22.5780 C.ar      1 T6Q         0.1204
     31 C31       -10.1540   20.4780  -21.6020 C.1       1 T6Q         0.0888
     32 N32       -10.6910   19.8120  -20.8480 N.1       1 T6Q        -0.3429
     33 S33        -5.9660   21.5400  -20.8360 S.3       1 T6Q         0.0211
     34 H1         -3.0472   21.1732  -17.7609 H         1 T6Q         0.0500
     35 H2         -4.5703   22.0715  -18.0767 H         1 T6Q         0.0500
     36 H3         -3.3677   21.8519  -19.3928 H         1 T6Q         0.0500
     37 H4         -4.1870   19.2463  -18.4807 H         1 T6Q         0.1948
     38 H5         -8.9264   18.7267  -22.3257 H         1 T6Q         0.0426
     39 H6         -8.8268   17.9991  -20.6864 H         1 T6Q         0.0426
     40 H7         -7.6735   17.4908  -21.9664 H         1 T6Q         0.0426
     41 H8         -8.0738   23.9899  -26.2901 H         1 T6Q         0.2203
     42 H9         -6.2545   23.9106  -23.0246 H         1 T6Q         0.0432
     43 H10        -4.1173   25.0899  -22.5946 H         1 T6Q         0.0556
     44 H11        -3.0146   26.4075  -24.4292 H         1 T6Q         0.0425
     45 H12        -2.5487   25.1871  -26.5776 H         1 T6Q         0.0514
     46 H13        -1.8288   26.8000  -26.9048 H         1 T6Q         0.0514
     47 H14        -1.4187   25.1202  -28.6451 H         1 T6Q         0.0304
     48 H15        -2.2558   26.6033  -29.2164 H         1 T6Q         0.0304
     49 H16        -3.8058   24.1537  -28.4458 H         1 T6Q         0.0523
     50 H17        -3.0108   24.2815  -30.0515 H         1 T6Q         0.0523
     51 H18        -6.1975   25.9104  -32.7309 H         1 T6Q         0.0467
     52 H19        -5.8443   27.2754  -31.6180 H         1 T6Q         0.0467
     53 H20        -6.9837   25.9801  -31.1173 H         1 T6Q         0.0467
     54 H21        -6.0498   26.0590  -28.3530 H         1 T6Q         0.0542
     55 H22        -5.8261   27.2386  -29.6891 H         1 T6Q         0.0542
     56 H23        -3.6096   27.8317  -28.6781 H         1 T6Q         0.0533
     57 H24        -5.0469   28.2642  -27.6913 H         1 T6Q         0.0533
     58 H25        -6.2025   25.3279  -27.0999 H         1 T6Q         0.0430
     59 H26       -11.3187   21.9688  -23.4958 H         1 T6Q         0.0960
@<TRIPOS>BOND
     1    1    2 1  
     2    2    3 1  
     3    3    4 2  
     4    3   33 1  
     5    4    5 1  
     6    5    6 1  
     7    5    7 2  
     8    7    8 1  
     9    7   33 1  
    10    8    9 ar 
    11    8   30 ar 
    12    9   10 ar 
    13   10   11 1  
    14   10   28 ar 
    15   11   12 1  
    16   12   13 ar 
    17   12   27 ar 
    18   13   14 ar 
    19   14   15 ar 
    20   15   16 ar 
    21   16   17 1  
    22   16   27 ar 
    23   17   18 1  
    24   17   26 1  
    25   18   19 1  
    26   19   20 1  
    27   20   21 1  
    28   21   22 am 
    29   21   25 1  
    30   22   23 1  
    31   22   24 2  
    32   25   26 1  
    33   28   29 ar 
    34   29   30 ar 
    35   30   31 1  
    36   31   32 3  
    37    1   34 1  
    38    1   35 1  
    39    1   36 1  
    40    2   37 1  
    41    6   38 1  
    42    6   39 1  
    43    6   40 1  
    44   11   41 1  
    45   13   42 1  
    46   14   43 1  
    47   15   44 1  
    48   18   45 1  
    49   18   46 1  
    50   19   47 1  
    51   19   48 1  
    52   20   49 1  
    53   20   50 1  
    54   23   51 1  
    55   23   52 1  
    56   23   53 1  
    57   25   54 1  
    58   25   55 1  
    59   26   56 1  
    60   26   57 1  
    61   27   58 1  
    62   29   59 1  
@<TRIPOS>SUBSTRUCTURE
     1 T6Q         1

