### 
### Created by X-TOOL on Mon Sep 10 21:13:13 2018
### 

@<TRIPOS>MOLECULE
4bcp_ligand
   55    58     1     0     0
SMALL
GAST_HUCK


@<TRIPOS>ATOM
      1 C01         3.6970   21.2090   18.6260 C.3       1 T3C         0.0249
      2 N02         4.4310   20.0390   19.0130 N.pl3     1 T3C        -0.2796
      3 C03         5.4570   20.1550   20.0100 C.2       1 T3C         0.1927
      4 N04         6.2270   19.1690   20.4990 N.2       1 T3C        -0.2860
      5 C05         7.1310   19.5270   21.4370 C.2       1 T3C         0.0107
      6 C06         8.0650   18.4770   22.0720 C.3       1 T3C        -0.0212
      7 C07         7.1550   20.8950   21.7900 C.2       1 T3C         0.0694
      8 C08         7.9510   21.5880   22.7040 C.ar      1 T3C         0.0694
      9 N09         7.3360   22.3990   23.6120 N.ar      1 T3C        -0.2577
     10 C10         8.0410   23.1080   24.5000 C.ar      1 T3C         0.2027
     11 N11         7.3450   23.9650   25.4800 N.pl3     1 T3C        -0.2428
     12 C12         6.1050   24.5900   25.2170 C.ar      1 T3C         0.0554
     13 C13         5.7610   25.7770   25.9460 C.ar      1 T3C        -0.0508
     14 C14         4.5400   26.4180   25.7120 C.ar      1 T3C        -0.0824
     15 C15         3.6420   25.8950   24.7590 C.ar      1 T3C        -0.0555
     16 C16         3.9720   24.7240   24.0370 C.ar      1 T3C         0.0306
     17 N17         3.0200   24.1790   23.0430 N.pl3     1 T3C        -0.3058
     18 C18         2.2110   22.9900   23.1470 C.3       1 T3C         0.0316
     19 C19         0.7510   23.2910   23.0680 C.3       1 T3C         0.0071
     20 C20         0.4110   23.9650   21.7720 C.3       1 T3C        -0.0318
     21 N21         1.3740   23.6660   20.7500 N.4       1 T3C         0.2284
     22 C22         2.4450   24.6150   20.6740 C.3       1 T3C        -0.0136
     23 C23         3.5140   24.4530   21.7220 C.3       1 T3C         0.0664
     24 C24         5.2190   24.0740   24.2790 C.ar      1 T3C        -0.0214
     25 N25         9.4050   23.0310   24.5270 N.ar      1 T3C        -0.2532
     26 C26        10.0790   22.2380   23.6340 C.ar      1 T3C         0.0358
     27 C27         9.3640   21.5030   22.7030 C.ar      1 T3C         0.1204
     28 C28        10.0880   20.6430   21.7290 C.1       1 T3C         0.0888
     29 N29        10.6410   19.9850   20.9880 N.1       1 T3C        -0.3429
     30 S30         5.9370   21.6160   20.8150 S.3       1 T3C         0.0211
     31 H1          2.9566   20.9400   17.8583 H         1 T3C         0.0500
     32 H2          4.3909   21.9593   18.2192 H         1 T3C         0.0500
     33 H3          3.1806   21.6249   19.5037 H         1 T3C         0.0500
     34 H4          4.2244   19.1271   18.5809 H         1 T3C         0.1948
     35 H5          8.7211   18.9665   22.8068 H         1 T3C         0.0426
     36 H6          8.6780   18.0092   21.2875 H         1 T3C         0.0426
     37 H7          7.4623   17.7063   22.5747 H         1 T3C         0.0426
     38 H8          7.7842   24.1146   26.3996 H         1 T3C         0.2203
     39 H9          6.4497   26.1784   26.6806 H         1 T3C         0.0432
     40 H10         4.2844   27.3160   26.2628 H         1 T3C         0.0556
     41 H11         2.6956   26.3919   24.5790 H         1 T3C         0.0425
     42 H12         2.4203   22.5026   24.1107 H         1 T3C         0.0515
     43 H13         2.4767   22.3081   22.3258 H         1 T3C         0.0515
     44 H14         0.4746   23.9536   23.9014 H         1 T3C         0.0336
     45 H15         0.1851   22.3508   23.1438 H         1 T3C         0.0336
     46 H16         0.3866   25.0531   21.9316 H         1 T3C         0.0814
     47 H17        -0.5796   23.6207   21.4401 H         1 T3C         0.0814
     48 H18         0.8998   23.6492   19.8607 H         1 T3C         0.2014
     49 H19         1.7668   22.7571   20.9386 H         1 T3C         0.2014
     50 H20         2.0161   25.6227   20.7770 H         1 T3C         0.0833
     51 H21         2.9183   24.5171   19.6859 H         1 T3C         0.0833
     52 H22         4.1668   23.6206   21.4203 H         1 T3C         0.0566
     53 H23         4.1000   25.3831   21.7609 H         1 T3C         0.0566
     54 H24         5.4758   23.1754   23.7298 H         1 T3C         0.0430
     55 H25        11.1616   22.1869   23.6566 H         1 T3C         0.0960
@<TRIPOS>BOND
     1    1    2 1  
     2    2    3 1  
     3    3    4 2  
     4    3   30 1  
     5    4    5 1  
     6    5    6 1  
     7    5    7 2  
     8    7    8 1  
     9    7   30 1  
    10    8    9 ar 
    11    8   27 ar 
    12    9   10 ar 
    13   10   11 1  
    14   10   25 ar 
    15   11   12 1  
    16   12   13 ar 
    17   12   24 ar 
    18   13   14 ar 
    19   14   15 ar 
    20   15   16 ar 
    21   16   17 1  
    22   16   24 ar 
    23   17   18 1  
    24   17   23 1  
    25   18   19 1  
    26   19   20 1  
    27   20   21 1  
    28   21   22 1  
    29   22   23 1  
    30   25   26 ar 
    31   26   27 ar 
    32   27   28 1  
    33   28   29 3  
    34    1   31 1  
    35    1   32 1  
    36    1   33 1  
    37    2   34 1  
    38    6   35 1  
    39    6   36 1  
    40    6   37 1  
    41   11   38 1  
    42   13   39 1  
    43   14   40 1  
    44   15   41 1  
    45   18   42 1  
    46   18   43 1  
    47   19   44 1  
    48   19   45 1  
    49   20   46 1  
    50   20   47 1  
    51   21   48 1  
    52   21   49 1  
    53   22   50 1  
    54   22   51 1  
    55   23   52 1  
    56   23   53 1  
    57   24   54 1  
    58   26   55 1  
@<TRIPOS>SUBSTRUCTURE
     1 T3C         1

