### 
### Created by X-TOOL on Mon Sep 10 21:13:15 2018
### 

@<TRIPOS>MOLECULE
4bcq_ligand
   52    55     1     0     0
SMALL
GAST_HUCK


@<TRIPOS>ATOM
      1 C01        38.4680  -15.0910   37.0600 C.3       1 TJF         0.0249
      2 N02        37.1750  -14.4660   36.9910 N.pl3     1 TJF        -0.2796
      3 C03        36.4400  -14.4390   35.7640 C.2       1 TJF         0.1927
      4 N04        35.4000  -13.5340   35.4600 N.2       1 TJF        -0.2860
      5 C05        34.8570  -13.7820   34.1010 C.2       1 TJF         0.0107
      6 C06        33.7450  -12.9850   33.4970 C.3       1 TJF        -0.0212
      7 C07        35.5490  -14.8810   33.4900 C.2       1 TJF         0.0694
      8 C08        35.3300  -15.4620   32.1310 C.ar      1 TJF         0.0694
      9 N09        34.9940  -16.7590   32.0220 N.ar      1 TJF        -0.2577
     10 C10        34.8050  -17.3330   30.8300 C.ar      1 TJF         0.2029
     11 C11        34.0840  -21.8960   32.5640 C.ar      1 TJF         0.0409
     12 N11        34.4440  -18.7100   30.7000 N.pl3     1 TJF        -0.2390
     13 C12        34.6680  -19.7230   31.6820 C.ar      1 TJF         0.0730
     14 C13        35.6410  -19.5950   32.6620 C.ar      1 TJF        -0.0331
     15 C14        35.8330  -20.5970   33.6000 C.ar      1 TJF        -0.0654
     16 C15        35.0520  -21.7420   33.5570 C.ar      1 TJF        -0.0532
     17 C19        35.3430  -26.0850   31.9120 C.3       1 TJF         0.0680
     18 O19        34.5190  -26.6550   30.8760 O.3       1 TJF        -0.3758
     19 C20        35.0460  -24.6300   32.0690 C.3       1 TJF         0.0569
     20 N21        33.7110  -24.4270   32.2350 N.am      1 TJF        -0.2681
     21 C22        33.2160  -23.1080   32.4790 C.2       1 TJF         0.2050
     22 O24        32.0100  -22.9610   32.6190 O.2       1 TJF        -0.3845
     23 C25        32.7830  -25.4210   32.1820 C.3       1 TJF         0.0569
     24 C26        33.1130  -26.4820   31.1730 C.3       1 TJF         0.0680
     25 C27        33.8950  -20.8800   31.6420 C.ar      1 TJF        -0.0178
     26 N28        34.9450  -16.6230   29.7030 N.ar      1 TJF        -0.2532
     27 C29        35.2820  -15.3290   29.7320 C.ar      1 TJF         0.0358
     28 C30        35.4920  -14.7060   30.9600 C.ar      1 TJF         0.1204
     29 C31        35.8700  -13.2650   30.9920 C.1       1 TJF         0.0888
     30 N32        36.1550  -12.1640   31.0120 N.1       1 TJF        -0.3429
     31 S33        36.6710  -15.4360   34.5110 S.3       1 TJF         0.0211
     32 H1         38.8627  -15.0049   38.0831 H         1 TJF         0.0500
     33 H2         39.1540  -14.5927   36.3592 H         1 TJF         0.0500
     34 H3         38.3765  -16.1536   36.7906 H         1 TJF         0.0500
     35 H4         36.7733  -14.0327   37.8347 H         1 TJF         0.1948
     36 H5         33.5286  -13.3641   32.4873 H         1 TJF         0.0426
     37 H6         34.0428  -11.9279   33.4356 H         1 TJF         0.0426
     38 H7         32.8456  -13.0768   34.1237 H         1 TJF         0.0426
     39 H8         33.9834  -18.9960   29.8242 H         1 TJF         0.2206
     40 H9         36.2567  -18.7034   32.6946 H         1 TJF         0.0575
     41 H10        36.5922  -20.4859   34.3657 H         1 TJF         0.0600
     42 H11        35.1941  -22.5205   34.2978 H         1 TJF         0.0574
     43 H12        36.4023  -26.2122   31.6442 H         1 TJF         0.0580
     44 H13        35.1403  -26.6012   32.8620 H         1 TJF         0.0580
     45 H14        35.3838  -24.0934   31.1701 H         1 TJF         0.0545
     46 H15        35.5819  -24.2449   32.9490 H         1 TJF         0.0545
     47 H16        31.8108  -24.9785   31.9193 H         1 TJF         0.0545
     48 H17        32.7160  -25.8906   33.1745 H         1 TJF         0.0545
     49 H18        32.7282  -27.4399   31.5528 H         1 TJF         0.0580
     50 H19        32.5990  -26.2265   30.2346 H         1 TJF         0.0580
     51 H20        33.1337  -20.9873   30.8778 H         1 TJF         0.0590
     52 H21        35.3906  -14.7707   28.8092 H         1 TJF         0.0960
@<TRIPOS>BOND
     1    2    1 1  
     2    3    2 1  
     3    3    4 2  
     4   31    3 1  
     5    5    4 1  
     6    5    6 1  
     7    7    5 2  
     8    8    7 1  
     9    7   31 1  
    10    9    8 ar 
    11    8   28 ar 
    12   10    9 ar 
    13   12   10 1  
    14   10   26 ar 
    15   11   16 ar 
    16   21   11 1  
    17   11   25 ar 
    18   13   12 1  
    19   13   14 ar 
    20   25   13 ar 
    21   15   14 ar 
    22   16   15 ar 
    23   17   18 1  
    24   19   17 1  
    25   18   24 1  
    26   20   19 1  
    27   20   21 am 
    28   20   23 1  
    29   21   22 2  
    30   23   24 1  
    31   26   27 ar 
    32   27   28 ar 
    33   28   29 1  
    34   29   30 3  
    35    1   32 1  
    36    1   33 1  
    37    1   34 1  
    38    2   35 1  
    39    6   36 1  
    40    6   37 1  
    41    6   38 1  
    42   12   39 1  
    43   14   40 1  
    44   15   41 1  
    45   16   42 1  
    46   17   43 1  
    47   17   44 1  
    48   19   45 1  
    49   19   46 1  
    50   23   47 1  
    51   23   48 1  
    52   24   49 1  
    53   24   50 1  
    54   25   51 1  
    55   27   52 1  
@<TRIPOS>SUBSTRUCTURE
     1 TJF         1

