### 
### Created by X-TOOL on Mon Sep 10 21:13:14 2018
### 

@<TRIPOS>MOLECULE
4bcs_ligand
   31    32     1     0     0
SMALL
GAST_HUCK


@<TRIPOS>ATOM
      1 C11        69.0870   -8.7500   33.2670 C.2       1 BTN         0.0348
      2 O11        69.4980   -9.9130   33.6350 O.co2     1 BTN        -0.5690
      3 O12        68.4570   -8.5210   32.1890 O.co2     1 BTN        -0.5690
      4 C10        69.4250   -7.6330   34.2090 C.3       1 BTN         0.0002
      5 C9         68.7250   -6.2940   33.9190 C.3       1 BTN        -0.0414
      6 C8         69.4490   -5.4340   32.8760 C.3       1 BTN        -0.0505
      7 C7         68.6950   -4.1040   32.7450 C.3       1 BTN        -0.0389
      8 C2         69.4840   -3.1720   31.7700 C.3       1 BTN         0.0302
      9 S1         70.9180   -2.4660   32.5580 S.3       1 BTN        -0.1527
     10 C6         71.0720   -1.2710   31.2210 C.3       1 BTN         0.0190
     11 C5         69.6350   -0.9360   30.7680 C.3       1 BTN         0.0750
     12 N1         69.2110    0.2440   31.5170 N.am      1 BTN        -0.2671
     13 C3         68.2030   -0.0270   32.3580 C.2       1 BTN         0.2580
     14 O3         67.6180    0.7920   33.0460 O.2       1 BTN        -0.4008
     15 N2         67.8960   -1.3290   32.3060 N.am      1 BTN        -0.2668
     16 C4         68.6420   -2.0140   31.2400 C.3       1 BTN         0.0775
     17 H          70.5112   -7.4658   34.1621 H         1 BTN         0.0430
     18 H          69.1462   -7.9491   35.2250 H         1 BTN         0.0430
     19 H          68.6637   -5.7236   34.8575 H         1 BTN         0.0283
     20 H          67.7100   -6.5050   33.5512 H         1 BTN         0.0283
     21 H          69.4586   -5.9537   31.9066 H         1 BTN         0.0267
     22 H          70.4827   -5.2456   33.2013 H         1 BTN         0.0267
     23 H          68.6164   -3.6248   33.7320 H         1 BTN         0.0277
     24 H          67.6868   -4.2883   32.3455 H         1 BTN         0.0277
     25 H          69.8132   -3.7833   30.9168 H         1 BTN         0.0435
     26 H          71.6424   -1.7051   30.3866 H         1 BTN         0.0399
     27 H          71.5794   -0.3630   31.5789 H         1 BTN         0.0399
     28 H          69.5898   -0.7860   29.6792 H         1 BTN         0.0584
     29 H          69.6245    1.1487   31.4144 H         1 BTN         0.1849
     30 H          67.2424   -1.7786   32.9148 H         1 BTN         0.1849
     31 H          67.9724   -2.3550   30.4367 H         1 BTN         0.0587
@<TRIPOS>BOND
     1    1    2 ar 
     2    1    3 ar 
     3    1    4 1  
     4    4    5 1  
     5    5    6 1  
     6    6    7 1  
     7    7    8 1  
     8    8    9 1  
     9    8   16 1  
    10    9   10 1  
    11   10   11 1  
    12   11   12 1  
    13   11   16 1  
    14   12   13 am 
    15   13   14 2  
    16   13   15 am 
    17   15   16 1  
    18    4   17 1  
    19    4   18 1  
    20    5   19 1  
    21    5   20 1  
    22    6   21 1  
    23    6   22 1  
    24    7   23 1  
    25    7   24 1  
    26    8   25 1  
    27   10   26 1  
    28   10   27 1  
    29   11   28 1  
    30   12   29 1  
    31   15   30 1  
    32   16   31 1  
@<TRIPOS>SUBSTRUCTURE
     1 BTN         1

