### 
### Created by X-TOOL on Mon Sep 10 21:13:13 2018
### 

@<TRIPOS>MOLECULE
4bcw_ligand
   20    20     1     0     0
SMALL
GAST_HUCK


@<TRIPOS>ATOM
      1 BR         -7.4380    7.1050   12.1310 Br        1 TU0        -0.0594
      2 C4         -5.9200    6.2530   12.8710 C.ar      1 TU0         0.0028
      3 C3         -4.6620    6.6880   12.4580 C.ar      1 TU0        -0.0603
      4 C2         -3.5150    6.0950   12.9780 C.ar      1 TU0        -0.0280
      5 C5         -6.0960    5.2280   13.8060 C.ar      1 TU0        -0.0518
      6 C6         -4.9850    4.6090   14.3670 C.ar      1 TU0         0.0104
      7 C1         -3.6500    5.0750   13.9210 C.ar      1 TU0         0.1022
      8 O13        -2.5330    4.5170   14.4180 O.3       1 TU0        -0.3274
      9 C7         -5.0810    3.4810   15.3470 C.2       1 TU0        -0.0445
     10 C8         -6.0920    3.2360   16.1850 C.2       1 TU0         0.0085
     11 S9         -6.0840    1.9800   17.1730 S.o2      1 TU0        -0.1735
     12 O10        -7.0460    0.9840   16.6210 O.co2     1 TU0        -0.4813
     13 O11        -6.5400    2.4350   18.5050 O.co2     1 TU0        -0.4813
     14 O12        -4.7010    1.4410   17.2720 O.co2     1 TU0        -0.4813
     15 H1         -4.5767    7.4882   11.7317 H         1 TU0         0.0620
     16 H2         -2.5325    6.4203   12.6556 H         1 TU0         0.0550
     17 H3         -7.0945    4.9176   14.0920 H         1 TU0         0.0624
     18 H4         -1.7726    4.9313   14.0273 H         1 TU0         0.2516
     19 H5         -4.2404    2.7894   15.3800 H         1 TU0         0.0621
     20 H6         -6.9461    3.9115   16.1952 H         1 TU0         0.0717
@<TRIPOS>BOND
     1    1    2 1  
     2    2    3 ar 
     3    2    5 ar 
     4    3    4 ar 
     5    4    7 ar 
     6    5    6 ar 
     7    6    7 ar 
     8    6    9 1  
     9    7    8 1  
    10    9   10 2  
    11   10   11 1  
    12   11   12 ar 
    13   11   13 ar 
    14   11   14 ar 
    15    3   15 1  
    16    4   16 1  
    17    5   17 1  
    18    8   18 1  
    19    9   19 1  
    20   10   20 1  
@<TRIPOS>SUBSTRUCTURE
     1 TU0         1

