### 
### Created by X-TOOL on Mon Sep 10 21:13:13 2018
### 

@<TRIPOS>MOLECULE
4bda_ligand
   18    20     1     0     0
SMALL
GAST_HUCK


@<TRIPOS>ATOM
      1 N1        -38.0500   33.8920    5.3340 N.2       1 VFB        -0.3178
      2 CAB       -39.3030   31.6980    5.4990 C.ar      1 VFB        -0.0710
      3 CAC       -39.1530   30.6970    7.6980 C.ar      1 VFB        -0.0787
      4 CAD       -38.5540   32.7730    5.9750 C.ar      1 VFB         0.0087
      5 CAE       -38.4160   31.7780    8.1780 C.ar      1 VFB        -0.0410
      6 CAF       -36.1640   35.6640    7.6140 C.2       1 VFB         0.1346
      7 CAG       -37.2960   34.6090    6.1990 C.2       1 VFB         0.2646
      8 NAH       -36.5450   35.6930    6.3090 N.pl3     1 VFB        -0.2075
      9 NAI       -36.5980   34.6550    8.3340 N.2       1 VFB        -0.1648
     10 CAJ       -39.5860   30.6560    6.3730 C.ar      1 VFB        -0.0815
     11 CAK       -38.1110   32.8070    7.2970 C.ar      1 VFB         0.1052
     12 NAL       -37.3430   33.9440    7.4190 N.pl3     1 VFB        -0.1229
     13 H1        -39.6552   31.6758    4.4741 H         1 VFB         0.0509
     14 H2        -39.3931   29.8762    8.3641 H         1 VFB         0.0501
     15 H3        -38.0897   31.8145    9.2111 H         1 VFB         0.0548
     16 H4        -35.5300   36.4395    8.0412 H         1 VFB         0.1277
     17 H5        -36.3079   36.3867    5.5855 H         1 VFB         0.2375
     18 H6        -40.1505   29.8003    6.0207 H         1 VFB         0.0512
@<TRIPOS>BOND
     1    1    4 1  
     2    7    1 2  
     3    4    2 ar 
     4    2   10 ar 
     5    5    3 ar 
     6   10    3 ar 
     7    4   11 ar 
     8   11    5 ar 
     9    8    6 1  
    10    6    9 2  
    11    7    8 1  
    12    7   12 1  
    13    9   12 1  
    14   11   12 1  
    15    2   13 1  
    16    3   14 1  
    17    5   15 1  
    18    6   16 1  
    19    8   17 1  
    20   10   18 1  
@<TRIPOS>SUBSTRUCTURE
     1 VFB         1

