### 
### Created by X-TOOL on Mon Sep 10 21:13:14 2018
### 

@<TRIPOS>MOLECULE
4bdb_ligand
   21    21     1     0     0
SMALL
GAST_HUCK


@<TRIPOS>ATOM
      1 O11       -35.1630   35.0470   10.2520 O.3       1 ODO        -0.2758
      2 C8        -36.3080   36.2210    8.1200 C.3       1 ODO        -0.0208
      3 C7        -36.5730   34.7940    8.5210 C.2       1 ODO         0.0385
      4 C2        -37.5160   33.9530    7.7490 C.ar      1 ODO         0.0161
      5 O10       -37.1380   35.1290    5.6550 O.3       1 ODO        -0.3322
      6 C3        -37.6580   34.0810    6.3450 C.ar      1 ODO         0.0927
      7 C4        -38.3620   33.1360    5.6110 C.ar      1 ODO        -0.0025
      8 C5        -38.9380   32.0490    6.2570 C.ar      1 ODO         0.0814
      9 O12       -39.5500   31.0720    5.5220 O.3       1 ODO        -0.3344
     10 C6        -38.8500   31.9280    7.6350 C.ar      1 ODO        -0.0418
     11 C1        -38.1550   32.8740    8.3670 C.ar      1 ODO        -0.0673
     12 N         -36.0500   34.2180    9.5410 N.2       1 ODO        -0.1908
     13 H1        -34.8089   34.5686   10.9924 H         1 ODO         0.2694
     14 H2        -35.5835   36.6689    8.8160 H         1 ODO         0.0394
     15 H3        -37.2480   36.7915    8.1519 H         1 ODO         0.0394
     16 H4        -35.8989   36.2451    7.0992 H         1 ODO         0.0394
     17 H5        -37.3405   35.0308    4.7320 H         1 ODO         0.2500
     18 H6        -38.4620   33.2458    4.5372 H         1 ODO         0.0466
     19 H7        -39.8904   30.4044    6.1059 H         1 ODO         0.2490
     20 H8        -39.3249   31.0936    8.1382 H         1 ODO         0.0463
     21 H9        -38.1047   32.7763    9.4454 H         1 ODO         0.0572
@<TRIPOS>BOND
     1   12    1 1  
     2    3    2 1  
     3    3    4 1  
     4    3   12 2  
     5    4    6 ar 
     6    4   11 ar 
     7    6    5 1  
     8    6    7 ar 
     9    7    8 ar 
    10    8    9 1  
    11    8   10 ar 
    12   10   11 ar 
    13    1   13 1  
    14    2   14 1  
    15    2   15 1  
    16    2   16 1  
    17    5   17 1  
    18    7   18 1  
    19    9   19 1  
    20   10   20 1  
    21   11   21 1  
@<TRIPOS>SUBSTRUCTURE
     1 ODO         1

