### 
### Created by X-TOOL on Mon Sep 10 21:13:13 2018
### 

@<TRIPOS>MOLECULE
4bdc_ligand
   30    32     1     0     0
SMALL
GAST_HUCK


@<TRIPOS>ATOM
      1 C         -39.9990   31.4590    4.5050 C.2       1 ODH         0.2117
      2 N         -37.0330   35.1300    5.8150 N.ar      1 ODH        -0.2665
      3 O         -41.8420   33.2030    2.1980 O.3       1 ODH        -0.2668
      4 C1        -39.1900   32.1820    5.5390 C.ar      1 ODH         0.0613
      5 N1        -37.0670   34.2340    8.4890 N.ar      1 ODH        -0.2673
      6 O1        -40.8920   30.6750    4.8320 O.2       1 ODH        -0.3822
      7 C2        -38.4920   33.3220    5.1970 C.ar      1 ODH        -0.0094
      8 N2        -39.7050   31.7190    3.2250 N.am      1 ODH        -0.2713
      9 C3        -37.7670   34.0320    6.1830 C.ar      1 ODH         0.0815
     10 C4        -36.3470   35.7250    6.7780 C.ar      1 ODH         0.0452
     11 C5        -36.3720   35.2900    8.0990 C.ar      1 ODH         0.0450
     12 C6        -37.7740   33.5740    7.5150 C.ar      1 ODH         0.0781
     13 C7        -38.4890   32.3970    7.8300 C.ar      1 ODH        -0.0272
     14 C8        -39.1730   31.7210    6.8610 C.ar      1 ODH        -0.0324
     15 C9        -40.4970   31.1780    2.1400 C.3       1 ODH         0.0937
     16 C10       -41.2460   32.2440    1.4300 C.2       1 ODH         0.1171
     17 C11       -42.4430   34.0710    1.3270 C.2       1 ODH         0.0669
     18 C12       -42.2470   33.6840    0.0770 C.2       1 ODH        -0.0808
     19 C13       -41.4750   32.5000    0.1350 C.2       1 ODH        -0.0686
     20 H1        -38.4991   33.6741    4.1718 H         1 ODH         0.0744
     21 H2        -38.9197   32.3007    3.0131 H         1 ODH         0.1874
     22 H3        -35.7403   36.5874    6.5267 H         1 ODH         0.0954
     23 H4        -35.7992   35.8381    8.8383 H         1 ODH         0.0961
     24 H5        -38.4946   32.0277    8.8491 H         1 ODH         0.0678
     25 H6        -39.7101   30.8153    7.1185 H         1 ODH         0.0712
     26 H7        -41.2129   30.4496    2.5485 H         1 ODH         0.0713
     27 H8        -39.8287   30.6745    1.4260 H         1 ODH         0.0713
     28 H9        -43.0042   34.9565    1.6217 H         1 ODH         0.0854
     29 H10       -42.6096   34.1805   -0.8219 H         1 ODH         0.0296
     30 H11       -41.1318   31.9086   -0.7126 H         1 ODH         0.0219
@<TRIPOS>BOND
     1    1    4 1  
     2    1    6 2  
     3    8    1 am 
     4    9    2 ar 
     5    2   10 ar 
     6   16    3 1  
     7    3   17 1  
     8    4    7 ar 
     9    4   14 ar 
    10    5   11 ar 
    11   12    5 ar 
    12    7    9 ar 
    13   15    8 1  
    14    9   12 ar 
    15   10   11 ar 
    16   13   12 ar 
    17   14   13 ar 
    18   15   16 1  
    19   16   19 2  
    20   17   18 2  
    21   18   19 1  
    22    7   20 1  
    23    8   21 1  
    24   10   22 1  
    25   11   23 1  
    26   13   24 1  
    27   14   25 1  
    28   15   26 1  
    29   15   27 1  
    30   17   28 1  
    31   18   29 1  
    32   19   30 1  
@<TRIPOS>SUBSTRUCTURE
     1 ODH         1

