### 
### Created by X-TOOL on Mon Sep 10 21:13:14 2018
### 

@<TRIPOS>MOLECULE
4bdd_ligand
   34    35     1     0     0
SMALL
GAST_HUCK


@<TRIPOS>ATOM
      1 O         -40.0170   31.7010    3.2650 O.2       1 Z0O        -0.3890
      2 C         -40.3000   30.8040    4.0610 C.2       1 Z0O         0.2909
      3 N3        -41.0220   29.6920    3.7580 N.am      1 Z0O        -0.2620
      4 C9        -41.6040   29.3250    2.4430 C.3       1 Z0O         0.0456
      5 C12       -42.3850   28.0380    2.6640 C.3       1 Z0O        -0.0398
      6 C11       -42.5470   30.4120    1.9430 C.3       1 Z0O        -0.0398
      7 C10       -40.5050   29.0830    1.4190 C.3       1 Z0O        -0.0398
      8 N         -39.9270   30.8000    5.3860 N.am      1 Z0O        -0.2138
      9 C1        -39.1400   31.7390    6.1040 C.ar      1 Z0O         0.0795
     10 C8        -38.9390   31.4760    7.4620 C.ar      1 Z0O        -0.0223
     11 C7        -38.2320   32.3430    8.2470 C.ar      1 Z0O        -0.0345
     12 C6        -37.6780   33.5200    7.6960 C.ar      1 Z0O         0.0652
     13 C3        -37.8560   33.7830    6.3210 C.ar      1 Z0O         0.0569
     14 C2        -38.6000   32.8790    5.5270 C.ar      1 Z0O        -0.0161
     15 N2        -36.9450   34.3710    8.4870 N.ar      1 Z0O        -0.2767
     16 C5        -36.4140   35.4220    7.8830 C.ar      1 Z0O         0.0371
     17 C4        -36.5740   35.6680    6.5220 C.ar      1 Z0O         0.0354
     18 N1        -37.2860   34.8810    5.7300 N.ar      1 Z0O        -0.2813
     19 H1        -41.1786   29.0480    4.5069 H         1 Z0O         0.1859
     20 H2        -42.8407   27.7182    1.7153 H         1 Z0O         0.0254
     21 H3        -43.1746   28.2117    3.4099 H         1 Z0O         0.0254
     22 H4        -41.7043   27.2536    3.0265 H         1 Z0O         0.0254
     23 H5        -42.9639   30.1161    0.9690 H         1 Z0O         0.0254
     24 H6        -41.9931   31.3560    1.8332 H         1 Z0O         0.0254
     25 H7        -43.3650   30.5487    2.6657 H         1 Z0O         0.0254
     26 H8        -40.9568   28.8128    0.4532 H         1 Z0O         0.0254
     27 H9        -39.8574   28.2631    1.7630 H         1 Z0O         0.0254
     28 H10       -39.9063   29.9981    1.3004 H         1 Z0O         0.0254
     29 H11       -40.2585   30.0227    5.9208 H         1 Z0O         0.2296
     30 H12       -39.3493   30.5725    7.8983 H         1 Z0O         0.0633
     31 H13       -38.0953   32.1260    9.3002 H         1 Z0O         0.0666
     32 H14       -38.7476   33.0765    4.4714 H         1 Z0O         0.0480
     33 H15       -35.8304   36.1201    8.4722 H         1 Z0O         0.0896
     34 H16       -36.0955   36.5407    6.0925 H         1 Z0O         0.0928
@<TRIPOS>BOND
     1    1    2 2  
     2    2    3 am 
     3    2    8 am 
     4    3    4 1  
     5    4    5 1  
     6    4    6 1  
     7    4    7 1  
     8    8    9 1  
     9    9   10 ar 
    10    9   14 ar 
    11   10   11 ar 
    12   11   12 ar 
    13   12   13 ar 
    14   12   15 ar 
    15   13   14 ar 
    16   13   18 ar 
    17   15   16 ar 
    18   16   17 ar 
    19   17   18 ar 
    20    3   19 1  
    21    5   20 1  
    22    5   21 1  
    23    5   22 1  
    24    6   23 1  
    25    6   24 1  
    26    6   25 1  
    27    7   26 1  
    28    7   27 1  
    29    7   28 1  
    30    8   29 1  
    31   10   30 1  
    32   11   31 1  
    33   14   32 1  
    34   16   33 1  
    35   17   34 1  
@<TRIPOS>SUBSTRUCTURE
     1 Z0O         1

