### 
### Created by X-TOOL on Mon Sep 10 21:13:14 2018
### 

@<TRIPOS>MOLECULE
4bde_ligand
   21    22     1     0     0
SMALL
GAST_HUCK


@<TRIPOS>ATOM
      1 N1        -37.8500   34.5170    5.0430 N.ar      1 CWS        -0.2970
      2 C2        -38.6020   33.4710    4.7200 C.ar      1 CWS         0.0580
      3 N3        -38.9000   32.3980    5.4580 N.ar      1 CWS        -0.2571
      4 C4        -38.3890   32.3740    6.7370 C.ar      1 CWS         0.1378
      5 C5        -36.9540   33.5380    8.5280 C.ar      1 CWS        -0.0405
      6 C6        -36.1370   34.5900    8.8800 C.ar      1 CWS        -0.0385
      7 C7        -35.9200   35.6030    7.9440 C.ar      1 CWS        -0.0514
      8 C8        -36.4670   35.5620    6.6950 C.ar      1 CWS        -0.0432
      9 C4A       -37.5550   33.4480    7.2390 C.ar      1 CWS         0.0473
     10 C8A       -37.3110   34.4950    6.3070 C.ar      1 CWS         0.0398
     11 C11       -35.4280   34.6140   10.2140 C.3       1 CWS        -0.0298
     12 NA4       -38.7080   31.3080    7.5030 N.pl3     1 CWS        -0.3074
     13 H1        -39.0312   33.4905    3.7248 H         1 CWS         0.1041
     14 H2        -37.1454   32.7554    9.2532 H         1 CWS         0.0599
     15 H3        -35.2981   36.4475    8.2181 H         1 CWS         0.0639
     16 H4        -36.2521   36.3574    5.9906 H         1 CWS         0.0622
     17 H5        -35.7296   33.7369   10.8053 H         1 CWS         0.0392
     18 H6        -35.6979   35.5322   10.7563 H         1 CWS         0.0392
     19 H7        -34.3403   34.5903   10.0517 H         1 CWS         0.0392
     20 H8        -38.3516   31.2415    8.4671 H         1 CWS         0.1872
     21 H9        -39.3076   30.5617    7.1230 H         1 CWS         0.1872
@<TRIPOS>BOND
     1    2    1 ar 
     2    1   10 ar 
     3    3    2 ar 
     4    4    3 ar 
     5    9    4 ar 
     6    4   12 1  
     7    5    6 ar 
     8    5    9 ar 
     9    6    7 ar 
    10    6   11 1  
    11    7    8 ar 
    12    8   10 ar 
    13    9   10 ar 
    14    2   13 1  
    15    5   14 1  
    16    7   15 1  
    17    8   16 1  
    18   11   17 1  
    19   11   18 1  
    20   11   19 1  
    21   12   20 1  
    22   12   21 1  
@<TRIPOS>SUBSTRUCTURE
     1 CWS         1

