### 
### Created by X-TOOL on Mon Sep 10 21:13:13 2018
### 

@<TRIPOS>MOLECULE
4bdf_ligand
   22    23     1     0     0
SMALL
GAST_HUCK


@<TRIPOS>ATOM
      1 C1        -36.5720   34.9990    7.7400 C.2       1 H3R         0.0073
      2 C2        -35.8500   35.6710    8.8630 C.3       1 H3R        -0.0276
      3 C3        -37.4110   33.9140    7.7210 C.2       1 H3R        -0.0374
      4 C7        -39.2190   32.8080    4.5700 C.ar      1 H3R        -0.0518
      5 C8        -38.6940   31.3980    6.4410 C.ar      1 H3R        -0.0518
      6 C9        -40.0100   31.8010    4.0380 C.ar      1 H3R        -0.0614
      7 C10       -39.4930   30.3990    5.9070 C.ar      1 H3R        -0.0614
      8 C11       -40.1540   30.6010    4.7090 C.ar      1 H3R        -0.0620
      9 C12       -37.7370   33.6990    6.3700 C.2       1 H3R         0.0833
     10 N13       -37.1450   34.6190    5.5960 N.pl3     1 H3R        -0.2242
     11 C4        -38.5520   32.6190    5.7810 C.ar      1 H3R         0.0083
     12 N3        -36.4370   35.4000    6.4660 N.2       1 H3R        -0.2279
     13 H1        -36.1091   35.1789    9.8120 H         1 H3R         0.0376
     14 H2        -36.1445   36.7299    8.9067 H         1 H3R         0.0376
     15 H3        -34.7650   35.5987    8.6968 H         1 H3R         0.0376
     16 H4        -37.7548   33.3365    8.5779 H         1 H3R         0.0347
     17 H5        -39.1181   33.7489    4.0413 H         1 H3R         0.0623
     18 H6        -38.1758   31.2294    7.3781 H         1 H3R         0.0623
     19 H7        -40.5173   31.9553    3.0925 H         1 H3R         0.0617
     20 H8        -39.6002   29.4558    6.4304 H         1 H3R         0.0617
     21 H9        -40.7834   29.8203    4.2973 H         1 H3R         0.0615
     22 H10       -37.2093   34.7160    4.5726 H         1 H3R         0.2497
@<TRIPOS>BOND
     1    1    2 1  
     2    3    1 1  
     3    1   12 2  
     4    9    3 2  
     5    4    6 ar 
     6   11    4 ar 
     7    5    7 ar 
     8   11    5 ar 
     9    6    8 ar 
    10    7    8 ar 
    11    9   10 1  
    12    9   11 1  
    13   10   12 1  
    14    2   13 1  
    15    2   14 1  
    16    2   15 1  
    17    3   16 1  
    18    4   17 1  
    19    5   18 1  
    20    6   19 1  
    21    7   20 1  
    22    8   21 1  
    23   10   22 1  
@<TRIPOS>SUBSTRUCTURE
     1 H3R         1

