### 
### Created by X-TOOL on Mon Sep 10 21:13:14 2018
### 

@<TRIPOS>MOLECULE
4bdg_ligand
   20    21     1     0     0
SMALL
GAST_HUCK


@<TRIPOS>ATOM
      1 C0        -36.4030   35.0950    7.1750 C.2       1 P3J         0.1509
      2 C1        -37.0160   33.9730    7.7600 C.2       1 P3J        -0.0280
      3 N1        -35.7330   36.0430    7.8180 N.pl3     1 P3J        -0.3096
      4 N2        -36.6190   35.0640    5.8160 N.pl3     1 P3J        -0.2040
      5 C3        -38.4410   31.2160    7.9380 C.ar      1 P3J         0.0174
      6 C4        -38.3540   31.9790    6.7810 C.ar      1 P3J         0.0081
      7 C5        -37.6110   33.2530    6.7480 C.2       1 P3J         0.0224
      8 N6        -39.1130   30.0580    8.0200 N.ar      1 P3J        -0.2974
      9 C7        -39.7310   29.6240    6.9160 C.ar      1 P3J         0.0099
     10 C8        -39.7060   30.3060    5.7130 C.ar      1 P3J        -0.0348
     11 C9        -39.0040   31.4970    5.6500 C.ar      1 P3J        -0.0363
     12 N         -37.3580   33.9350    5.6100 N.2       1 P3J        -0.2336
     13 H1        -37.0196   33.7198    8.8191 H         1 P3J         0.0181
     14 H2        -35.3198   36.8275    7.2938 H         1 P3J         0.1782
     15 H3        -35.6262   35.9943    8.8413 H         1 P3J         0.1782
     16 H4        -36.2951   35.7418    5.1113 H         1 P3J         0.2528
     17 H5        -37.9364   31.5773    8.8268 H         1 P3J         0.0823
     18 H6        -40.2793   28.6903    6.9667 H         1 P3J         0.0812
     19 H7        -40.2226   29.9179    4.8426 H         1 P3J         0.0706
     20 H8        -38.9609   32.0533    4.7206 H         1 P3J         0.0733
@<TRIPOS>BOND
     1    2    1 2  
     2    1    3 1  
     3    1    4 1  
     4    7    2 1  
     5    4   12 1  
     6    6    5 ar 
     7    5    8 ar 
     8    6    7 1  
     9    6   11 ar 
    10    7   12 2  
    11    8    9 ar 
    12    9   10 ar 
    13   10   11 ar 
    14    2   13 1  
    15    3   14 1  
    16    3   15 1  
    17    4   16 1  
    18    5   17 1  
    19    9   18 1  
    20   10   19 1  
    21   11   20 1  
@<TRIPOS>SUBSTRUCTURE
     1 P3J         1

