### 
### Created by X-TOOL on Mon Sep 10 21:13:13 2018
### 

@<TRIPOS>MOLECULE
4bdh_ligand
   21    22     1     0     0
SMALL
GAST_HUCK


@<TRIPOS>ATOM
      1 C1        -36.2360   35.6300    9.1240 C.3       1 WVI        -0.0301
      2 N3        -38.5520   32.6990    5.7840 N.pl3     1 WVI        -0.3029
      3 C4        -37.8690   33.6750    6.3860 C.2       1 WVI         0.1692
      4 C5        -37.5210   33.7750    7.7780 C.2       1 WVI         0.0340
      5 C6        -36.8250   34.9700    7.9180 C.2       1 WVI         0.0012
      6 N7        -36.7460   35.5230    6.6970 N.2       1 WVI        -0.2471
      7 C9        -37.0140   32.4990    9.9650 C.2       1 WVI        -0.0914
      8 C10       -37.7900   32.7530    8.8040 C.2       1 WVI         0.0062
      9 S11       -39.1280   31.6710    8.7210 S.3       1 WVI        -0.0595
     10 C12       -38.6740   30.9080   10.1890 C.2       1 WVI        -0.0245
     11 N         -37.3690   34.7690    5.7450 N.pl3     1 WVI        -0.2069
     12 C13       -37.5550   31.4350   10.7310 C.2       1 WVI        -0.0963
     13 H1        -35.7588   36.5759    8.8280 H         1 WVI         0.0379
     14 H2        -35.4843   34.9657    9.5752 H         1 WVI         0.0379
     15 H3        -37.0316   35.8340    9.8557 H         1 WVI         0.0379
     16 H4        -38.7358   32.7477    4.7717 H         1 WVI         0.1832
     17 H5        -38.8953   31.8971    6.3317 H         1 WVI         0.1832
     18 H6        -36.1153   33.0521   10.2341 H         1 WVI         0.0252
     19 H7        -39.2297   30.0853   10.6366 H         1 WVI         0.0576
     20 H8        -37.4461   34.9842    4.7407 H         1 WVI         0.2481
     21 H9        -37.1134   31.0795   11.6608 H         1 WVI         0.0371
@<TRIPOS>BOND
     1    5    1 1  
     2    3    2 1  
     3    4    3 2  
     4    3   11 1  
     5    4    5 1  
     6    4    8 1  
     7    5    6 2  
     8    6   11 1  
     9    8    7 2  
    10    7   12 1  
    11    8    9 1  
    12    9   10 1  
    13   10   12 2  
    14    1   13 1  
    15    1   14 1  
    16    1   15 1  
    17    2   16 1  
    18    2   17 1  
    19    7   18 1  
    20   10   19 1  
    21   11   20 1  
    22   12   21 1  
@<TRIPOS>SUBSTRUCTURE
     1 WVI         1

