### 
### Created by X-TOOL on Mon Sep 10 21:13:14 2018
### 

@<TRIPOS>MOLECULE
4bdi_ligand
   38    39     1     0     0
SMALL
GAST_HUCK


@<TRIPOS>ATOM
      1 C          -4.6020   52.2580   14.6640 C.2       1 HAU         0.1754
      2 O          -5.0310   53.2170   15.2890 O.2       1 HAU        -0.3972
      3 C1         -3.1270   52.0030   14.5740 C.3       1 HAU         0.0258
      4 N1         -5.4560   51.3690   14.0680 N.am      1 HAU        -0.2731
      5 O1         -7.1020   50.4420    9.5660 O.2       1 HAU        -0.3834
      6 N2        -11.1130   49.1900    9.8290 N.ar      1 HAU        -0.2928
      7 C3         -5.0600   50.1280   13.3770 C.3       1 HAU         0.0362
      8 N3         -8.9870   49.6260   10.5800 N.am      1 HAU        -0.2216
      9 C4         -5.5900   50.0870   11.9410 C.3       1 HAU        -0.0121
     10 C5         -7.1210   50.2290   11.9680 C.3       1 HAU         0.0586
     11 C6         -7.5050   51.5510   12.6570 C.3       1 HAU        -0.0121
     12 C7         -6.9160   51.5780   14.0750 C.3       1 HAU         0.0362
     13 C8         -7.7250   50.1230   10.5780 C.2       1 HAU         0.2092
     14 C9         -9.8320   49.3990    9.4800 C.ar      1 HAU         0.1323
     15 C10        -9.4040   49.3530    8.1380 C.ar      1 HAU        -0.0189
     16 C11       -10.3550   49.0990    7.1650 C.ar      1 HAU        -0.0539
     17 C12       -11.6860   48.8980    7.5000 C.ar      1 HAU        -0.0343
     18 C13       -11.9950   48.9440    8.8500 C.ar      1 HAU        -0.0060
     19 C14       -12.7490   48.6860    6.4500 C.3       1 HAU        -0.0321
     20 H1         -2.9471   51.0996   13.9727 H         1 HAU         0.0467
     21 H2         -2.7175   51.8583   15.5846 H         1 HAU         0.0467
     22 H3         -2.6344   52.8640   14.0986 H         1 HAU         0.0467
     23 H4         -5.4631   49.2672   13.9307 H         1 HAU         0.0524
     24 H5         -3.9619   50.0675   13.3538 H         1 HAU         0.0524
     25 H6         -9.3634   49.3917   11.4764 H         1 HAU         0.2288
     26 H7         -5.3167   49.1292   11.4742 H         1 HAU         0.0312
     27 H8         -5.1531   50.9145   11.3629 H         1 HAU         0.0312
     28 H9         -7.5273   49.4024   12.5693 H         1 HAU         0.0545
     29 H10        -8.6007   51.6306   12.7134 H         1 HAU         0.0312
     30 H11        -7.1053   52.3963   12.0776 H         1 HAU         0.0312
     31 H12        -7.1333   52.5548   14.5318 H         1 HAU         0.0524
     32 H13        -7.3864   50.7818   14.6707 H         1 HAU         0.0524
     33 H14        -8.3640   49.5114    7.8764 H         1 HAU         0.0584
     34 H15       -10.0548   49.0564    6.1243 H         1 HAU         0.0638
     35 H16       -13.0259   48.7681    9.1354 H         1 HAU         0.0710
     36 H17       -12.2843   48.6840    5.4530 H         1 HAU         0.0377
     37 H18       -13.4888   49.4979    6.5080 H         1 HAU         0.0377
     38 H19       -13.2486   47.7215    6.6235 H         1 HAU         0.0377
@<TRIPOS>BOND
     1    1    2 2  
     2    1    3 1  
     3    4    1 am 
     4    7    4 1  
     5    4   12 1  
     6   13    5 2  
     7   14    6 ar 
     8    6   18 ar 
     9    9    7 1  
    10   13    8 am 
    11    8   14 1  
    12   10    9 1  
    13   10   11 1  
    14   10   13 1  
    15   11   12 1  
    16   14   15 ar 
    17   15   16 ar 
    18   16   17 ar 
    19   17   18 ar 
    20   17   19 1  
    21    3   20 1  
    22    3   21 1  
    23    3   22 1  
    24    7   23 1  
    25    7   24 1  
    26    8   25 1  
    27    9   26 1  
    28    9   27 1  
    29   10   28 1  
    30   11   29 1  
    31   11   30 1  
    32   12   31 1  
    33   12   32 1  
    34   15   33 1  
    35   16   34 1  
    36   18   35 1  
    37   19   36 1  
    38   19   37 1  
    39   19   38 1  
@<TRIPOS>SUBSTRUCTURE
     1 HAU         1

