### 
### Created by X-TOOL on Mon Sep 10 21:13:13 2018
### 

@<TRIPOS>MOLECULE
4bdj_ligand
   26    29     1     0     0
SMALL
GAST_HUCK


@<TRIPOS>ATOM
      1 C          46.9630   14.3170   -3.4540 C.2       1 Z2M         0.0856
      2 N          47.6920   17.1510   -9.5530 N.pl3     1 Z2M        -0.2679
      3 O          47.3960   13.8200   -4.6630 O.3       1 Z2M        -0.2574
      4 C1         47.6570   14.9110   -5.4550 C.2       1 Z2M         0.1305
      5 N1         48.3560   16.0970  -10.1070 N.2       1 Z2M        -0.4034
      6 C2         48.1850   14.6510   -6.8040 C.ar      1 Z2M         0.0439
      7 N2         49.1970   13.9400   -9.3460 N.ar      1 Z2M        -0.3079
      8 C3         48.0350   15.5720   -7.8700 C.ar      1 Z2M         0.0772
      9 C4         47.4670   16.8910   -8.2080 C.2       1 Z2M         0.1539
     10 C5         48.5880   15.1210   -9.1520 C.ar      1 Z2M         0.0226
     11 C6         49.3010   13.1280   -8.2860 C.ar      1 Z2M         0.0044
     12 C7         48.8260   13.4320   -7.0280 C.ar      1 Z2M        -0.0286
     13 C8         46.7010   17.8800   -7.3730 C.3       1 Z2M         0.1031
     14 C9         45.3610   18.3970   -7.8310 C.2       1 Z2M        -0.0338
     15 C10        46.5140   19.3160   -7.7900 C.2       1 Z2M        -0.0338
     16 C11        47.3960   16.0460   -4.7700 C.2       1 Z2M        -0.0503
     17 C12        46.9480   15.6430   -3.4710 C.2       1 Z2M        -0.0563
     18 H1         46.6728   13.7053   -2.6011 H         1 Z2M         0.1037
     19 H2         47.4033   18.0042  -10.0527 H         1 Z2M         0.2603
     20 H3         49.7898   12.1707   -8.4262 H         1 Z2M         0.0804
     21 H4         48.9502   12.7259   -6.2150 H         1 Z2M         0.0680
     22 H5         46.8635   17.6448   -6.3108 H         1 Z2M         0.0855
     23 H6         44.3070   18.2203   -8.0402 H         1 Z2M         0.0708
     24 H7         46.9290   20.3105   -7.9471 H         1 Z2M         0.0708
     25 H8         47.5049   17.0665   -5.1341 H         1 Z2M         0.0417
     26 H9         46.6519   16.2993   -2.6540 H         1 Z2M         0.0370
@<TRIPOS>BOND
     1    3    1 1  
     2    1   17 2  
     3    2    5 1  
     4    9    2 1  
     5    4    3 1  
     6    6    4 1  
     7    4   16 2  
     8    5   10 2  
     9    8    6 ar 
    10    6   12 ar 
    11   10    7 ar 
    12    7   11 ar 
    13    8    9 2  
    14    8   10 ar 
    15    9   13 1  
    16   11   12 ar 
    17   13   14 1  
    18   13   15 1  
    19   14   15 2  
    20   16   17 1  
    21    1   18 1  
    22    2   19 1  
    23   11   20 1  
    24   12   21 1  
    25   13   22 1  
    26   14   23 1  
    27   15   24 1  
    28   16   25 1  
    29   17   26 1  
@<TRIPOS>SUBSTRUCTURE
     1 Z2M         1

