### 
### Created by X-TOOL on Mon Sep 10 21:13:13 2018
### 

@<TRIPOS>MOLECULE
4bdk_ligand
   37    39     1     0     0
SMALL
GAST_HUCK


@<TRIPOS>ATOM
      1 O1         40.5000  -30.5360    4.7880 O.2       1 RQQ        -0.3822
      2 C6         39.8100  -31.5110    4.4880 C.2       1 RQQ         0.2114
      3 C4         39.1110  -32.3150    5.5450 C.ar      1 RQQ         0.0612
      4 C3         39.3100  -31.9810    6.8890 C.ar      1 RQQ        -0.0324
      5 C2         38.6540  -32.6470    7.8830 C.ar      1 RQQ        -0.0272
      6 C5         38.2580  -33.3470    5.2130 C.ar      1 RQQ        -0.0094
      7 C          37.5640  -34.0470    6.2260 C.ar      1 RQQ         0.0815
      8 N2         36.6840  -35.0380    5.8760 N.ar      1 RQQ        -0.2665
      9 C16        36.0430  -35.6300    6.8700 C.ar      1 RQQ         0.0452
     10 C15        36.2330  -35.2770    8.2020 C.ar      1 RQQ         0.0450
     11 N1         37.0720  -34.3260    8.5770 N.ar      1 RQQ        -0.2673
     12 C1         37.7590  -33.6930    7.5760 C.ar      1 RQQ         0.0781
     13 N          39.6490  -31.9120    3.2200 N.am      1 RQQ        -0.2757
     14 C7         40.4120  -31.3580    2.1090 C.3       1 RQQ         0.0591
     15 C8         41.3860  -32.3380    1.5020 C.ar      1 RQQ        -0.0318
     16 C14        41.4550  -32.5120    0.1270 C.ar      1 RQQ        -0.0668
     17 C13        42.3090  -33.4440   -0.4380 C.ar      1 RQQ        -0.0395
     18 C11        43.1200  -34.2210    0.3830 C.ar      1 RQQ         0.0837
     19 O          43.9800  -35.2270    0.0070 O.3       1 RQQ        -0.3257
     20 C12        44.1070  -35.5310   -1.3850 C.3       1 RQQ         0.0579
     21 C10        43.0840  -34.0370    1.7570 C.ar      1 RQQ        -0.0395
     22 C9         42.2200  -33.1040    2.3040 C.ar      1 RQQ        -0.0668
     23 H1         39.9956  -31.1812    7.1445 H         1 RQQ         0.0712
     24 H2         38.8221  -32.3698    8.9174 H         1 RQQ         0.0678
     25 H3         38.1197  -33.6216    4.1735 H         1 RQQ         0.0744
     26 H4         35.3410  -36.4225    6.6372 H         1 RQQ         0.0954
     27 H5         35.6700  -35.8033    8.9643 H         1 RQQ         0.0961
     28 H6         38.9742  -32.6243    3.0270 H         1 RQQ         0.1870
     29 H7         40.9759  -30.4868    2.4736 H         1 RQQ         0.0662
     30 H8         39.7072  -31.0378    1.3275 H         1 RQQ         0.0662
     31 H9         40.8280  -31.9064   -0.5174 H         1 RQQ         0.0531
     32 H10        42.3455  -33.5676   -1.5143 H         1 RQQ         0.0525
     33 H11        44.8271  -36.3520   -1.5168 H         1 RQQ         0.0575
     34 H12        44.4635  -34.6407   -1.9237 H         1 RQQ         0.0575
     35 H13        43.1282  -35.8341   -1.7849 H         1 RQQ         0.0575
     36 H14        43.7306  -34.6221    2.4009 H         1 RQQ         0.0525
     37 H15        42.1944  -32.9692    3.3793 H         1 RQQ         0.0531
@<TRIPOS>BOND
     1    1    2 2  
     2    2    3 1  
     3    2   13 am 
     4    3    4 ar 
     5    3    6 ar 
     6    4    5 ar 
     7    5   12 ar 
     8    6    7 ar 
     9    7    8 ar 
    10    7   12 ar 
    11    8    9 ar 
    12    9   10 ar 
    13   10   11 ar 
    14   11   12 ar 
    15   13   14 1  
    16   14   15 1  
    17   15   16 ar 
    18   15   22 ar 
    19   16   17 ar 
    20   17   18 ar 
    21   18   19 1  
    22   18   21 ar 
    23   19   20 1  
    24   21   22 ar 
    25    4   23 1  
    26    5   24 1  
    27    6   25 1  
    28    9   26 1  
    29   10   27 1  
    30   13   28 1  
    31   14   29 1  
    32   14   30 1  
    33   16   31 1  
    34   17   32 1  
    35   20   33 1  
    36   20   34 1  
    37   20   35 1  
    38   21   36 1  
    39   22   37 1  
@<TRIPOS>SUBSTRUCTURE
     1 RQQ         1

