### 
### Created by X-TOOL on Mon Sep 10 21:13:13 2018
### 

@<TRIPOS>MOLECULE
4bds_ligand
   25    27     1     0     0
SMALL
GAST_HUCK


@<TRIPOS>ATOM
      1 C1        131.9830  113.3930   41.6630 C.ar      1 THA        -0.0468
      2 C2        131.3640  113.0730   42.8390 C.ar      1 THA        -0.0598
      3 C3        131.1960  114.0290   43.8590 C.ar      1 THA        -0.0615
      4 C4        131.6680  115.3180   43.6930 C.ar      1 THA        -0.0497
      5 C5        133.8550  118.8390   41.1760 C.ar      1 THA        -0.0497
      6 C6        134.9560  119.1530   40.1640 C.ar      1 THA        -0.0615
      7 C7        134.5560  118.5750   38.8110 C.ar      1 THA        -0.0598
      8 C8        134.2990  117.0330   38.9020 C.ar      1 THA        -0.0468
      9 C9        133.1440  115.1750   40.2430 C.ar      1 THA         0.0952
     10 N10       132.7680  117.0120   42.3620 N.ar      1 THA        -0.3395
     11 C11       133.3880  117.3870   41.2260 C.ar      1 THA         0.0172
     12 C12       133.6100  116.5280   40.1270 C.ar      1 THA         0.0375
     13 C13       132.4820  114.7340   41.4480 C.ar      1 THA         0.0375
     14 C14       132.3270  115.6940   42.4700 C.ar      1 THA         0.0172
     15 N9        133.3210  114.2600   39.2330 N.pl3     1 THA        -0.3104
     16 H1        132.1001  112.6414   40.8907 H         1 THA         0.0675
     17 H2        130.9957  112.0646   42.9891 H         1 THA         0.0582
     18 H3        130.6940  113.7530   44.7793 H         1 THA         0.0657
     19 H4        131.5415  116.0467   44.4855 H         1 THA         0.0582
     20 H5        133.4313  119.6015   41.8195 H         1 THA         0.0582
     21 H6        135.8701  119.6967   40.3734 H         1 THA         0.0657
     22 H7        134.4615  119.1575   37.9017 H         1 THA         0.0582
     23 H8        134.6080  116.3608   38.1097 H         1 THA         0.0675
     24 H9        133.7894  114.5410   38.3598 H         1 THA         0.1906
     25 H10       132.9853  113.2932   39.3493 H         1 THA         0.1906
@<TRIPOS>BOND
     1    1    2 ar 
     2   13    1 ar 
     3    2    3 ar 
     4    3    4 ar 
     5    4   14 ar 
     6    6    5 ar 
     7    5   11 ar 
     8    7    6 ar 
     9    8    7 ar 
    10   12    8 ar 
    11    9   12 ar 
    12    9   13 ar 
    13    9   15 1  
    14   11   10 ar 
    15   10   14 ar 
    16   11   12 ar 
    17   13   14 ar 
    18    1   16 1  
    19    2   17 1  
    20    3   18 1  
    21    4   19 1  
    22    5   20 1  
    23    6   21 1  
    24    7   22 1  
    25    8   23 1  
    26   15   24 1  
    27   15   25 1  
@<TRIPOS>SUBSTRUCTURE
     1 THA         1

