### 
### Created by X-TOOL on Mon Sep 10 21:13:12 2018
### 

@<TRIPOS>MOLECULE
4bdt_ligand
   41    44     1     0     0
SMALL
GAST_HUCK


@<TRIPOS>ATOM
      1 O1         -1.5090  -40.0070  -54.5220 O.3       1 HUW        -0.3930
      2 CL1         0.1030  -32.1370  -46.8300 Cl        1 HUW        -0.0699
      3 C1         -0.9500  -32.7670  -48.0350 C.ar      1 HUW         0.0385
      4 N1         -0.7180  -33.8940  -51.4490 N.ar      1 HUW        -0.3279
      5 C3         -1.2590  -33.5940  -50.2580 C.ar      1 HUW         0.0183
      6 C4         -1.4890  -34.4020  -52.4890 C.ar      1 HUW         0.0124
      7 N2         -4.7220  -34.4970  -50.9430 N.pl3     1 HUW        -0.3283
      8 C14        -3.3850  -34.3110  -51.1490 C.ar      1 HUW         0.0669
      9 C2         -0.4210  -33.0930  -49.2740 C.ar      1 HUW        -0.0382
     10 C17        -2.3070  -32.9420  -47.7840 C.ar      1 HUW        -0.0494
     11 C15        -2.6230  -33.7830  -50.0390 C.ar      1 HUW         0.0195
     12 C5         -0.7050  -34.6970  -53.7590 C.3       1 HUW        -0.0021
     13 C13        -2.8160  -34.6100  -52.3590 C.ar      1 HUW         0.0103
     14 C6         -1.4650  -35.6810  -54.6580 C.3       1 HUW        -0.0218
     15 C7         -1.5230  -37.0380  -53.9730 C.2       1 HUW        -0.1031
     16 C12        -2.8750  -35.0820  -54.8450 C.3       1 HUW        -0.0333
     17 C8         -2.5960  -37.4880  -53.3260 C.2       1 HUW        -0.0766
     18 C9         -3.8790  -36.6780  -53.2080 C.3       1 HUW        -0.0182
     19 C18        -2.6010  -38.8490  -52.6670 C.3       1 HUW        -0.0049
     20 C11        -3.6400  -35.1810  -53.5090 C.3       1 HUW         0.0005
     21 C10        -1.3780  -39.6610  -53.1380 C.3       1 HUW         0.0524
     22 C16        -3.1490  -33.4470  -48.7790 C.ar      1 HUW        -0.0525
     23 H1         -0.7485  -40.5062  -54.7958 H         1 HUW         0.2096
     24 H2         -5.1389  -34.2688  -50.0292 H         1 HUW         0.1779
     25 H3         -5.3136  -34.8655  -51.7014 H         1 HUW         0.1779
     26 H4          0.6363  -32.9577  -49.4713 H         1 HUW         0.0596
     27 H5         -2.7134  -32.6856  -46.8123 H         1 HUW         0.0590
     28 H6          0.2672  -35.1345  -53.4882 H         1 HUW         0.0470
     29 H7         -0.5442  -33.7580  -54.3089 H         1 HUW         0.0470
     30 H8         -0.9642  -35.7821  -55.6322 H         1 HUW         0.0401
     31 H9         -0.6405  -37.6748  -54.0140 H         1 HUW         0.0247
     32 H10        -3.4147  -35.6430  -55.6221 H         1 HUW         0.0305
     33 H11        -2.7914  -34.0272  -55.1455 H         1 HUW         0.0305
     34 H12        -4.2707  -36.7777  -52.1849 H         1 HUW         0.0431
     35 H13        -4.6163  -37.0720  -53.9229 H         1 HUW         0.0431
     36 H14        -3.5222  -39.3841  -52.9409 H         1 HUW         0.0433
     37 H15        -2.5592  -38.7262  -51.5747 H         1 HUW         0.0433
     38 H16        -4.5972  -34.6447  -53.5866 H         1 HUW         0.0444
     39 H17        -0.4682  -39.0583  -52.9999 H         1 HUW         0.0579
     40 H18        -1.3024  -40.5813  -52.5402 H         1 HUW         0.0579
     41 H19        -4.2062  -33.5794  -48.5795 H         1 HUW         0.0636
@<TRIPOS>BOND
     1   21    1 1  
     2    3    2 1  
     3    9    3 ar 
     4   10    3 ar 
     5    4    5 ar 
     6    6    4 ar 
     7    5    9 ar 
     8   11    5 ar 
     9   12    6 1  
    10   13    6 ar 
    11    8    7 1  
    12    8   11 ar 
    13   13    8 ar 
    14   22   10 ar 
    15   11   22 ar 
    16   14   12 1  
    17   20   13 1  
    18   15   14 1  
    19   14   16 1  
    20   17   15 2  
    21   20   16 1  
    22   17   18 1  
    23   19   17 1  
    24   18   20 1  
    25   19   21 1  
    26    1   23 1  
    27    7   24 1  
    28    7   25 1  
    29    9   26 1  
    30   10   27 1  
    31   12   28 1  
    32   12   29 1  
    33   14   30 1  
    34   15   31 1  
    35   16   32 1  
    36   16   33 1  
    37   18   34 1  
    38   18   35 1  
    39   19   36 1  
    40   19   37 1  
    41   20   38 1  
    42   21   39 1  
    43   21   40 1  
    44   22   41 1  
@<TRIPOS>SUBSTRUCTURE
     1 HUW         1

