### 
### Created by X-TOOL on Mon Sep 10 21:13:15 2018
### 

@<TRIPOS>MOLECULE
4bek_ligand
   33    34     1     0     0
SMALL
GAST_HUCK


@<TRIPOS>ATOM
      1 N13       -15.0030   40.8780   89.1020 N.pl3     1 XK0        -0.2674
      2 C8        -15.5800   40.8470   90.3180 C.cat     1 XK0         0.2572
      3 N3        -15.9300   39.7050   90.7490 N.pl3     1 XK0        -0.2895
      4 S12       -15.8200   42.2990   91.1650 S.3       1 XK0        -0.0885
      5 C9        -16.7780   41.8750   92.5850 C.3       1 XK0        -0.0090
      6 C4        -16.4580   40.4490   93.0220 C.3       1 XK0        -0.0274
      7 C1        -16.8060   39.4870   91.8940 C.3       1 XK0         0.0879
      8 C5        -16.6520   38.0420   92.3580 C.3       1 XK0        -0.0480
      9 C2        -18.2420   39.7020   91.5100 C.ar      1 XK0        -0.0174
     10 C7        -19.2490   39.4070   92.4340 C.ar      1 XK0        -0.0419
     11 C11       -20.5840   39.5960   92.0680 C.ar      1 XK0         0.0015
     12 C14       -20.9190   40.0780   90.8010 C.ar      1 XK0         0.1287
     13 O15       -22.2480   40.2490   90.4940 O.3       1 XK0        -0.2963
     14 C16       -22.7040   41.0580   89.3760 C.3       1 XK0         0.0687
     15 C10       -19.9130   40.3750   89.8790 C.ar      1 XK0         0.0015
     16 C6        -18.5790   40.1820   90.2400 C.ar      1 XK0        -0.0419
     17 H1        -14.8532   40.0025   88.5806 H         1 XK0         0.3186
     18 H2        -14.7113   41.7773   88.6931 H         1 XK0         0.3186
     19 H3        -15.5703   38.8754   90.2557 H         1 XK0         0.3089
     20 H4        -17.8475   41.9493   92.3387 H         1 XK0         0.0366
     21 H5        -16.5414   42.5692   93.4048 H         1 XK0         0.0366
     22 H6        -17.0486   40.1970   93.9151 H         1 XK0         0.0204
     23 H7        -15.3863   40.3682   93.2563 H         1 XK0         0.0204
     24 H8        -17.3080   37.8627   93.2226 H         1 XK0         0.0160
     25 H9        -15.6065   37.8591   92.6468 H         1 XK0         0.0160
     26 H10       -16.9306   37.3623   91.5392 H         1 XK0         0.0160
     27 H11       -18.9973   39.0366   93.4212 H         1 XK0         0.0824
     28 H12       -21.3706   39.3653   92.7773 H         1 XK0         0.0651
     29 H13       -23.8031   41.0413   89.3356 H         1 XK0         0.0597
     30 H14       -22.2964   40.6513   88.4388 H         1 XK0         0.0597
     31 H15       -22.3577   42.0937   89.5075 H         1 XK0         0.0597
     32 H16       -20.1655   40.7511   88.8942 H         1 XK0         0.0651
     33 H17       -17.7938   40.4069   89.5272 H         1 XK0         0.0824
@<TRIPOS>BOND
     1    1    2 ar 
     2    2    3 ar 
     3    2    4 1  
     4    3    7 1  
     5    4    5 1  
     6    5    6 1  
     7    6    7 1  
     8    7    8 1  
     9    7    9 1  
    10    9   10 ar 
    11    9   16 ar 
    12   10   11 ar 
    13   11   12 ar 
    14   12   13 1  
    15   12   15 ar 
    16   13   14 1  
    17   15   16 ar 
    18    1   17 1  
    19    1   18 1  
    20    3   19 1  
    21    5   20 1  
    22    5   21 1  
    23    6   22 1  
    24    6   23 1  
    25    8   24 1  
    26    8   25 1  
    27    8   26 1  
    28   10   27 1  
    29   11   28 1  
    30   14   29 1  
    31   14   30 1  
    32   14   31 1  
    33   15   32 1  
    34   16   33 1  
@<TRIPOS>SUBSTRUCTURE
     1 XK0         1

