### 
### Created by X-TOOL on Mon Sep 10 21:13:16 2018
### 

@<TRIPOS>MOLECULE
4bf1_ligand
   36    39     1     0     0
SMALL
GAST_HUCK


@<TRIPOS>ATOM
      1 O22        -7.6010    0.8800   16.9280 O.2       1 9FK        -0.1507
      2 S21        -6.1270    0.8910   16.9860 S.o2      1 9FK         0.0722
      3 O23        -5.4990    1.0010   18.2510 O.2       1 9FK        -0.1507
      4 N24        -5.5400   -0.4170   16.2370 N.am      1 9FK        -0.2610
      5 C19        -5.7160    2.3600   16.1880 C.2       1 9FK         0.1549
      6 S20        -4.1700    2.7740   15.5350 S.3       1 9FK        -0.0183
      7 C16        -4.6440    4.2940   15.0120 C.2       1 9FK         0.0355
      8 C17        -5.9930    4.5040   15.2910 C.2       1 9FK        -0.0756
      9 C18        -6.6210    3.4210   15.8850 C.2       1 9FK        -0.0567
     10 C14        -3.8030    5.2990   14.3490 C.2       1 9FK         0.0807
     11 C15        -2.4330    5.2110   14.1480 C.2       1 9FK         0.1021
     12 N11        -2.1700    6.4300   13.5980 N.pl3     1 9FK        -0.1221
     13 N12        -3.2820    7.2370   13.4820 N.2       1 9FK        -0.0768
     14 N13        -4.3310    6.5160   13.9870 N.2       1 9FK        -0.2140
     15 C10        -0.9730    6.8740   13.1380 C.ar      1 9FK         0.1326
     16 C9         -0.3180    6.3340   12.0690 C.ar      1 9FK        -0.0232
     17 C8          0.9290    6.7310   11.6180 C.ar      1 9FK        -0.0665
     18 C7          1.5650    7.8390   12.1880 C.ar      1 9FK        -0.0619
     19 C4          0.8930    8.5410   13.1920 C.ar      1 9FK        -0.0204
     20 C3         -0.3740    8.0780   13.7480 C.ar      1 9FK         0.0246
     21 C5          1.4720    9.6460   13.7680 C.ar      1 9FK        -0.0565
     22 C6          0.8790   10.3110   14.8390 C.ar      1 9FK        -0.0627
     23 C1         -0.3560    9.8880   15.3250 C.ar      1 9FK        -0.0623
     24 C2         -0.9760    8.7660   14.7930 C.ar      1 9FK        -0.0516
     25 H          -5.8676   -0.6594   15.3238 H         1 9FK         0.1634
     26 H          -4.8495   -0.9832   16.6871 H         1 9FK         0.1634
     27 H          -6.5078    5.4361   15.0626 H         1 9FK         0.0359
     28 H          -7.6884    3.3836   16.0974 H         1 9FK         0.0420
     29 H          -1.7523    4.3903   14.3696 H         1 9FK         0.1061
     30 H          -0.8125    5.5326   11.5320 H         1 9FK         0.0572
     31 H           1.4147    6.1812   10.8200 H         1 9FK         0.0598
     32 H           2.5519    8.1445   11.8598 H         1 9FK         0.0551
     33 H           2.4158   10.0102   13.3785 H         1 9FK         0.0610
     34 H           1.3790   11.1582   15.2944 H         1 9FK         0.0616
     35 H          -0.8366   10.4395   16.1250 H         1 9FK         0.0603
     36 H          -1.9259    8.4284   15.1915 H         1 9FK         0.0628
@<TRIPOS>BOND
     1    1    2 2  
     2    2    3 2  
     3    2    4 am 
     4    2    5 1  
     5    5    6 1  
     6    5    9 2  
     7    6    7 1  
     8    7    8 2  
     9    7   10 1  
    10    8    9 1  
    11   10   11 2  
    12   10   14 1  
    13   11   12 1  
    14   12   13 1  
    15   12   15 1  
    16   13   14 2  
    17   15   16 ar 
    18   15   20 ar 
    19   16   17 ar 
    20   17   18 ar 
    21   18   19 ar 
    22   19   20 ar 
    23   19   21 ar 
    24   20   24 ar 
    25   21   22 ar 
    26   22   23 ar 
    27   23   24 ar 
    28    4   25 1  
    29    4   26 1  
    30    8   27 1  
    31    9   28 1  
    32   11   29 1  
    33   16   30 1  
    34   17   31 1  
    35   18   32 1  
    36   21   33 1  
    37   22   34 1  
    38   23   35 1  
    39   24   36 1  
@<TRIPOS>SUBSTRUCTURE
     1 9FK         1

