### 
### Created by X-TOOL on Mon Sep 10 21:13:16 2018
### 

@<TRIPOS>MOLECULE
4bf6_ligand
   31    33     1     0     0
SMALL
GAST_HUCK


@<TRIPOS>ATOM
      1 O22        -7.2930    1.0830   16.6780 O.2       1 X0Q        -0.1507
      2 S21        -5.8240    0.9810   16.7140 S.o2      1 X0Q         0.0722
      3 O23        -5.3670    1.0880   18.0810 O.2       1 X0Q        -0.1507
      4 N24        -5.3660   -0.4110   16.1120 N.am      1 X0Q        -0.2610
      5 C19        -5.1520    2.1870   15.6740 C.2       1 X0Q         0.1548
      6 S20        -6.1350    3.4490   15.0440 S.3       1 X0Q        -0.0184
      7 C16        -4.8120    4.2460   14.2850 C.2       1 X0Q         0.0353
      8 C17        -3.6290    3.5720   14.5050 C.2       1 X0Q        -0.0757
      9 C18        -3.8310    2.4610   15.3720 C.2       1 X0Q        -0.0569
     10 C14        -5.0730    5.4470   13.4290 C.2       1 X0Q         0.0805
     11 C15        -4.1390    6.2530   12.8210 C.2       1 X0Q         0.1015
     12 N11        -4.9810    7.1210   12.2010 N.pl3     1 X0Q        -0.1222
     13 N12        -6.3660    6.8580   12.3320 N.2       1 X0Q        -0.0775
     14 N13        -6.3870    5.7590   13.1540 N.2       1 X0Q        -0.2144
     15 C10        -4.5670    8.1700   11.4510 C.ar      1 X0Q         0.1327
     16 C9         -3.3160    8.2230   10.7940 C.ar      1 X0Q        -0.0145
     17 C8         -2.9010    9.3520   10.0390 C.ar      1 X0Q        -0.0536
     18 C7         -3.7370   10.4470    9.8950 C.ar      1 X0Q        -0.0330
     19 C4         -4.9950   10.4150   10.5190 C.ar      1 X0Q         0.0928
     20 C3         -5.3910    9.2980   11.2890 C.ar      1 X0Q         0.0116
     21 C5         -5.7720   11.4470   10.4530 C.1       1 X0Q         0.0990
     22 N22        -6.4590   12.3850   10.4280 N.1       1 X0Q        -0.3283
     23 H          -5.6003   -0.6496   15.1696 H         1 X0Q         0.1634
     24 H          -4.8426   -1.0511   16.6745 H         1 X0Q         0.1634
     25 H          -2.6692    3.8521   14.0734 H         1 X0Q         0.0358
     26 H          -3.0060    1.8707   15.7680 H         1 X0Q         0.0419
     27 H          -3.0510    6.2088   12.8329 H         1 X0Q         0.1064
     28 H          -2.6498    7.3712   10.8693 H         1 X0Q         0.0667
     29 H          -1.9228    9.3569    9.5720 H         1 X0Q         0.0626
     30 H          -3.4276   11.3085    9.3143 H         1 X0Q         0.0666
     31 H          -6.3620    9.3112   11.7707 H         1 X0Q         0.0696
@<TRIPOS>BOND
     1    1    2 2  
     2    2    3 2  
     3    2    4 am 
     4    2    5 1  
     5    5    6 1  
     6    5    9 2  
     7    6    7 1  
     8    7    8 2  
     9    7   10 1  
    10    8    9 1  
    11   10   11 2  
    12   10   14 1  
    13   11   12 1  
    14   12   13 1  
    15   12   15 1  
    16   13   14 2  
    17   15   16 ar 
    18   15   20 ar 
    19   16   17 ar 
    20   17   18 ar 
    21   18   19 ar 
    22   19   20 ar 
    23   19   21 1  
    24   21   22 3  
    25    4   23 1  
    26    4   24 1  
    27    8   25 1  
    28    9   26 1  
    29   11   27 1  
    30   16   28 1  
    31   17   29 1  
    32   18   30 1  
    33   20   31 1  
@<TRIPOS>SUBSTRUCTURE
     1 X0Q         1

