### 
### Created by X-TOOL on Mon Sep 10 21:13:13 2018
### 

@<TRIPOS>MOLECULE
4bfd_ligand
   45    48     1     0     0
SMALL
GAST_HUCK


@<TRIPOS>ATOM
      1 CL        -20.2360   43.8350   85.5230 Cl        1 8T3        -0.0569
      2 C21       -20.6130   43.1030   87.0980 C.ar      1 8T3         0.0731
      3 C20       -19.7720   42.1000   87.5340 C.ar      1 8T3         0.0309
      4 N10       -20.0320   41.5170   88.7030 N.ar      1 8T3        -0.2754
      5 C25       -21.7350   43.5090   87.8430 C.ar      1 8T3        -0.0227
      6 C18       -21.9570   42.8760   89.0560 C.ar      1 8T3        -0.0132
      7 C12       -21.1050   41.8480   89.4540 C.ar      1 8T3         0.1282
      8 C8        -21.2610   41.1730   90.7760 C.2       1 8T3         0.2506
      9 O16       -22.3270   41.2030   91.3530 O.2       1 8T3        -0.3678
     10 N11       -20.1530   40.5820   91.2430 N.am      1 8T3        -0.2273
     11 C15       -19.9580   39.9740   92.4860 C.ar      1 8T3         0.0909
     12 C22       -21.0030   39.7390   93.3960 C.ar      1 8T3        -0.0112
     13 C19       -20.7070   39.2020   94.6470 C.ar      1 8T3        -0.0061
     14 C13       -19.3710   38.9330   94.9690 C.ar      1 8T3         0.1527
     15 F23       -19.0790   38.4290   96.1810 F         1 8T3        -0.1644
     16 C14       -18.6340   39.7190   92.8390 C.ar      1 8T3        -0.0186
     17 C7        -18.3220   39.1930   94.0740 C.ar      1 8T3         0.0164
     18 C2        -16.8840   38.8740   94.4600 C.3       1 8T3         0.0927
     19 C24       -16.8430   37.3910   94.8140 C.3       1 8T3        -0.0444
     20 C9        -16.4530   39.7010   95.6720 C.3       1 8T3        -0.0298
     21 C4        -15.7280   41.0300   95.4320 C.3       1 8T3        -0.0392
     22 C6        -16.3540   41.9170   94.3490 C.3       1 8T3        -0.0451
     23 C3        -15.0390   41.1870   94.0720 C.3       1 8T3         0.0324
     24 C5        -15.2570   40.0710   93.0820 C.cat     1 8T3         0.2012
     25 N1        -15.9670   39.0470   93.3510 N.pl3     1 8T3        -0.2944
     26 N17       -14.6610   40.1340   91.8830 N.pl3     1 8T3        -0.2765
     27 H1        -18.9193   41.7935   86.9389 H         1 8T3         0.0847
     28 H2        -22.3996   44.2860   87.4828 H         1 8T3         0.0753
     29 H3        -22.7845   43.1775   89.6880 H         1 8T3         0.0762
     30 H4        -19.3671   40.5751   90.6246 H         1 8T3         0.2249
     31 H5        -22.0269   39.9728   93.1277 H         1 8T3         0.0762
     32 H6        -21.4977   38.9958   95.3593 H         1 8T3         0.0657
     33 H7        -17.8402   39.9370   92.1337 H         1 8T3         0.0676
     34 H8        -15.8188   37.1108   95.1013 H         1 8T3         0.0171
     35 H9        -17.1547   36.7971   93.9421 H         1 8T3         0.0171
     36 H10       -17.5258   37.1955   95.6539 H         1 8T3         0.0171
     37 H11       -15.7825   39.0698   96.2737 H         1 8T3         0.0210
     38 H12       -17.3611   39.9267   96.2503 H         1 8T3         0.0210
     39 H13       -15.2961   41.4415   96.3562 H         1 8T3         0.0294
     40 H14       -16.3610   43.0103   94.4699 H         1 8T3         0.0268
     41 H15       -17.2771   41.5981   93.8428 H         1 8T3         0.0268
     42 H16       -14.0656   41.6872   93.9609 H         1 8T3         0.0320
     43 H17       -15.8787   38.2497   92.7050 H         1 8T3         0.3093
     44 H18       -14.8017   39.3782   91.1976 H         1 8T3         0.3177
     45 H19       -14.0623   40.9383   91.6471 H         1 8T3         0.3177
@<TRIPOS>BOND
     1    1    2 1  
     2    2    3 ar 
     3    2    5 ar 
     4    3    4 ar 
     5    4    7 ar 
     6    5    6 ar 
     7    6    7 ar 
     8    7    8 1  
     9    8    9 2  
    10    8   10 am 
    11   10   11 1  
    12   11   12 ar 
    13   11   16 ar 
    14   12   13 ar 
    15   13   14 ar 
    16   14   15 1  
    17   14   17 ar 
    18   16   17 ar 
    19   17   18 1  
    20   18   19 1  
    21   18   20 1  
    22   18   25 1  
    23   20   21 1  
    24   21   22 1  
    25   21   23 1  
    26   22   23 1  
    27   23   24 1  
    28   24   25 ar 
    29   24   26 ar 
    30    3   27 1  
    31    5   28 1  
    32    6   29 1  
    33   10   30 1  
    34   12   31 1  
    35   13   32 1  
    36   16   33 1  
    37   19   34 1  
    38   19   35 1  
    39   19   36 1  
    40   20   37 1  
    41   20   38 1  
    42   21   39 1  
    43   22   40 1  
    44   22   41 1  
    45   23   42 1  
    46   25   43 1  
    47   26   44 1  
    48   26   45 1  
@<TRIPOS>SUBSTRUCTURE
     1 8T3         1

