### 
### Created by X-TOOL on Mon Sep 10 21:13:15 2018
### 

@<TRIPOS>MOLECULE
4bfp_ligand
   61    66     1     0     0
SMALL
GAST_HUCK


@<TRIPOS>ATOM
      1 OAQ       -37.4660   -3.5100    5.6330 O.2       1 SWY        -0.3768
      2 CAP       -37.4310   -2.3170    5.8820 C.2       1 SWY         0.2335
      3 CAR       -36.5810   -1.4780    5.1090 C.ar      1 SWY         0.0635
      4 CBC       -36.5240   -0.1190    5.3690 C.ar      1 SWY         0.0178
      5 CAS       -35.8010   -2.0140    4.0860 C.ar      1 SWY        -0.0390
      6 CAT       -34.9680   -1.1900    3.3320 C.ar      1 SWY        -0.0523
      7 CAU       -34.9140    0.1720    3.5970 C.ar      1 SWY        -0.0463
      8 CAV       -35.6870    0.7070    4.6090 C.ar      1 SWY        -0.0065
      9 CAW       -35.6300    2.0720    4.8700 C.ar      1 SWY        -0.0463
     10 CAX       -36.3990    2.6130    5.8800 C.ar      1 SWY        -0.0523
     11 CAY       -37.2290    1.7950    6.6330 C.ar      1 SWY        -0.0390
     12 CAZ       -37.2890    0.4170    6.3700 C.ar      1 SWY         0.0635
     13 CBA       -38.1320   -0.4090    7.1330 C.2       1 SWY         0.2335
     14 OBB       -38.8090    0.0850    8.0310 O.2       1 SWY        -0.3768
     15 NAO       -38.1970   -1.7840    6.8840 N.am      1 SWY        -0.1855
     16 CAN       -39.0960   -2.6200    7.7040 C.3       1 SWY         0.0585
     17 CAM       -38.4990   -3.0130    9.0800 C.3       1 SWY        -0.0163
     18 CAL       -37.1990   -3.7910    8.8850 C.3       1 SWY         0.0174
     19 SAK       -37.4010   -5.3350    7.9010 S.3       1 SWY        -0.0370
     20 CAJ       -38.2190   -6.4270    9.0620 C.2       1 SWY         0.2158
     21 NBD       -39.1350   -6.0690   10.1080 N.2       1 SWY        -0.2489
     22 NBE       -39.4830   -7.2690   10.7140 N.2       1 SWY        -0.2554
     23 CBF       -38.8540   -8.1670   10.1010 C.2       1 SWY         0.1781
     24 CBG       -39.0130   -9.5010   10.4920 C.ar      1 SWY         0.0495
     25 CBH       -38.2650  -10.0190   11.5240 C.ar      1 SWY        -0.0213
     26 CBI       -38.4420  -11.3490   11.9070 C.ar      1 SWY         0.0115
     27 NBJ       -39.3490  -12.1230   11.2690 N.ar      1 SWY        -0.2977
     28 CBK       -40.0960  -11.6070   10.2450 C.ar      1 SWY         0.0115
     29 CBL       -39.9250  -10.2820    9.8570 C.ar      1 SWY        -0.0213
     30 NAI       -38.0880   -7.7920    9.1160 N.pl3     1 SWY        -0.1622
     31 CAF       -37.2820   -8.5420    8.2740 C.ar      1 SWY         0.0940
     32 CAE       -36.0670   -9.0580    8.7400 C.ar      1 SWY        -0.0351
     33 CAD       -35.2510   -9.8020    7.8870 C.ar      1 SWY        -0.0368
     34 CAC       -35.6410  -10.0280    6.5620 C.ar      1 SWY         0.0840
     35 OAB       -34.8210  -10.7770    5.7130 O.3       1 SWY        -0.3255
     36 CAA       -34.2880   -9.9750    4.7020 C.3       1 SWY         0.0580
     37 CAH       -36.8440   -9.5120    6.0970 C.ar      1 SWY        -0.0368
     38 CAG       -37.6660   -8.7630    6.9470 C.ar      1 SWY        -0.0351
     39 H1        -35.8425   -3.0767    3.8760 H         1 SWY         0.0700
     40 H2        -34.3621   -1.6122    2.5385 H         1 SWY         0.0635
     41 H3        -34.2665    0.8141    3.0109 H         1 SWY         0.0686
     42 H4        -34.9820    2.7104    4.2804 H         1 SWY         0.0686
     43 H5        -36.3547    3.6765    6.0850 H         1 SWY         0.0635
     44 H6        -37.8327    2.2208    7.4263 H         1 SWY         0.0700
     45 H7        -39.3184   -3.5415    7.1460 H         1 SWY         0.0576
     46 H8        -40.0280   -2.0618    7.8765 H         1 SWY         0.0576
     47 H9        -39.2204   -3.6405    9.6238 H         1 SWY         0.0298
     48 H10       -38.2941   -2.1019    9.6613 H         1 SWY         0.0298
     49 H11       -36.8031   -4.0597    9.8755 H         1 SWY         0.0410
     50 H12       -36.4793   -3.1404    8.3666 H         1 SWY         0.0410
     51 H13       -37.5412   -9.3965   12.0374 H         1 SWY         0.0726
     52 H14       -37.8518  -11.7623   12.7169 H         1 SWY         0.0822
     53 H15       -40.8215  -12.2311    9.7359 H         1 SWY         0.0822
     54 H16       -40.5195   -9.8730    9.0481 H         1 SWY         0.0726
     55 H17       -35.7599   -8.8795    9.7641 H         1 SWY         0.0557
     56 H18       -34.3132  -10.2057    8.2513 H         1 SWY         0.0527
     57 H19       -33.6479  -10.5859    4.0485 H         1 SWY         0.0575
     58 H20       -33.6899   -9.1683    5.1508 H         1 SWY         0.0575
     59 H21       -35.1062   -9.5391    4.1100 H         1 SWY         0.0575
     60 H22       -37.1474   -9.6901    5.0717 H         1 SWY         0.0527
     61 H23       -38.5995   -8.3544    6.5773 H         1 SWY         0.0557
@<TRIPOS>BOND
     1    1    2 2  
     2    2    3 1  
     3    2   15 am 
     4    3    4 ar 
     5    3    5 ar 
     6    4    8 ar 
     7    4   12 ar 
     8    5    6 ar 
     9    6    7 ar 
    10    7    8 ar 
    11    8    9 ar 
    12    9   10 ar 
    13   10   11 ar 
    14   11   12 ar 
    15   12   13 1  
    16   13   14 2  
    17   13   15 am 
    18   15   16 1  
    19   16   17 1  
    20   17   18 1  
    21   18   19 1  
    22   19   20 1  
    23   20   21 2  
    24   20   30 1  
    25   21   22 1  
    26   22   23 2  
    27   23   24 1  
    28   23   30 1  
    29   24   25 ar 
    30   24   29 ar 
    31   25   26 ar 
    32   26   27 ar 
    33   27   28 ar 
    34   28   29 ar 
    35   30   31 1  
    36   31   32 ar 
    37   31   38 ar 
    38   32   33 ar 
    39   33   34 ar 
    40   34   35 1  
    41   34   37 ar 
    42   35   36 1  
    43   37   38 ar 
    44    5   39 1  
    45    6   40 1  
    46    7   41 1  
    47    9   42 1  
    48   10   43 1  
    49   11   44 1  
    50   16   45 1  
    51   16   46 1  
    52   17   47 1  
    53   17   48 1  
    54   18   49 1  
    55   18   50 1  
    56   25   51 1  
    57   26   52 1  
    58   28   53 1  
    59   29   54 1  
    60   32   55 1  
    61   33   56 1  
    62   36   57 1  
    63   36   58 1  
    64   36   59 1  
    65   37   60 1  
    66   38   61 1  
@<TRIPOS>SUBSTRUCTURE
     1 SWY         1

