### 
### Created by X-TOOL on Mon Sep 10 21:13:20 2018
### 

@<TRIPOS>MOLECULE
4bfr_ligand
   48    51     1     0     0
SMALL
GAST_HUCK


@<TRIPOS>ATOM
      1 C1          0.3770   73.5740   79.9420 C.2       1 J82         0.0773
      2 N2          0.9240   72.6840   80.8520 N.pl3     1 J82        -0.2909
      3 C3          2.0940   73.0470   81.6670 C.3       1 J82         0.0554
      4 C4          2.8780   71.8060   82.0250 C.3       1 J82         0.0683
      5 O5          2.0570   70.8320   82.6690 O.3       1 J82        -0.3757
      6 C6          0.9850   70.4420   81.8110 C.3       1 J82         0.0683
      7 C7          0.1090   71.6180   81.4520 C.3       1 J82         0.0554
      8 N8          1.1180   74.6600   79.5830 N.2       1 J82        -0.2709
      9 C9          0.6170   75.5380   78.7130 C.2       1 J82         0.1720
     10 N10        -0.6500   75.3860   78.1250 N.am      1 J82        -0.1993
     11 C11        -1.4640   74.3090   78.4360 C.2       1 J82         0.1812
     12 C12        -0.9130   73.3890   79.3790 C.2       1 J82         0.0016
     13 O13        -2.5780   74.2180   77.9030 O.2       1 J82        -0.4280
     14 C14         1.3580   76.8000   78.3370 C.3       1 J82         0.1358
     15 C15         1.1470   77.9730   79.2730 C.2       1 J82         0.2289
     16 O16         0.0110   78.2210   79.6460 O.2       1 J82        -0.3803
     17 N17         2.2110   78.7440   79.6640 N.am      1 J82        -0.2157
     18 C18         4.5190   79.1690   80.1340 C.3       1 J82         0.0049
     19 C19         3.6140   78.5380   79.0850 C.3       1 J82         0.0699
     20 C20         3.6050   80.0780   80.9110 C.ar      1 J82        -0.0182
     21 C21         2.2760   79.7120   80.7030 C.ar      1 J82         0.0724
     22 C22         1.2470   80.3190   81.4220 C.ar      1 J82        -0.0473
     23 C23         1.5680   81.3150   82.3400 C.ar      1 J82        -0.0825
     24 C24         2.8870   81.7000   82.5320 C.ar      1 J82        -0.0840
     25 C25         3.9060   81.0870   81.8190 C.ar      1 J82        -0.0734
     26 C26         3.7910   79.2630   77.7570 C.3       1 J82        -0.0353
     27 H           1.7563   73.5433   82.5888 H         1 J82         0.0548
     28 H           2.7375   73.7325   81.0960 H         1 J82         0.0548
     29 H           3.6983   72.0853   82.7026 H         1 J82         0.0580
     30 H           3.2946   71.3695   81.1053 H         1 J82         0.0580
     31 H           0.3741   69.6844   82.3237 H         1 J82         0.0580
     32 H           1.4032   70.0129   80.8885 H         1 J82         0.0580
     33 H          -0.6573   71.2955   80.7318 H         1 J82         0.0548
     34 H          -0.3793   71.9998   82.3607 H         1 J82         0.0548
     35 H          -0.9707   76.0690   77.4688 H         1 J82         0.2563
     36 H          -1.4994   72.5203   79.6748 H         1 J82         0.0161
     37 H           1.0279   77.1023   77.3322 H         1 J82         0.0812
     38 H           2.4335   76.5702   78.3160 H         1 J82         0.0812
     39 H           5.3274   79.7431   79.6576 H         1 J82         0.0424
     40 H           4.9528   78.3992   80.7891 H         1 J82         0.0424
     41 H           3.8333   77.4679   78.9558 H         1 J82         0.0636
     42 H           0.2161   80.0208   81.2689 H         1 J82         0.0480
     43 H           0.7802   81.7941   82.9100 H         1 J82         0.0520
     44 H           3.1221   82.4839   83.2429 H         1 J82         0.0470
     45 H           4.9348   81.3937   81.9691 H         1 J82         0.0513
     46 H           4.8087   79.0894   77.3773 H         1 J82         0.0258
     47 H           3.6336   80.3417   77.9043 H         1 J82         0.0258
     48 H           3.0586   78.8814   77.0304 H         1 J82         0.0258
@<TRIPOS>BOND
     1    1    2 1  
     2    1    8 1  
     3    1   12 2  
     4    2    3 1  
     5    2    7 1  
     6    3    4 1  
     7    4    5 1  
     8    5    6 1  
     9    6    7 1  
    10    8    9 2  
    11    9   10 1  
    12    9   14 1  
    13   10   11 am 
    14   11   12 1  
    15   11   13 2  
    16   14   15 1  
    17   15   16 2  
    18   15   17 am 
    19   17   19 1  
    20   17   21 1  
    21   19   18 1  
    22   18   20 1  
    23   19   26 1  
    24   20   21 ar 
    25   20   25 ar 
    26   21   22 ar 
    27   22   23 ar 
    28   23   24 ar 
    29   24   25 ar 
    30    3   27 1  
    31    3   28 1  
    32    4   29 1  
    33    4   30 1  
    34    6   31 1  
    35    6   32 1  
    36    7   33 1  
    37    7   34 1  
    38   10   35 1  
    39   12   36 1  
    40   14   37 1  
    41   14   38 1  
    42   18   39 1  
    43   18   40 1  
    44   19   41 1  
    45   22   42 1  
    46   23   43 1  
    47   24   44 1  
    48   25   45 1  
    49   26   46 1  
    50   26   47 1  
    51   26   48 1  
@<TRIPOS>SUBSTRUCTURE
     1 J82         1

