### 
### Created by X-TOOL on Mon Sep 10 21:13:15 2018
### 

@<TRIPOS>MOLECULE
4bfy_ligand
   56    59     1     0     0
SMALL
GAST_HUCK


@<TRIPOS>ATOM
      1 NAA       -20.7550    0.2470    8.8370 N.1       1 ZVY        -0.3323
      2 OAB       -15.2330  -10.1580   11.0090 O.co2     1 ZVY        -0.5662
      3 OAC       -15.4350  -10.7090   13.1430 O.co2     1 ZVY        -0.5662
      4 CAD       -20.1050   -0.6530    9.1700 C.1       1 ZVY         0.0958
      5 CAE       -23.1080  -12.2460    8.8240 C.ar      1 ZVY        -0.0480
      6 CAF       -23.7130  -11.5330    9.8650 C.ar      1 ZVY        -0.0542
      7 CAG       -21.8680  -11.8230    8.3440 C.ar      1 ZVY        -0.0042
      8 CAH       -23.0790  -10.3870   10.3740 C.ar      1 ZVY        -0.0160
      9 CAI       -18.0300   -1.6350    9.1680 C.ar      1 ZVY        -0.0302
     10 CAJ       -19.8290   -2.6900   10.2140 C.ar      1 ZVY        -0.0302
     11 CAK       -14.5310   -5.7990   10.5330 C.ar      1 ZVY        -0.0360
     12 CAL       -17.1660   -2.6790    9.5100 C.ar      1 ZVY        -0.0480
     13 CAM       -18.9590   -3.7260   10.5690 C.ar      1 ZVY        -0.0480
     14 CAN       -15.4090   -4.7650   10.1830 C.ar      1 ZVY        -0.0649
     15 CAO       -16.3070   -6.9500   11.6750 C.ar      1 ZVY        -0.0229
     16 CAP       -19.2970   -7.4670   10.0510 C.3       1 ZVY        -0.0097
     17 CAQ       -20.7230   -7.1820   12.0310 C.3       1 ZVY        -0.0097
     18 CAR       -19.7590   -8.8920    9.9200 C.3       1 ZVY         0.0699
     19 CAS       -21.3780   -8.5220   11.7830 C.3       1 ZVY         0.0699
     20 CAT       -14.2190   -8.7750   12.6820 C.3       1 ZVY         0.1233
     21 CAU       -18.6370   -6.0000   11.8100 C.3       1 ZVY         0.0020
     22 NAV       -21.2880  -10.7310    8.8650 N.ar      1 ZVY        -0.2853
     23 OAW       -14.0800   -7.9010   11.5840 O.3       1 ZVY        -0.3034
     24 CAX       -15.0140   -9.9700   12.2320 C.2       1 ZVY         0.0655
     25 CAY       -19.3520   -1.6230    9.5110 C.ar      1 ZVY         0.0915
     26 CAZ       -14.9770   -6.9010   11.2740 C.ar      1 ZVY         0.0906
     27 CBA       -17.6120   -3.7560   10.2310 C.ar      1 ZVY        -0.0199
     28 CBB       -17.1940   -5.9190   11.3340 C.ar      1 ZVY         0.0053
     29 CBC       -21.8480   -9.9980    9.8590 C.ar      1 ZVY         0.1139
     30 CBD       -16.7560   -4.8130   10.5800 C.ar      1 ZVY        -0.0146
     31 NBE       -19.3320   -7.2480   11.5060 N.4       1 ZVY         0.2506
     32 NBF       -21.1730   -8.8420   10.3310 N.pl3     1 ZVY        -0.2840
     33 H1        -23.5957  -13.1146    8.3966 H         1 ZVY         0.0597
     34 H2        -24.6613  -11.8615   10.2747 H         1 ZVY         0.0699
     35 H3        -21.3746  -12.3751    7.5523 H         1 ZVY         0.0781
     36 H4        -23.5470   -9.8099   11.1633 H         1 ZVY         0.0610
     37 H5        -17.6333   -0.7976    8.6055 H         1 ZVY         0.0708
     38 H6        -20.8748   -2.7348   10.4956 H         1 ZVY         0.0708
     39 H7        -13.4926   -5.7456   10.2263 H         1 ZVY         0.0499
     40 H8        -16.1280   -2.6363    9.2005 H         1 ZVY         0.0619
     41 H9        -19.3596   -4.5546   11.1418 H         1 ZVY         0.0619
     42 H10       -15.0474   -3.9236    9.6030 H         1 ZVY         0.0596
     43 H11       -16.6618   -7.7931   12.2567 H         1 ZVY         0.0489
     44 H12       -19.9793   -6.7793    9.5299 H         1 ZVY         0.0835
     45 H13       -18.2781   -7.3424    9.6556 H         1 ZVY         0.0835
     46 H14       -20.7054   -6.9687   13.1100 H         1 ZVY         0.0835
     47 H15       -21.2819   -6.3908   11.5099 H         1 ZVY         0.0835
     48 H16       -19.1816   -9.5537   10.5824 H         1 ZVY         0.0573
     49 H17       -19.6650   -9.2405    8.8809 H         1 ZVY         0.0573
     50 H18       -22.4528   -8.4662   12.0105 H         1 ZVY         0.0573
     51 H19       -20.9099   -9.2945   12.4108 H         1 ZVY         0.0573
     52 H20       -14.7462   -8.2637   13.5009 H         1 ZVY         0.0787
     53 H21       -13.2264   -9.0973   13.0297 H         1 ZVY         0.0787
     54 H22       -19.1956   -5.1780   11.3387 H         1 ZVY         0.0989
     55 H23       -18.6413   -5.8675   12.9020 H         1 ZVY         0.0989
     56 H24       -18.8549   -8.0119   11.9587 H         1 ZVY         0.2050
@<TRIPOS>BOND
     1    4    1 3  
     2   24    2 ar 
     3   24    3 ar 
     4   25    4 1  
     5    6    5 ar 
     6    7    5 ar 
     7    8    6 ar 
     8   22    7 ar 
     9   29    8 ar 
    10   12    9 ar 
    11    9   25 ar 
    12   13   10 ar 
    13   10   25 ar 
    14   14   11 ar 
    15   26   11 ar 
    16   27   12 ar 
    17   27   13 ar 
    18   30   14 ar 
    19   15   26 ar 
    20   28   15 ar 
    21   18   16 1  
    22   16   31 1  
    23   19   17 1  
    24   17   31 1  
    25   32   18 1  
    26   32   19 1  
    27   23   20 1  
    28   20   24 1  
    29   21   28 1  
    30   31   21 1  
    31   29   22 ar 
    32   26   23 1  
    33   30   27 1  
    34   28   30 ar 
    35   29   32 1  
    36    5   33 1  
    37    6   34 1  
    38    7   35 1  
    39    8   36 1  
    40    9   37 1  
    41   10   38 1  
    42   11   39 1  
    43   12   40 1  
    44   13   41 1  
    45   14   42 1  
    46   15   43 1  
    47   16   44 1  
    48   16   45 1  
    49   17   46 1  
    50   17   47 1  
    51   18   48 1  
    52   18   49 1  
    53   19   50 1  
    54   19   51 1  
    55   20   52 1  
    56   20   53 1  
    57   21   54 1  
    58   21   55 1  
    59   31   56 1  
@<TRIPOS>SUBSTRUCTURE
     1 ZVY         1

