### 
### Created by X-TOOL on Mon Sep 10 21:13:15 2018
### 

@<TRIPOS>MOLECULE
4bfz_ligand
   61    64     1     0     0
SMALL
GAST_HUCK


@<TRIPOS>ATOM
      1 OAC       -15.1560  -10.8200   13.1600 O.2       1 ZVZ        -0.3941
      2 CAY       -14.8430   -9.9630   12.3600 C.2       1 ZVZ         0.2068
      3 NAW       -15.1530  -10.0830   11.0750 N.am      1 ZVZ        -0.2878
      4 CAA       -15.8640  -11.2110   10.4570 C.3       1 ZVZ         0.0196
      5 CAT       -14.1110   -8.7360   12.8360 C.3       1 ZVZ         0.1596
      6 OAX       -14.0630   -7.7950   11.7720 O.3       1 ZVZ        -0.2970
      7 CBA       -14.9990   -6.8230   11.5120 C.ar      1 ZVZ         0.0914
      8 CAK       -14.5450   -5.6140   10.9870 C.ar      1 ZVZ        -0.0359
      9 CAN       -15.4670   -4.6090   10.6810 C.ar      1 ZVZ        -0.0649
     10 CAO       -16.3710   -7.0070   11.7210 C.ar      1 ZVZ        -0.0228
     11 CBC       -17.2990   -5.9950   11.4020 C.ar      1 ZVZ         0.0053
     12 CBE       -16.8470   -4.7760   10.8830 C.ar      1 ZVZ        -0.0146
     13 CBB       -17.7210   -3.7210   10.5640 C.ar      1 ZVZ        -0.0199
     14 CAM       -19.1100   -3.7910   10.7100 C.ar      1 ZVZ        -0.0480
     15 CAJ       -19.9500   -2.7210   10.3690 C.ar      1 ZVZ        -0.0302
     16 CAZ       -19.4160   -1.5410    9.8810 C.ar      1 ZVZ         0.0915
     17 CAD       -20.1530   -0.5400    9.5420 C.1       1 ZVZ         0.0958
     18 NAB       -20.8280    0.3420    9.1970 N.1       1 ZVZ        -0.3323
     19 CAI       -18.0530   -1.4680    9.7320 C.ar      1 ZVZ        -0.0302
     20 CAL       -17.2180   -2.5340   10.0630 C.ar      1 ZVZ        -0.0480
     21 CAU       -18.7910   -6.1700   11.6480 C.3       1 ZVZ         0.0020
     22 NBF       -19.3600   -7.5000   11.4880 N.4       1 ZVZ         0.2506
     23 CAP       -20.7640   -7.4170   11.9460 C.3       1 ZVZ        -0.0097
     24 CAR       -21.3930   -8.8030   11.8250 C.3       1 ZVZ         0.0699
     25 NBG       -21.3000   -9.1790   10.3920 N.pl3     1 ZVZ        -0.2840
     26 CAS       -19.8920   -9.2650    9.9440 C.3       1 ZVZ         0.0699
     27 CAQ       -19.3170   -7.8620   10.0480 C.3       1 ZVZ        -0.0097
     28 CBD       -22.0110  -10.3490   10.0260 C.ar      1 ZVZ         0.1139
     29 NAV       -21.5060  -11.1570    9.0580 N.ar      1 ZVZ        -0.2853
     30 CAG       -22.1550  -12.2650    8.6680 C.ar      1 ZVZ        -0.0042
     31 CAE       -23.3980  -12.5990    9.2220 C.ar      1 ZVZ        -0.0480
     32 CAF       -23.9400  -11.7870   10.2150 C.ar      1 ZVZ        -0.0542
     33 CAH       -23.2460  -10.6520   10.6090 C.ar      1 ZVZ        -0.0160
     34 H1        -14.8768   -9.3357   10.4706 H         1 ZVZ         0.1848
     35 H2        -15.9751  -11.0276    9.3781 H         1 ZVZ         0.0484
     36 H3        -16.8585  -11.3133   10.9158 H         1 ZVZ         0.0484
     37 H4        -15.2906  -12.1364   10.6144 H         1 ZVZ         0.0484
     38 H5        -13.0884   -9.0079   13.1365 H         1 ZVZ         0.0861
     39 H6        -14.6413   -8.2979   13.6944 H         1 ZVZ         0.0861
     40 H7        -13.4862   -5.4547   10.8176 H         1 ZVZ         0.0499
     41 H8        -15.1057   -3.6711   10.2750 H         1 ZVZ         0.0596
     42 H9        -16.7258   -7.9438   12.1353 H         1 ZVZ         0.0489
     43 H10       -19.5515   -4.7013   11.0992 H         1 ZVZ         0.0619
     44 H11       -21.0230   -2.8186   10.4882 H         1 ZVZ         0.0708
     45 H12       -17.6137   -0.5553    9.3459 H         1 ZVZ         0.0708
     46 H13       -16.1479   -2.4301    9.9243 H         1 ZVZ         0.0619
     47 H14       -19.3178   -5.5031   10.9497 H         1 ZVZ         0.0989
     48 H15       -18.9914   -5.8510   12.6815 H         1 ZVZ         0.0989
     49 H16       -18.8490   -8.1772   12.0325 H         1 ZVZ         0.2050
     50 H17       -21.3175   -6.7019   11.3197 H         1 ZVZ         0.0835
     51 H18       -20.7938   -7.0858   12.9945 H         1 ZVZ         0.0835
     52 H19       -22.4455   -8.7727   12.1433 H         1 ZVZ         0.0573
     53 H20       -20.8431   -9.5263   12.4450 H         1 ZVZ         0.0573
     54 H21       -19.8457   -9.6180    8.9032 H         1 ZVZ         0.0573
     55 H22       -19.3294   -9.9546   10.5904 H         1 ZVZ         0.0573
     56 H23       -18.2797   -7.8474    9.6823 H         1 ZVZ         0.0835
     57 H24       -19.9232   -7.1574    9.4598 H         1 ZVZ         0.0835
     58 H25       -21.7128  -12.9087    7.9162 H         1 ZVZ         0.0781
     59 H26       -23.9314  -13.4791    8.8816 H         1 ZVZ         0.0597
     60 H27       -24.8898  -12.0379   10.6733 H         1 ZVZ         0.0699
     61 H28       -23.6610   -9.9998   11.3689 H         1 ZVZ         0.0610
@<TRIPOS>BOND
     1    1    2 2  
     2    2    3 am 
     3    2    5 1  
     4    3    4 1  
     5    5    6 1  
     6    6    7 1  
     7    7    8 ar 
     8    7   10 ar 
     9    8    9 ar 
    10    9   12 ar 
    11   10   11 ar 
    12   11   12 ar 
    13   11   21 1  
    14   12   13 1  
    15   13   14 ar 
    16   13   20 ar 
    17   14   15 ar 
    18   15   16 ar 
    19   16   17 1  
    20   16   19 ar 
    21   17   18 3  
    22   19   20 ar 
    23   21   22 1  
    24   22   23 1  
    25   22   27 1  
    26   23   24 1  
    27   24   25 1  
    28   25   26 1  
    29   25   28 1  
    30   26   27 1  
    31   28   29 ar 
    32   28   33 ar 
    33   29   30 ar 
    34   30   31 ar 
    35   31   32 ar 
    36   32   33 ar 
    37    3   34 1  
    38    4   35 1  
    39    4   36 1  
    40    4   37 1  
    41    5   38 1  
    42    5   39 1  
    43    8   40 1  
    44    9   41 1  
    45   10   42 1  
    46   14   43 1  
    47   15   44 1  
    48   19   45 1  
    49   20   46 1  
    50   21   47 1  
    51   21   48 1  
    52   22   49 1  
    53   23   50 1  
    54   23   51 1  
    55   24   52 1  
    56   24   53 1  
    57   26   54 1  
    58   26   55 1  
    59   27   56 1  
    60   27   57 1  
    61   30   58 1  
    62   31   59 1  
    63   32   60 1  
    64   33   61 1  
@<TRIPOS>SUBSTRUCTURE
     1 ZVZ         1

