### 
### Created by X-TOOL on Mon Sep 10 21:13:16 2018
### 

@<TRIPOS>MOLECULE
4bg1_ligand
   29    29     1     0     0
SMALL
GAST_HUCK


@<TRIPOS>ATOM
      1 CAF        21.9340   33.1590   87.3770 C.3       1 IVL        -0.0302
      2 CAE        22.8010   33.1980   86.1520 C.3       1 IVL        -0.0077
      3 CAD        23.8190   32.0870   86.2900 C.3       1 IVL        -0.0077
      4 CAA        23.9090   31.8790   87.7860 C.3       1 IVL        -0.0302
      5 CAH        22.5100   32.5920   89.6990 C.3       1 IVL        -0.0413
      6 CAJ        21.5730   31.0740   88.0260 C.3       1 IVL        -0.0288
      7 CAK        21.8110   29.7500   88.6350 C.3       1 IVL        -0.0009
      8 CAL        21.1390   28.7540   87.6630 C.3       1 IVL         0.0050
      9 CAM        21.6300   27.4540   88.1920 C.2       1 IVL         0.0350
     10 N3         22.5310   32.1420   88.2900 N.4       1 IVL         0.2412
     11 OAB        20.8920   26.5750   88.5800 O.co2     1 IVL        -0.5690
     12 OAC        22.9340   27.3330   88.2630 O.co2     1 IVL        -0.5690
     13 H          20.9077   32.8700   87.1065 H         1 IVL         0.0815
     14 H          21.9210   34.1451   87.8642 H         1 IVL         0.0815
     15 H          23.3110   34.1701   86.0818 H         1 IVL         0.0319
     16 H          22.1892   33.0390   85.2518 H         1 IVL         0.0319
     17 H          24.7917   32.3904   85.8755 H         1 IVL         0.0319
     18 H          23.4745   31.1723   85.7853 H         1 IVL         0.0319
     19 H          24.6261   32.5833   88.2328 H         1 IVL         0.0815
     20 H          24.2157   30.8480   88.0162 H         1 IVL         0.0815
     21 H          21.4704   32.7690   90.0119 H         1 IVL         0.0778
     22 H          23.0855   33.5245   89.7947 H         1 IVL         0.0778
     23 H          22.9584   31.8171   90.3381 H         1 IVL         0.0778
     24 H          20.5916   31.4229   88.3797 H         1 IVL         0.0816
     25 H          21.5397   30.9293   86.9361 H         1 IVL         0.0816
     26 H          21.3504   29.6916   89.6322 H         1 IVL         0.0335
     27 H          22.8890   29.5471   88.7166 H         1 IVL         0.0335
     28 H          21.4695   28.9176   86.6267 H         1 IVL         0.0432
     29 H          20.0422   28.8205   87.7129 H         1 IVL         0.0432
@<TRIPOS>BOND
     1    1    2 1  
     2   10    1 1  
     3    3    2 1  
     4    4    3 1  
     5   10    4 1  
     6   10    5 1  
     7    6    7 1  
     8    6   10 1  
     9    7    8 1  
    10    8    9 1  
    11    9   11 ar 
    12    9   12 ar 
    13    1   13 1  
    14    1   14 1  
    15    2   15 1  
    16    2   16 1  
    17    3   17 1  
    18    3   18 1  
    19    4   19 1  
    20    4   20 1  
    21    5   21 1  
    22    5   22 1  
    23    5   23 1  
    24    6   24 1  
    25    6   25 1  
    26    7   26 1  
    27    7   27 1  
    28    8   28 1  
    29    8   29 1  
@<TRIPOS>SUBSTRUCTURE
     1 IVL         1

