### 
### Created by X-TOOL on Mon Sep 10 21:13:15 2018
### 

@<TRIPOS>MOLECULE
4bgg_ligand
   58    61     1     0     0
SMALL
GAST_HUCK


@<TRIPOS>ATOM
      1 C01        48.7640  -44.9100   53.8720 C.3       1 844         0.0565
      2 O02        48.5480  -45.1860   52.5500 O.3       1 844        -0.3276
      3 C03        47.2160  -45.1100   52.1800 C.ar      1 844         0.1141
      4 C04        46.8960  -45.5740   50.8790 C.ar      1 844         0.1500
      5 O05        47.9320  -46.0770   50.0840 O.3       1 844        -0.3274
      6 C06        48.8960  -45.1250   49.7160 C.3       1 844         0.0550
      7 C07        45.5910  -45.4800   50.4130 C.ar      1 844         0.1141
      8 C08        44.5520  -44.9780   51.2910 C.ar      1 844        -0.0421
      9 C09        44.8850  -44.5110   52.5800 C.ar      1 844        -0.0389
     10 C10        46.2490  -44.5720   53.0290 C.ar      1 844        -0.0421
     11 C11        43.7840  -43.9640   53.5110 C.ar      1 844        -0.0049
     12 C12        42.5690  -44.6870   53.5970 C.ar      1 844        -0.0345
     13 C13        41.5590  -44.2090   54.4030 C.ar      1 844        -0.0008
     14 C14        41.7640  -43.0430   55.1480 C.ar      1 844         0.0132
     15 N15        42.9630  -42.3930   55.0360 N.ar      1 844        -0.3006
     16 C16        43.9550  -42.8040   54.2660 C.ar      1 844         0.0130
     17 C17        40.3100  -44.9680   54.5020 C.ar      1 844        -0.0235
     18 C18        39.5830  -44.9610   55.6780 C.ar      1 844        -0.0629
     19 C19        38.3460  -45.7290   55.7470 C.ar      1 844        -0.0412
     20 C20        37.9070  -46.5230   54.6410 C.ar      1 844         0.0435
     21 C21        38.6530  -46.5440   53.5260 C.ar      1 844        -0.0412
     22 C22        39.8740  -45.7510   53.4380 C.ar      1 844        -0.0629
     23 N23        36.7330  -47.2890   54.7110 N.pl3     1 844        -0.2971
     24 C24        36.1410  -48.0890   53.6590 C.3       1 844         0.0676
     25 C25        35.4740  -49.4080   54.0910 C.3       1 844        -0.0133
     26 N26        34.6690  -49.2970   55.2660 N.4       1 844         0.2298
     27 C27        34.7490  -48.0140   55.9040 C.3       1 844        -0.0133
     28 C28        36.2040  -47.5700   55.9990 C.3       1 844         0.0676
     29 O29        45.3480  -45.9770   49.1200 O.3       1 844        -0.3276
     30 C30        44.2050  -45.6620   48.4590 C.3       1 844         0.0565
     31 H          49.8388  -44.9892   54.0922 H         1 844         0.0572
     32 H          48.2087  -45.6290   54.4922 H         1 844         0.0572
     33 H          48.4183  -43.8898   54.0949 H         1 844         0.0572
     34 H          49.6676  -45.6052   49.0963 H         1 844         0.0570
     35 H          49.3608  -44.7054   50.6203 H         1 844         0.0570
     36 H          48.4150  -44.3186   49.1430 H         1 844         0.0570
     37 H          43.5207  -44.9615   50.9574 H         1 844         0.0440
     38 H          46.5219  -44.2056   54.0120 H         1 844         0.0440
     39 H          42.4355  -45.6048   53.0358 H         1 844         0.0709
     40 H          40.9879  -42.6616   55.8016 H         1 844         0.0793
     41 H          44.8853  -42.2493   54.2219 H         1 844         0.0794
     42 H          39.9274  -44.3935   56.5350 H         1 844         0.0603
     43 H          37.7490  -45.6980   56.6512 H         1 844         0.0524
     44 H          38.3461  -47.1547   52.6846 H         1 844         0.0524
     45 H          40.4548  -45.7723   52.5229 H         1 844         0.0603
     46 H          36.9358  -48.3364   52.9399 H         1 844         0.0569
     47 H          35.3756  -47.4745   53.1625 H         1 844         0.0569
     48 H          36.2646  -50.1484   54.2827 H         1 844         0.0833
     49 H          34.8355  -49.7584   53.2667 H         1 844         0.0833
     50 H          34.9694  -49.9986   55.9245 H         1 844         0.2015
     51 H          33.7086  -49.4654   55.0103 H         1 844         0.2015
     52 H          34.3222  -48.0827   56.9155 H         1 844         0.0833
     53 H          34.1812  -47.2783   55.3155 H         1 844         0.0833
     54 H          36.2641  -46.6632   56.6188 H         1 844         0.0569
     55 H          36.7957  -48.3721   56.4643 H         1 844         0.0569
     56 H          44.2072  -46.1465   47.4714 H         1 844         0.0572
     57 H          44.1436  -44.5711   48.3320 H         1 844         0.0572
     58 H          43.3380  -46.0132   49.0378 H         1 844         0.0572
@<TRIPOS>BOND
     1    1    2 1  
     2    2    3 1  
     3    3    4 ar 
     4    3   10 ar 
     5    4    5 1  
     6    4    7 ar 
     7    5    6 1  
     8    7    8 ar 
     9    7   29 1  
    10    8    9 ar 
    11    9   10 ar 
    12    9   11 1  
    13   11   12 ar 
    14   11   16 ar 
    15   12   13 ar 
    16   13   14 ar 
    17   13   17 1  
    18   14   15 ar 
    19   15   16 ar 
    20   17   18 ar 
    21   17   22 ar 
    22   18   19 ar 
    23   19   20 ar 
    24   20   21 ar 
    25   20   23 1  
    26   21   22 ar 
    27   23   24 1  
    28   23   28 1  
    29   24   25 1  
    30   25   26 1  
    31   26   27 1  
    32   27   28 1  
    33   29   30 1  
    34    1   31 1  
    35    1   32 1  
    36    1   33 1  
    37    6   34 1  
    38    6   35 1  
    39    6   36 1  
    40    8   37 1  
    41   10   38 1  
    42   12   39 1  
    43   14   40 1  
    44   16   41 1  
    45   18   42 1  
    46   19   43 1  
    47   21   44 1  
    48   22   45 1  
    49   24   46 1  
    50   24   47 1  
    51   25   48 1  
    52   25   49 1  
    53   26   50 1  
    54   26   51 1  
    55   27   52 1  
    56   27   53 1  
    57   28   54 1  
    58   28   55 1  
    59   30   56 1  
    60   30   57 1  
    61   30   58 1  
@<TRIPOS>SUBSTRUCTURE
     1 844         1

