### 
### Created by X-TOOL on Mon Sep 10 21:13:14 2018
### 

@<TRIPOS>MOLECULE
4bgh_ligand
   39    40     1     0     0
SMALL
GAST_HUCK


@<TRIPOS>ATOM
      1 O15        14.7240   -5.8070   10.5410 O.3       1 3I6        -0.3927
      2 C14        13.3480   -5.8030   10.8000 C.3       1 3I6         0.0672
      3 C13        13.0110   -7.2940   10.9270 C.3       1 3I6         0.0611
      4 C15        13.5450   -8.0950    9.7540 C.3       1 3I6        -0.0395
      5 N9         13.6070   -7.8660   12.1600 N.pl3     1 3I6        -0.2970
      6 C9         12.9210   -8.7900   12.8970 C.ar      1 3I6         0.1238
      7 N10        11.7840   -9.3070   12.3470 N.ar      1 3I6        -0.2354
      8 C8         13.3580   -9.1750   14.1730 C.ar      1 3I6         0.0668
      9 BR1        15.0000   -8.3660   14.7610 Br        1 3I6        -0.0552
     10 C7         12.5930  -10.0830   14.8890 C.ar      1 3I6         0.0101
     11 N12        11.4790  -10.5340   14.2610 N.ar      1 3I6        -0.2659
     12 C11        11.0830  -10.1580   13.0400 C.ar      1 3I6         0.1970
     13 N1         10.0220  -10.7200   12.5090 N.pl3     1 3I6        -0.2431
     14 C2          9.4110  -10.5680   11.3800 C.ar      1 3I6         0.0661
     15 C3          8.2630  -11.3910   11.1660 C.ar      1 3I6        -0.0361
     16 C4          7.5020  -11.2020   10.0150 C.ar      1 3I6        -0.0447
     17 C1          9.7370   -9.5970   10.4560 C.ar      1 3I6        -0.0361
     18 C6          8.9700   -9.4410    9.3300 C.ar      1 3I6        -0.0447
     19 C5          7.8230  -10.2370    9.1100 C.ar      1 3I6         0.0963
     20 S1          6.7850   -9.9350    7.7290 S.o2      1 3I6         0.0608
     21 O2          5.6420   -9.1800    8.3060 O.2       1 3I6        -0.1519
     22 O3          6.1350  -11.2100    7.2010 O.2       1 3I6        -0.1519
     23 N4          7.4980   -9.0660    6.6130 N.am      1 3I6        -0.2621
     24 H1         15.1798   -6.2231   11.2632 H         1 3I6         0.2095
     25 H2         12.7918   -5.3422    9.9704 H         1 3I6         0.0580
     26 H3         13.1240   -5.2671   11.7341 H         1 3I6         0.0580
     27 H4         11.9170   -7.4010   10.9681 H         1 3I6         0.0581
     28 H5         13.2824   -9.1552    9.8842 H         1 3I6         0.0253
     29 H6         14.6391   -7.9914    9.7069 H         1 3I6         0.0253
     30 H7         13.1006   -7.7191    8.8206 H         1 3I6         0.0253
     31 H8         14.5443   -7.5644   12.4624 H         1 3I6         0.1858
     32 H9         12.8674  -10.4108   15.8852 H         1 3I6         0.0878
     33 H10         9.5867  -11.4280   13.1174 H         1 3I6         0.2186
     34 H11         7.9884  -12.1510   11.8885 H         1 3I6         0.0538
     35 H12         6.6395  -11.8340    9.8367 H         1 3I6         0.0607
     36 H13        10.5977   -8.9586   10.6196 H         1 3I6         0.0538
     37 H14         9.2484   -8.6939    8.5956 H         1 3I6         0.0607
     38 H15         7.0067   -8.8272    5.7754 H         1 3I6         0.1633
     39 H16         8.4395   -8.7562    6.7460 H         1 3I6         0.1633
@<TRIPOS>BOND
     1    1    2 1  
     2    2    3 1  
     3    3    4 1  
     4    3    5 1  
     5    5    6 1  
     6    6    7 ar 
     7    6    8 ar 
     8    7   12 ar 
     9    8    9 1  
    10    8   10 ar 
    11   10   11 ar 
    12   11   12 ar 
    13   12   13 1  
    14   13   14 1  
    15   14   15 ar 
    16   14   17 ar 
    17   15   16 ar 
    18   16   19 ar 
    19   17   18 ar 
    20   18   19 ar 
    21   19   20 1  
    22   20   21 2  
    23   20   22 2  
    24   20   23 am 
    25    1   24 1  
    26    2   25 1  
    27    2   26 1  
    28    3   27 1  
    29    4   28 1  
    30    4   29 1  
    31    4   30 1  
    32    5   31 1  
    33   10   32 1  
    34   13   33 1  
    35   15   34 1  
    36   16   35 1  
    37   17   36 1  
    38   18   37 1  
    39   23   38 1  
    40   23   39 1  
@<TRIPOS>SUBSTRUCTURE
     1 3I6         1

