### 
### Created by X-TOOL on Mon Sep 10 21:13:16 2018
### 

@<TRIPOS>MOLECULE
4bgm_ligand
   28    27     1     0     0
SMALL
GAST_HUCK


@<TRIPOS>ATOM
      1 CAF        23.1820   32.6440   88.5470 C.3       1 DLT        -0.0017
      2 CAE        22.3140   32.9770   89.7530 C.3       1 DLT         0.1298
      3 CAA        21.4220   32.6370   86.8730 C.3       1 DLT        -0.0414
      4 CAH        23.5440   31.6020   86.4810 C.3       1 DLT        -0.0414
      5 CAJ        22.0390   30.5750   88.0790 C.3       1 DLT        -0.0290
      6 CAK        21.5920   29.5590   87.0230 C.3       1 DLT        -0.0009
      7 CAL        20.7460   28.4390   87.6150 C.3       1 DLT         0.0050
      8 CAM        21.5620   27.2810   88.1030 C.2       1 DLT         0.0350
      9 N3         22.5040   31.8550   87.4960 N.4       1 DLT         0.2409
     10 OAC        22.8130   27.2700   88.1180 O.co2     1 DLT        -0.5690
     11 F26        22.3140   31.9350   90.6400 F         1 DLT        -0.2435
     12 OAB        20.8920   26.3210   88.5070 O.co2     1 DLT        -0.5690
     13 H          24.0517   32.0697   88.8990 H         1 DLT         0.0841
     14 H          23.5234   33.5890   88.0993 H         1 DLT         0.0841
     15 H          21.2840   33.1678   89.4173 H         1 DLT         0.0669
     16 H          22.7105   33.8754   90.2486 H         1 DLT         0.0669
     17 H          20.9327   32.0315   86.0959 H         1 DLT         0.0778
     18 H          21.8417   33.5467   86.4189 H         1 DLT         0.0778
     19 H          20.6837   32.9166   87.6390 H         1 DLT         0.0778
     20 H          24.3607   31.0181   86.9305 H         1 DLT         0.0778
     21 H          23.9382   32.5607   86.1130 H         1 DLT         0.0778
     22 H          23.1088   31.0384   85.6426 H         1 DLT         0.0778
     23 H          22.8630   30.1357   88.6604 H         1 DLT         0.0816
     24 H          21.1895   30.7827   88.7462 H         1 DLT         0.0816
     25 H          22.4854   29.1180   86.5568 H         1 DLT         0.0335
     26 H          20.9996   30.0823   86.2580 H         1 DLT         0.0335
     27 H          20.0529   28.0774   86.8412 H         1 DLT         0.0432
     28 H          20.1718   28.8439   88.4613 H         1 DLT         0.0432
@<TRIPOS>BOND
     1    1    2 1  
     2    9    1 1  
     3    2   11 1  
     4    9    3 1  
     5    9    4 1  
     6    5    6 1  
     7    5    9 1  
     8    6    7 1  
     9    7    8 1  
    10    8   10 ar 
    11    8   12 ar 
    12    1   13 1  
    13    1   14 1  
    14    2   15 1  
    15    2   16 1  
    16    3   17 1  
    17    3   18 1  
    18    3   19 1  
    19    4   20 1  
    20    4   21 1  
    21    4   22 1  
    22    5   23 1  
    23    5   24 1  
    24    6   25 1  
    25    6   26 1  
    26    7   27 1  
    27    7   28 1  
@<TRIPOS>SUBSTRUCTURE
     1 DLT         1

