### 
### Created by X-TOOL on Mon Sep 10 21:13:14 2018
### 

@<TRIPOS>MOLECULE
4bgx_ligand
   60    61     1     0     0
SMALL
GAST_HUCK


@<TRIPOS>ATOM
      1 C1         36.2720   -5.3090   21.5890 C.2       1 SIA         0.1041
      2 C2         36.5300   -5.4420   23.0840 C.3       1 SIA         0.2204
      3 C3         35.2050   -5.2870   23.8360 C.3       1 SIA         0.0353
      4 C4         34.3580   -6.5300   23.6620 C.3       1 SIA         0.0850
      5 C5         35.1640   -7.7150   24.1570 C.3       1 SIA         0.0964
      6 C6         36.4390   -7.8520   23.3210 C.3       1 SIA         0.1143
      7 C7         37.4030   -8.9740   23.6990 C.3       1 SIA         0.1114
      8 C8         38.7620   -8.8460   22.9850 C.3       1 SIA         0.1065
      9 C9         39.5740  -10.1410   23.0160 C.3       1 SIA         0.0727
     10 C10        34.3470   -9.9610   24.5330 C.2       1 SIA         0.1733
     11 C11        33.3420  -11.0030   24.1350 C.3       1 SIA         0.0257
     12 N5         34.2620   -8.8180   23.8790 N.am      1 SIA        -0.2790
     13 O1A        35.6210   -4.3300   21.1570 O.co2     1 SIA        -0.5426
     14 O1B        36.7240   -6.1790   20.8170 O.co2     1 SIA        -0.5426
     15 O4         33.1130   -6.4330   24.3650 O.3       1 SIA        -0.3893
     16 O6         37.1950   -6.6610   23.4300 O.3       1 SIA        -0.3384
     17 O7         37.5580   -8.9620   25.1100 O.3       1 SIA        -0.3865
     18 O8         38.5660   -8.5170   21.6000 O.3       1 SIA        -0.3869
     19 O9         40.8620   -9.9660   22.3880 O.3       1 SIA        -0.3924
     20 O10        35.1980  -10.1520   25.3860 O.2       1 SIA        -0.3974
     21 C1         38.3990   -0.6130   23.0120 C.3       1 GAL         0.1854
     22 C2         39.5370   -0.1600   22.0740 C.3       1 GAL         0.1339
     23 C3         39.9370   -1.2230   21.0270 C.3       1 GAL         0.1141
     24 C4         39.9960   -2.6460   21.6010 C.3       1 GAL         0.1119
     25 C5         38.7160   -2.9080   22.3720 C.3       1 GAL         0.1132
     26 C6         38.6800   -4.3130   22.9350 C.3       1 GAL         0.0786
     27 O1         38.2830    0.2500   24.1570 O.3       1 GAL        -0.3649
     28 O2         39.1310    1.0290   21.3780 O.3       1 GAL        -0.3841
     29 O3         41.1950   -0.8830   20.4290 O.3       1 GAL        -0.3864
     30 O4         41.1100   -2.8480   22.4840 O.3       1 GAL        -0.3865
     31 O5         38.6200   -1.9640   23.4510 O.3       1 GAL        -0.3407
     32 O6         37.3980   -4.4130   23.5480 O.3       1 GAL        -0.3441
     33 H1         34.6608   -4.4177   23.4384 H         1 SIA         0.0336
     34 H2         35.4099   -5.1335   24.9058 H         1 SIA         0.0336
     35 H3         34.1403   -6.6647   22.5922 H         1 SIA         0.0618
     36 H4         35.4083   -7.6372   25.2267 H         1 SIA         0.0608
     37 H5         36.1316   -8.0030   22.2757 H         1 SIA         0.0646
     38 H6         36.9552   -9.9337   23.4015 H         1 SIA         0.0647
     39 H7         39.3383   -8.0482   23.4763 H         1 SIA         0.0643
     40 H8         39.0182  -10.9256   22.4817 H         1 SIA         0.0584
     41 H9         39.7237  -10.4455   24.0624 H         1 SIA         0.0584
     42 H10        33.4979  -11.9111   24.7358 H         1 SIA         0.0467
     43 H11        33.4655  -11.2432   23.0687 H         1 SIA         0.0467
     44 H12        32.3263  -10.6182   24.3090 H         1 SIA         0.0467
     45 H13        33.5598   -8.7091   23.1754 H         1 SIA         0.1856
     46 H14        32.6246   -5.6857   24.0402 H         1 SIA         0.2099
     47 H15        36.7056   -9.0422   25.5218 H         1 SIA         0.2100
     48 H16        39.4104   -8.3979   21.1814 H         1 SIA         0.2100
     49 H17        40.7389   -9.7069   21.4824 H         1 SIA         0.2095
     50 H18        37.4538   -0.5752   22.4506 H         1 SIA         0.0935
     51 H19        40.4192    0.0659   22.6909 H         1 SIA         0.0671
     52 H20        39.1701   -1.2152   20.2385 H         1 SIA         0.0648
     53 H21        40.0751   -3.3586   20.7668 H         1 SIA         0.0647
     54 H22        37.8595   -2.7755   21.6946 H         1 SIA         0.0647
     55 H23        39.4791   -4.4561   23.6772 H         1 SIA         0.0586
     56 H24        38.7874   -5.0575   22.1324 H         1 SIA         0.0586
     57 H25        37.5515   -0.0332   24.6928 H         1 SIA         0.2126
     58 H26        38.8813    1.6941   22.0087 H         1 SIA         0.2101
     59 H27        41.3873   -1.4954   19.7286 H         1 SIA         0.2100
     60 H28        41.0442   -2.2477   23.2174 H         1 SIA         0.2100
@<TRIPOS>BOND
     1    2    1 1  
     2    1   13 ar 
     3    1   14 ar 
     4    2    3 1  
     5    2   16 1  
     6   32    2 1  
     7    3    4 1  
     8    4    5 1  
     9    4   15 1  
    10    6    5 1  
    11    5   12 1  
    12    6    7 1  
    13   16    6 1  
    14    7    8 1  
    15    7   17 1  
    16    8    9 1  
    17    8   18 1  
    18    9   19 1  
    19   10   11 1  
    20   12   10 am 
    21   10   20 2  
    22   21   22 1  
    23   21   27 1  
    24   31   21 1  
    25   23   22 1  
    26   22   28 1  
    27   24   23 1  
    28   23   29 1  
    29   25   24 1  
    30   24   30 1  
    31   26   25 1  
    32   25   31 1  
    33   26   32 1  
    34    3   33 1  
    35    3   34 1  
    36    4   35 1  
    37    5   36 1  
    38    6   37 1  
    39    7   38 1  
    40    8   39 1  
    41    9   40 1  
    42    9   41 1  
    43   11   42 1  
    44   11   43 1  
    45   11   44 1  
    46   12   45 1  
    47   15   46 1  
    48   17   47 1  
    49   18   48 1  
    50   19   49 1  
    51   21   50 1  
    52   22   51 1  
    53   23   52 1  
    54   24   53 1  
    55   25   54 1  
    56   26   55 1  
    57   26   56 1  
    58   27   57 1  
    59   28   58 1  
    60   29   59 1  
    61   30   60 1  
@<TRIPOS>SUBSTRUCTURE
     1 SIA         1

