### 
### Created by X-TOOL on Mon Sep 10 21:13:15 2018
### 

@<TRIPOS>MOLECULE
4bgy_ligand
   87    89     1     0     0
SMALL
GAST_HUCK


@<TRIPOS>ATOM
      1 C1        -23.0570   29.6730   96.2540 C.2       1 SIA         0.1041
      2 C2        -23.1970   29.1360   97.6530 C.3       1 SIA         0.2208
      3 C3        -22.3010   29.9820   98.5510 C.3       1 SIA         0.0353
      4 C4        -22.8170   31.4160   98.5060 C.3       1 SIA         0.0850
      5 C5        -24.2550   31.4240   98.9760 C.3       1 SIA         0.0964
      6 C6        -25.0910   30.5180   98.0860 C.3       1 SIA         0.1143
      7 C7        -26.5540   30.4860   98.4720 C.3       1 SIA         0.1114
      8 C8        -27.2590   29.2710   97.8960 C.3       1 SIA         0.1065
      9 C9        -28.7700   29.4700   97.9120 C.3       1 SIA         0.0727
     10 C10       -25.7580   33.2900   99.3570 C.2       1 SIA         0.1733
     11 C11       -26.1010   34.7130   99.0290 C.3       1 SIA         0.0257
     12 N5        -24.6960   32.7860   98.7440 N.am      1 SIA        -0.2790
     13 O1A       -21.9030   29.8390   95.7930 O.co2     1 SIA        -0.5426
     14 O1B       -24.0970   29.9320   95.6140 O.co2     1 SIA        -0.5426
     15 O4        -22.0290   32.2820   99.3200 O.3       1 SIA        -0.3893
     16 O6        -24.5530   29.1970   98.1070 O.3       1 SIA        -0.3384
     17 O7        -26.6610   30.4870   99.8870 O.3       1 SIA        -0.3865
     18 O8        -26.8120   29.0690   96.5510 O.3       1 SIA        -0.3869
     19 O9        -29.4080   28.3620   97.2830 O.3       1 SIA        -0.3924
     20 O10       -26.4180   32.6330  100.1370 O.2       1 SIA        -0.3974
     21 C1        -22.0520   25.1370  100.0930 C.3       1 GAL         0.1884
     22 C2        -21.8050   26.1350   98.9770 C.3       1 GAL         0.1344
     23 C3        -22.9570   27.1130   98.8440 C.3       1 GAL         0.1197
     24 C4        -24.2830   26.3870   98.8000 C.3       1 GAL         0.1121
     25 C5        -24.4020   25.4450   99.9880 C.3       1 GAL         0.1130
     26 C6        -25.7300   24.6900   99.9960 C.3       1 GAL         0.0730
     27 O2        -20.5860   26.8260   99.2520 O.3       1 GAL        -0.3841
     28 O3        -22.7580   27.7900   97.6180 O.3       1 GAL        -0.3380
     29 O4        -24.3150   25.6400   97.5890 O.3       1 GAL        -0.3865
     30 O5        -23.3240   24.5130   99.9350 O.3       1 GAL        -0.3405
     31 O6        -25.5120   23.3310  100.3900 O.3       1 GAL        -0.3924
     32 C1        -19.8440   20.7600  101.8610 C.3       1 NAG         0.1823
     33 C2        -21.3310   20.8170  101.5490 C.3       1 NAG         0.1208
     34 C3        -21.6130   21.9250  100.5500 C.3       1 NAG         0.1114
     35 C4        -21.0270   23.2330  101.0550 C.3       1 NAG         0.1181
     36 C5        -19.5860   23.0840  101.5490 C.3       1 NAG         0.1133
     37 C6        -19.0880   24.3650  102.2140 C.3       1 NAG         0.0730
     38 C7        -21.7980   18.4630  101.6830 C.2       1 NAG         0.1733
     39 C8        -22.0820   17.1740  100.9730 C.3       1 NAG         0.0257
     40 N2        -21.6220   19.5400  100.9200 N.am      1 NAG        -0.2766
     41 O1        -19.5730   19.6570  102.7300 O.3       1 NAG        -0.3651
     42 O3        -23.0230   22.0840  100.3660 O.3       1 NAG        -0.3867
     43 O4        -21.0310   24.1600   99.9790 O.3       1 NAG        -0.3401
     44 O5        -19.4770   21.9960  102.4690 O.3       1 NAG        -0.3409
     45 O6        -20.1440   24.9550  102.9770 O.3       1 NAG        -0.3924
     46 O7        -21.7300   18.5220  102.9000 O.2       1 NAG        -0.3974
     47 H1        -21.2640   29.9459   98.1858 H         1 SIA         0.0336
     48 H2        -22.3399   29.6026   99.5827 H         1 SIA         0.0336
     49 H3        -22.7746   31.7771   97.4678 H         1 SIA         0.0618
     50 H4        -24.3412   31.1317  100.0329 H         1 SIA         0.0608
     51 H5        -25.0249   30.9038   97.0580 H         1 SIA         0.0646
     52 H6        -27.0410   31.3898   98.0770 H         1 SIA         0.0647
     53 H7        -27.0075   28.3870   98.5003 H         1 SIA         0.0643
     54 H8        -29.0228   30.3932   97.3700 H         1 SIA         0.0584
     55 H9        -29.1172   29.5490   98.9528 H         1 SIA         0.0584
     56 H10       -26.9943   35.0148   99.5956 H         1 SIA         0.0467
     57 H11       -26.3028   34.8025   97.9514 H         1 SIA         0.0467
     58 H12       -25.2576   35.3652   99.2996 H         1 SIA         0.0467
     59 H13       -24.1852   33.3605   98.1044 H         1 SIA         0.1856
     60 H14       -21.1291   32.2688   99.0157 H         1 SIA         0.2099
     61 H15       -26.2169   31.2507  100.2365 H         1 SIA         0.2100
     62 H16       -27.2351   28.2988   96.1902 H         1 SIA         0.2100
     63 H17       -29.1086   28.2941   96.3839 H         1 SIA         0.2095
     64 H18       -22.0026   25.6367  101.0717 H         1 SIA         0.0938
     65 H19       -21.7012   25.5889   98.0278 H         1 SIA         0.0671
     66 H20       -22.9521   27.8232   99.6840 H         1 SIA         0.0650
     67 H21       -25.1106   27.1113   98.8199 H         1 SIA         0.0647
     68 H22       -24.3285   26.0333  100.9145 H         1 SIA         0.0647
     69 H23       -26.1689   24.7120   98.9876 H         1 SIA         0.0584
     70 H24       -26.4190   25.1702  100.7064 H         1 SIA         0.0584
     71 H25       -19.8781   26.1975   99.3316 H         1 SIA         0.2101
     72 H26       -24.2404   26.2329   96.8504 H         1 SIA         0.2100
     73 H27       -24.9175   22.9160   99.7761 H         1 SIA         0.2095
     74 H28       -19.2753   20.6291  100.9286 H         1 SIA         0.0932
     75 H29       -21.9254   20.9626  102.4631 H         1 SIA         0.0633
     76 H30       -21.1496   21.6665   99.5865 H         1 SIA         0.0645
     77 H31       -21.6506   23.6110  101.8785 H         1 SIA         0.0650
     78 H32       -18.9459   22.8726  100.6798 H         1 SIA         0.0647
     79 H33       -18.7563   25.0732  101.4405 H         1 SIA         0.0584
     80 H34       -18.2450   24.1274  102.8795 H         1 SIA         0.0584
     81 H35       -22.2061   16.3683  101.7115 H         1 SIA         0.0467
     82 H36       -21.2436   16.9317  100.3034 H         1 SIA         0.0467
     83 H37       -23.0048   17.2759  100.3830 H         1 SIA         0.0467
     84 H38       -21.6894   19.4707   99.9247 H         1 SIA         0.1857
     85 H39       -19.8262   18.8480  102.3014 H         1 SIA         0.2126
     86 H40       -23.1827   22.7726   99.7313 H         1 SIA         0.2100
     87 H41       -19.8292   25.7513  103.3885 H         1 SIA         0.2095
@<TRIPOS>BOND
     1    2    1 1  
     2    1   13 ar 
     3    1   14 ar 
     4    2    3 1  
     5    2   16 1  
     6   28    2 1  
     7    3    4 1  
     8    4    5 1  
     9    4   15 1  
    10    6    5 1  
    11    5   12 1  
    12    6    7 1  
    13   16    6 1  
    14    7    8 1  
    15    7   17 1  
    16    8    9 1  
    17    8   18 1  
    18    9   19 1  
    19   10   11 1  
    20   12   10 am 
    21   10   20 2  
    22   21   22 1  
    23   21   30 1  
    24   43   21 1  
    25   22   23 1  
    26   22   27 1  
    27   23   24 1  
    28   23   28 1  
    29   25   24 1  
    30   24   29 1  
    31   25   26 1  
    32   30   25 1  
    33   26   31 1  
    34   33   32 1  
    35   32   41 1  
    36   32   44 1  
    37   33   34 1  
    38   40   33 1  
    39   34   35 1  
    40   34   42 1  
    41   35   36 1  
    42   35   43 1  
    43   36   37 1  
    44   44   36 1  
    45   37   45 1  
    46   38   39 1  
    47   38   40 am 
    48   38   46 2  
    49    3   47 1  
    50    3   48 1  
    51    4   49 1  
    52    5   50 1  
    53    6   51 1  
    54    7   52 1  
    55    8   53 1  
    56    9   54 1  
    57    9   55 1  
    58   11   56 1  
    59   11   57 1  
    60   11   58 1  
    61   12   59 1  
    62   15   60 1  
    63   17   61 1  
    64   18   62 1  
    65   19   63 1  
    66   21   64 1  
    67   22   65 1  
    68   23   66 1  
    69   24   67 1  
    70   25   68 1  
    71   26   69 1  
    72   26   70 1  
    73   27   71 1  
    74   29   72 1  
    75   31   73 1  
    76   32   74 1  
    77   33   75 1  
    78   34   76 1  
    79   35   77 1  
    80   36   78 1  
    81   37   79 1  
    82   37   80 1  
    83   39   81 1  
    84   39   82 1  
    85   39   83 1  
    86   40   84 1  
    87   41   85 1  
    88   42   86 1  
    89   45   87 1  
@<TRIPOS>SUBSTRUCTURE
     1 SIA         1

