### 
### Created by X-TOOL on Mon Sep 10 21:13:14 2018
### 

@<TRIPOS>MOLECULE
4bh3_ligand
   87    89     1     0     0
SMALL
GAST_HUCK


@<TRIPOS>ATOM
      1 C1        -22.9270   27.0940  -41.7470 C.2       1 SIA         0.1041
      2 C2        -22.9640   27.3330  -43.2450 C.3       1 SIA         0.2204
      3 C3        -22.1980   26.2380  -43.9940 C.3       1 SIA         0.0353
      4 C4        -22.9460   24.9110  -43.9590 C.3       1 SIA         0.0850
      5 C5        -24.3780   25.0880  -44.4540 C.3       1 SIA         0.0964
      6 C6        -25.0790   26.1840  -43.6580 C.3       1 SIA         0.1143
      7 C7        -26.5290   26.4360  -44.1030 C.3       1 SIA         0.1114
      8 C8        -27.1600   27.6540  -43.4190 C.3       1 SIA         0.1065
      9 C9        -28.6730   27.6500  -43.6230 C.3       1 SIA         0.0727
     10 C10       -25.9670   23.2820  -44.9500 C.2       1 SIA         0.1733
     11 C11       -26.5520   21.9860  -44.4700 C.3       1 SIA         0.0257
     12 N5        -25.0510   23.8300  -44.1520 N.am      1 SIA        -0.2790
     13 O1A       -21.8340   26.7630  -41.2530 O.co2     1 SIA        -0.5426
     14 O1B       -23.9660   27.2600  -41.0530 O.co2     1 SIA        -0.5426
     15 O4        -22.2660   23.9400  -44.7600 O.3       1 SIA        -0.3893
     16 O6        -24.3130   27.4000  -43.7400 O.3       1 SIA        -0.3384
     17 O7        -26.5960   26.5990  -45.5230 O.3       1 SIA        -0.3865
     18 O8        -26.8820   27.6460  -42.0090 O.3       1 SIA        -0.3869
     19 O9        -29.2870   28.8110  -43.0440 O.3       1 SIA        -0.3924
     20 O10       -26.3280   23.7940  -45.9960 O.2       1 SIA        -0.3974
     21 C1        -22.5100   31.6680  -45.9080 C.3       1 GAL         0.1884
     22 C2        -22.9520   33.0710  -45.5180 C.3       1 GAL         0.1341
     23 C3        -22.5880   33.4030  -44.0680 C.3       1 GAL         0.1141
     24 C4        -22.9260   32.2590  -43.1090 C.3       1 GAL         0.1119
     25 C5        -22.4200   30.9320  -43.6740 C.3       1 GAL         0.1132
     26 C6        -22.7450   29.7230  -42.8070 C.3       1 GAL         0.0786
     27 O2        -22.3250   34.0000  -46.4080 O.3       1 GAL        -0.3841
     28 O3        -23.2890   34.5910  -43.6770 O.3       1 GAL        -0.3864
     29 O4        -24.3430   32.2010  -42.9000 O.3       1 GAL        -0.3865
     30 O5        -23.0080   30.7300  -44.9580 O.3       1 GAL        -0.3405
     31 O6        -22.2930   28.5630  -43.5150 O.3       1 GAL        -0.3441
     32 C1        -22.3620   28.7230  -50.2100 C.3       1 NAG         0.1823
     33 C2        -21.8810   28.2120  -48.8560 C.3       1 NAG         0.1208
     34 C3        -22.5650   29.0500  -47.7830 C.3       1 NAG         0.1114
     35 C4        -22.1660   30.5140  -47.9790 C.3       1 NAG         0.1181
     36 C5        -22.2440   31.0000  -49.4330 C.3       1 NAG         0.1133
     37 C6        -21.3900   32.2560  -49.5980 C.3       1 NAG         0.0730
     38 C7        -21.4800   25.9030  -48.1390 C.2       1 NAG         0.1733
     39 C8        -22.0230   24.5040  -48.0920 C.3       1 NAG         0.0257
     40 N2        -22.2720   26.8090  -48.7190 N.am      1 NAG        -0.2766
     41 O1        -21.9470   27.8540  -51.2600 O.3       1 NAG        -0.3651
     42 O3        -22.1930   28.5930  -46.4760 O.3       1 NAG        -0.3867
     43 O4        -23.0260   31.3500  -47.2010 O.3       1 NAG        -0.3401
     44 O5        -21.7990   30.0240  -50.3880 O.3       1 NAG        -0.3409
     45 O6        -22.0220   33.1590  -50.5120 O.3       1 NAG        -0.3924
     46 O7        -20.3860   26.1820  -47.6700 O.2       1 NAG        -0.3974
     47 H1        -21.2125   26.1054  -43.5238 H         1 SIA         0.0336
     48 H2        -22.0660   26.5465  -45.0415 H         1 SIA         0.0336
     49 H3        -22.9756   24.5524  -42.9195 H         1 SIA         0.0618
     50 H4        -24.4006   25.3133  -45.5304 H         1 SIA         0.0608
     51 H5        -25.1077   25.8648  -42.6057 H         1 SIA         0.0646
     52 H6        -27.1209   25.5506  -43.8281 H         1 SIA         0.0647
     53 H7        -26.7383   28.5677  -43.8632 H         1 SIA         0.0643
     54 H8        -29.0946   26.7503  -43.1509 H         1 SIA         0.0584
     55 H9        -28.8878   27.6330  -44.7017 H         1 SIA         0.0584
     56 H10       -27.2917   21.6251  -45.1998 H         1 SIA         0.0467
     57 H11       -27.0423   22.1427  -43.4979 H         1 SIA         0.0467
     58 H12       -25.7508   21.2403  -44.3606 H         1 SIA         0.0467
     59 H13       -24.8135   23.3552  -43.3045 H         1 SIA         0.1856
     60 H14       -21.3761   23.8374  -44.4438 H         1 SIA         0.2099
     61 H15       -26.2047   25.8437  -45.9462 H         1 SIA         0.2100
     62 H16       -25.9418   27.6484  -41.8727 H         1 SIA         0.2100
     63 H17       -29.1096   28.8296  -42.1109 H         1 SIA         0.2095
     64 H18       -21.4112   31.6217  -45.9288 H         1 SIA         0.0938
     65 H19       -24.0440   33.1437  -45.6289 H         1 SIA         0.0671
     66 H20       -21.5056   33.5914  -44.0135 H         1 SIA         0.0648
     67 H21       -22.4316   32.4453  -42.1442 H         1 SIA         0.0647
     68 H22       -21.3270   30.9976  -43.7791 H         1 SIA         0.0647
     69 H23       -23.8299   29.6618  -42.6363 H         1 SIA         0.0586
     70 H24       -22.2256   29.8012  -41.8405 H         1 SIA         0.0586
     71 H25       -22.5574   33.7849  -47.3036 H         1 SIA         0.2101
     72 H26       -24.2246   34.4276  -43.7008 H         1 SIA         0.2100
     73 H27       -24.6445   33.0308  -42.5491 H         1 SIA         0.2100
     74 H28       -23.4600   28.7887  -50.2125 H         1 SIA         0.0932
     75 H29       -20.7882   28.3074  -48.7742 H         1 SIA         0.0633
     76 H30       -23.6555   28.9564  -47.8926 H         1 SIA         0.0645
     77 H31       -21.1298   30.6327  -47.6295 H         1 SIA         0.0650
     78 H32       -23.2930   31.2463  -49.6543 H         1 SIA         0.0647
     79 H33       -20.4005   31.9755  -49.9881 H         1 SIA         0.0584
     80 H34       -21.2730   32.7483  -48.6213 H         1 SIA         0.0584
     81 H35       -21.2949   23.8446  -47.5970 H         1 SIA         0.0467
     82 H36       -22.2043   24.1464  -49.1163 H         1 SIA         0.0467
     83 H37       -22.9675   24.4960  -47.5282 H         1 SIA         0.0467
     84 H38       -23.1617   26.5185  -49.0712 H         1 SIA         0.1857
     85 H39       -22.2367   28.2055  -52.0936 H         1 SIA         0.2126
     86 H40       -22.6321   29.1216  -45.8201 H         1 SIA         0.2100
     87 H41       -21.4852   33.9368  -50.6091 H         1 SIA         0.2095
@<TRIPOS>BOND
     1    2    1 1  
     2    1   13 ar 
     3    1   14 ar 
     4    2    3 1  
     5    2   16 1  
     6   31    2 1  
     7    3    4 1  
     8    4    5 1  
     9    4   15 1  
    10    6    5 1  
    11    5   12 1  
    12    6    7 1  
    13   16    6 1  
    14    7    8 1  
    15    7   17 1  
    16    8    9 1  
    17    8   18 1  
    18    9   19 1  
    19   10   11 1  
    20   12   10 am 
    21   10   20 2  
    22   21   22 1  
    23   21   30 1  
    24   43   21 1  
    25   22   23 1  
    26   22   27 1  
    27   23   24 1  
    28   23   28 1  
    29   25   24 1  
    30   24   29 1  
    31   25   26 1  
    32   30   25 1  
    33   26   31 1  
    34   33   32 1  
    35   32   41 1  
    36   32   44 1  
    37   33   34 1  
    38   40   33 1  
    39   34   35 1  
    40   34   42 1  
    41   35   36 1  
    42   35   43 1  
    43   36   37 1  
    44   44   36 1  
    45   37   45 1  
    46   38   39 1  
    47   38   40 am 
    48   38   46 2  
    49    3   47 1  
    50    3   48 1  
    51    4   49 1  
    52    5   50 1  
    53    6   51 1  
    54    7   52 1  
    55    8   53 1  
    56    9   54 1  
    57    9   55 1  
    58   11   56 1  
    59   11   57 1  
    60   11   58 1  
    61   12   59 1  
    62   15   60 1  
    63   17   61 1  
    64   18   62 1  
    65   19   63 1  
    66   21   64 1  
    67   22   65 1  
    68   23   66 1  
    69   24   67 1  
    70   25   68 1  
    71   26   69 1  
    72   26   70 1  
    73   27   71 1  
    74   28   72 1  
    75   29   73 1  
    76   32   74 1  
    77   33   75 1  
    78   34   76 1  
    79   35   77 1  
    80   36   78 1  
    81   37   79 1  
    82   37   80 1  
    83   39   81 1  
    84   39   82 1  
    85   39   83 1  
    86   40   84 1  
    87   41   85 1  
    88   42   86 1  
    89   45   87 1  
@<TRIPOS>SUBSTRUCTURE
     1 SIA         1

