### 
### Created by X-TOOL on Mon Sep 10 21:13:14 2018
### 

@<TRIPOS>MOLECULE
4bh4_ligand
   87    89     1     0     0
SMALL
GAST_HUCK


@<TRIPOS>ATOM
      1 C1         28.3080    2.4600  -13.1450 C.2       1 SIA         0.1041
      2 C2         28.2450    2.2250  -11.6420 C.3       1 SIA         0.2208
      3 C3         28.9550    3.3400  -10.8720 C.3       1 SIA         0.0353
      4 C4         28.1780    4.6430  -10.8990 C.3       1 SIA         0.0850
      5 C5         26.7530    4.4100  -10.4160 C.3       1 SIA         0.0964
      6 C6         26.0920    3.3110  -11.2550 C.3       1 SIA         0.1143
      7 C7         24.6430    3.0170  -10.8450 C.3       1 SIA         0.1114
      8 C8         24.0100    1.8160  -11.5690 C.3       1 SIA         0.1065
      9 C9         22.4880    1.8700  -11.4540 C.3       1 SIA         0.0727
     10 C10        25.1040    6.1460   -9.8520 C.2       1 SIA         0.1733
     11 C11        24.4600    7.4210  -10.3020 C.3       1 SIA         0.0257
     12 N5         26.0300    5.6500  -10.6730 N.am      1 SIA        -0.2790
     13 O1A        29.4130    2.7470  -13.6480 O.co2     1 SIA        -0.5426
     14 O1B        27.2680    2.3530  -13.8420 O.co2     1 SIA        -0.5426
     15 O4         28.8490    5.6070  -10.0840 O.3       1 SIA        -0.3893
     16 O6         26.8860    2.1120  -11.1830 O.3       1 SIA        -0.3384
     17 O7         24.6000    2.7860   -9.4340 O.3       1 SIA        -0.3865
     18 O8         24.3510    1.7810  -12.9640 O.3       1 SIA        -0.3869
     19 O9         21.8800    0.7140  -12.0480 O.3       1 SIA        -0.3924
     20 O10        24.7690    5.6060   -8.8120 O.2       1 SIA        -0.3974
     21 C1         27.9950   -2.5350  -11.3000 C.3       1 GAL         0.1884
     22 C2         28.2660   -1.1450  -10.7420 C.3       1 GAL         0.1344
     23 C3         28.5590   -0.1800  -11.8800 C.3       1 GAL         0.1197
     24 C4         29.6540   -0.7160  -12.7980 C.3       1 GAL         0.1121
     25 C5         29.3550   -2.1490  -13.2200 C.3       1 GAL         0.1130
     26 C6         30.4970   -2.7460  -14.0310 C.3       1 GAL         0.0730
     27 O2         27.1390   -0.6710  -10.0000 O.3       1 GAL        -0.3841
     28 O3         28.9890    1.0530  -11.3130 O.3       1 GAL        -0.3380
     29 O4         30.9160   -0.6790  -12.1220 O.3       1 GAL        -0.3865
     30 O5         29.1260   -2.9560  -12.0650 O.3       1 GAL        -0.3405
     31 O6         30.0220   -3.9190  -14.7000 O.3       1 GAL        -0.3924
     32 C1         27.2870   -7.4560   -9.5720 C.3       1 NAG         0.1823
     33 C2         28.2930   -7.1450  -10.6720 C.3       1 NAG         0.1208
     34 C3         28.5960   -5.6530  -10.7820 C.3       1 NAG         0.1114
     35 C4         27.3620   -4.7540  -10.6310 C.3       1 NAG         0.1181
     36 C5         26.3580   -5.2670   -9.5980 C.3       1 NAG         0.1133
     37 C6         25.0320   -4.5170   -9.7090 C.3       1 NAG         0.0730
     38 C7         30.0550   -8.9260  -10.7250 C.2       1 NAG         0.1733
     39 C8         29.2940   -9.6990  -11.7690 C.3       1 NAG         0.0257
     40 N2         29.5490   -7.7740  -10.2660 N.am      1 NAG        -0.2766
     41 O1         26.9350   -8.8410   -9.6220 O.3       1 NAG        -0.3651
     42 O3         29.1940   -5.4270  -12.0660 O.3       1 NAG        -0.3867
     43 O4         27.7720   -3.4430  -10.2230 O.3       1 NAG        -0.3401
     44 O5         26.1180   -6.6640   -9.7730 O.3       1 NAG        -0.3409
     45 O6         24.2110   -4.8120   -8.5730 O.3       1 NAG        -0.3924
     46 O7         31.1240   -9.3380  -10.3000 O.2       1 NAG        -0.3974
     47 H1         29.9436    3.5082  -11.3241 H         1 SIA         0.0336
     48 H2         29.0792    3.0238   -9.8258 H         1 SIA         0.0336
     49 H3         28.1416    5.0173  -11.9327 H         1 SIA         0.0618
     50 H4         26.7367    4.1478   -9.3479 H         1 SIA         0.0608
     51 H5         26.0767    3.6527  -12.3005 H         1 SIA         0.0646
     52 H6         24.0397    3.9066  -11.0789 H         1 SIA         0.0647
     53 H7         24.3750    0.8940  -11.0929 H         1 SIA         0.0643
     54 H8         22.1214    2.7713  -11.9670 H         1 SIA         0.0584
     55 H9         22.2101    1.9147  -10.3906 H         1 SIA         0.0584
     56 H10        23.7170    7.7396   -9.5561 H         1 SIA         0.0467
     57 H11        23.9621    7.2588  -11.2694 H         1 SIA         0.0467
     58 H12        25.2278    8.2011  -10.4110 H         1 SIA         0.0467
     59 H13        26.2400    6.1554  -11.5099 H         1 SIA         0.1856
     60 H14        29.7335    5.7325  -10.4071 H         1 SIA         0.2099
     61 H15        24.9897    3.5247   -8.9813 H         1 SIA         0.2100
     62 H16        25.2958    1.7471  -13.0571 H         1 SIA         0.2100
     63 H17        22.1132    0.6724  -12.9680 H         1 SIA         0.2095
     64 H18        27.1045   -2.5070  -11.9452 H         1 SIA         0.0938
     65 H19        29.1395   -1.1929  -10.0751 H         1 SIA         0.0671
     66 H20        27.6426   -0.0206  -12.4672 H         1 SIA         0.0650
     67 H21        29.7064   -0.0825  -13.6957 H         1 SIA         0.0647
     68 H22        28.4470   -2.1476  -13.8409 H         1 SIA         0.0647
     69 H23        31.3269   -3.0132  -13.3603 H         1 SIA         0.0584
     70 H24        30.8466   -2.0130  -14.7729 H         1 SIA         0.0584
     71 H25        27.3330    0.1893   -9.6467 H         1 SIA         0.2101
     72 H26        31.1061    0.2134  -11.8571 H         1 SIA         0.2100
     73 H27        29.7195   -4.5487  -14.0563 H         1 SIA         0.2095
     74 H28        27.7279   -7.2232   -8.5915 H         1 SIA         0.0932
     75 H29        27.9362   -7.5356  -11.6364 H         1 SIA         0.0633
     76 H30        29.3134   -5.3842   -9.9927 H         1 SIA         0.0645
     77 H31        26.8598   -4.6922  -11.6077 H         1 SIA         0.0650
     78 H32        26.7761   -5.1018   -8.5941 H         1 SIA         0.0647
     79 H33        24.5116   -4.8291  -10.6265 H         1 SIA         0.0584
     80 H34        25.2266   -3.4350   -9.7478 H         1 SIA         0.0584
     81 H35        29.8510  -10.6115  -12.0281 H         1 SIA         0.0467
     82 H36        29.1703   -9.0773  -12.6680 H         1 SIA         0.0467
     83 H37        28.3048   -9.9731  -11.3737 H         1 SIA         0.0467
     84 H38        30.0866   -7.2937   -9.5729 H         1 SIA         0.1857
     85 H39        27.7131   -9.3694   -9.4882 H         1 SIA         0.2126
     86 H40        29.4534   -4.5158  -12.1374 H         1 SIA         0.2100
     87 H41        24.0422   -5.7463   -8.5398 H         1 SIA         0.2095
@<TRIPOS>BOND
     1    2    1 1  
     2    1   13 ar 
     3    1   14 ar 
     4    2    3 1  
     5    2   16 1  
     6   28    2 1  
     7    3    4 1  
     8    4    5 1  
     9    4   15 1  
    10    6    5 1  
    11    5   12 1  
    12    6    7 1  
    13   16    6 1  
    14    7    8 1  
    15    7   17 1  
    16    8    9 1  
    17    8   18 1  
    18    9   19 1  
    19   10   11 1  
    20   12   10 am 
    21   10   20 2  
    22   21   22 1  
    23   21   30 1  
    24   43   21 1  
    25   22   23 1  
    26   22   27 1  
    27   23   24 1  
    28   23   28 1  
    29   25   24 1  
    30   24   29 1  
    31   25   26 1  
    32   30   25 1  
    33   26   31 1  
    34   33   32 1  
    35   32   41 1  
    36   32   44 1  
    37   33   34 1  
    38   40   33 1  
    39   34   35 1  
    40   34   42 1  
    41   35   36 1  
    42   35   43 1  
    43   36   37 1  
    44   44   36 1  
    45   37   45 1  
    46   38   39 1  
    47   38   40 am 
    48   38   46 2  
    49    3   47 1  
    50    3   48 1  
    51    4   49 1  
    52    5   50 1  
    53    6   51 1  
    54    7   52 1  
    55    8   53 1  
    56    9   54 1  
    57    9   55 1  
    58   11   56 1  
    59   11   57 1  
    60   11   58 1  
    61   12   59 1  
    62   15   60 1  
    63   17   61 1  
    64   18   62 1  
    65   19   63 1  
    66   21   64 1  
    67   22   65 1  
    68   23   66 1  
    69   24   67 1  
    70   25   68 1  
    71   26   69 1  
    72   26   70 1  
    73   27   71 1  
    74   29   72 1  
    75   31   73 1  
    76   32   74 1  
    77   33   75 1  
    78   34   76 1  
    79   35   77 1  
    80   36   78 1  
    81   37   79 1  
    82   37   80 1  
    83   39   81 1  
    84   39   82 1  
    85   39   83 1  
    86   40   84 1  
    87   41   85 1  
    88   42   86 1  
    89   45   87 1  
@<TRIPOS>SUBSTRUCTURE
     1 SIA         1

