### 
### Created by X-TOOL on Mon Sep 10 21:13:16 2018
### 

@<TRIPOS>MOLECULE
4bhf_ligand
   28    27     1     0     0
SMALL
GAST_HUCK


@<TRIPOS>ATOM
      1 N1         22.5500   31.9450   87.7140 N.4       1 MZT         0.2389
      2 C8         22.5610   32.8600   88.8680 C.3       1 MZT        -0.0415
      3 O4         22.7790   27.1630   87.8820 O.co2     1 MZT        -0.5690
      4 C5         21.5490   27.3470   87.9330 C.2       1 MZT         0.0350
      5 O7         20.8480   26.5400   88.5310 O.co2     1 MZT        -0.5690
      6 C6         20.8100   28.5060   87.2660 C.3       1 MZT         0.0053
      7 C2         21.7520   30.7110   88.0550 C.3       1 MZT        -0.0212
      8 C9         21.9110   32.6670   86.6090 C.3       1 MZT        -0.0415
      9 C10        23.9400   31.6640   87.3010 C.3       1 MZT        -0.0415
     10 C3         21.6870   29.7040   86.9090 C.3       1 MZT         0.0017
     11 C21        22.2220   29.9820   89.3010 C.3       1 MZT        -0.0214
     12 H          23.1432   33.7590   88.6175 H         1 MZT         0.0778
     13 H          23.0189   32.3555   89.7316 H         1 MZT         0.0778
     14 H          21.5292   33.1489   89.1167 H         1 MZT         0.0778
     15 H          20.0231   28.8507   87.9530 H         1 MZT         0.0432
     16 H          20.3499   28.1308   86.3400 H         1 MZT         0.0432
     17 H          20.7252   31.0545   88.2492 H         1 MZT         0.0850
     18 H          22.4999   33.5643   86.3681 H         1 MZT         0.0778
     19 H          20.8941   32.9644   86.9047 H         1 MZT         0.0778
     20 H          21.8597   32.0140   85.7253 H         1 MZT         0.0778
     21 H          24.4585   31.1207   88.1047 H         1 MZT         0.0778
     22 H          24.4623   32.6116   87.1028 H         1 MZT         0.0778
     23 H          23.9344   31.0504   86.3881 H         1 MZT         0.0778
     24 H          21.2698   30.2003   86.0204 H         1 MZT         0.0337
     25 H          22.7042   29.3489   86.6871 H         1 MZT         0.0337
     26 H          21.5864   29.1006   89.4718 H         1 MZT         0.0284
     27 H          22.1546   30.6561   90.1676 H         1 MZT         0.0284
     28 H          23.2655   29.6610   89.1664 H         1 MZT         0.0284
@<TRIPOS>BOND
     1    1    2 1  
     2    7    1 1  
     3    1    8 1  
     4    1    9 1  
     5    4    3 ar 
     6    4    5 ar 
     7    6    4 1  
     8   10    6 1  
     9    7   10 1  
    10    7   11 1  
    11    2   12 1  
    12    2   13 1  
    13    2   14 1  
    14    6   15 1  
    15    6   16 1  
    16    7   17 1  
    17    8   18 1  
    18    8   19 1  
    19    8   20 1  
    20    9   21 1  
    21    9   22 1  
    22    9   23 1  
    23   10   24 1  
    24   10   25 1  
    25   11   26 1  
    26   11   27 1  
    27   11   28 1  
@<TRIPOS>SUBSTRUCTURE
     1 MZT         1

