### 
### Created by X-TOOL on Mon Sep 10 21:13:17 2018
### 

@<TRIPOS>MOLECULE
4bhi_ligand
   28    27     1     0     0
SMALL
GAST_HUCK


@<TRIPOS>ATOM
      1 O4         20.8580   26.8470   88.3870 O.co2     1 RUJ        -0.5688
      2 C5         21.7620   27.4390   87.7690 C.2       1 RUJ         0.0399
      3 O7         22.9620   27.0540   87.8180 O.co2     1 RUJ        -0.5688
      4 C6         21.4390   28.6160   86.8530 C.3       1 RUJ         0.0419
      5 C3         20.9320   29.8880   87.4820 C.3       1 RUJ         0.0065
      6 N2         21.9950   30.6770   88.1100 N.4       1 RUJ         0.3280
      7 C21        22.4810   30.0590   89.3340 C.3       1 RUJ        -0.0158
      8 N1         22.4760   31.8990   87.6630 N.4       1 RUJ         0.3279
      9 C8         23.8620   31.7800   87.1510 C.3       1 RUJ        -0.0144
     10 C9         21.6430   32.5010   86.5980 C.3       1 RUJ        -0.0144
     11 C10        22.5010   32.8770   88.7590 C.3       1 RUJ        -0.0144
     12 H          20.6720   28.2753   86.1419 H         1 RUJ         0.0483
     13 H          22.3602   28.8668   86.3066 H         1 RUJ         0.0483
     14 H          20.1881   29.6278   88.2494 H         1 RUJ         0.0848
     15 H          20.4554   30.4996   86.7018 H         1 RUJ         0.0848
     16 H          22.6966   30.2130   87.5545 H         1 RUJ         0.2351
     17 H          21.9633   29.1013   89.4918 H         1 RUJ         0.0792
     18 H          22.2838   30.7270   90.1854 H         1 RUJ         0.0792
     19 H          23.5633   29.8813   89.2504 H         1 RUJ         0.0792
     20 H          24.2111   32.7644   86.8058 H         1 RUJ         0.0793
     21 H          23.8833   31.0686   86.3123 H         1 RUJ         0.0793
     22 H          24.5202   31.4188   87.9550 H         1 RUJ         0.0793
     23 H          22.0791   33.4632   86.2913 H         1 RUJ         0.0793
     24 H          20.6239   32.6649   86.9782 H         1 RUJ         0.0793
     25 H          21.6070   31.8224   85.7330 H         1 RUJ         0.0793
     26 H          22.8848   33.8375   88.3846 H         1 RUJ         0.0793
     27 H          23.1549   32.5095   89.5636 H         1 RUJ         0.0793
     28 H          21.4821   33.0164   89.1494 H         1 RUJ         0.0793
@<TRIPOS>BOND
     1    1    2 ar 
     2    2    3 ar 
     3    2    4 1  
     4    4    5 1  
     5    5    6 1  
     6    6    7 1  
     7    6    8 1  
     8    8    9 1  
     9    8   10 1  
    10    8   11 1  
    11    4   12 1  
    12    4   13 1  
    13    5   14 1  
    14    5   15 1  
    15    6   16 1  
    16    7   17 1  
    17    7   18 1  
    18    7   19 1  
    19    9   20 1  
    20    9   21 1  
    21    9   22 1  
    22   10   23 1  
    23   10   24 1  
    24   10   25 1  
    25   11   26 1  
    26   11   27 1  
    27   11   28 1  
@<TRIPOS>SUBSTRUCTURE
     1 RUJ         1

