### 
### Created by X-TOOL on Mon Sep 10 21:13:14 2018
### 

@<TRIPOS>MOLECULE
4bhz_ligand
   19    21     1     0     0
SMALL
GAST_HUCK


@<TRIPOS>ATOM
      1 CAO         0.8940  -42.2180   17.3370 C.ar      1 Z0B         0.0182
      2 CAN         1.0660  -42.5600   18.7160 C.ar      1 Z0B         0.0157
      3 CAH         1.9660  -41.8030   19.4970 C.ar      1 Z0B        -0.0269
      4 CAD         2.6480  -40.7780   18.9150 C.ar      1 Z0B         0.0103
      5 CAL         1.6730  -41.1280   16.8820 C.ar      1 Z0B         0.0220
      6 CAC        -1.4180  -43.7900   14.8510 C.2       1 Z0B         0.0057
      7 CAG        -0.4840  -42.8620   15.1490 C.2       1 Z0B        -0.0498
      8 CAM        -0.0340  -42.9790   16.5390 C.ar      1 Z0B         0.0117
      9 CAJ        -0.6930  -44.0460   17.2560 C.ar      1 Z0B         0.1110
     10 NAC        -0.5350  -44.3720   18.5460 N.ar      1 Z0B        -0.2796
     11 SAK        -1.8050  -44.8290   16.1710 S.3       1 Z0B        -0.0151
     12 CAK         0.3160  -43.6450   19.2390 C.ar      1 Z0B         0.0201
     13 N           2.5260  -40.4300   17.6280 N.ar      1 Z0B        -0.2954
     14 H1          2.1122  -42.0345   20.5458 H         1 Z0B         0.0734
     15 H2          3.3327  -40.2080   19.5326 H         1 Z0B         0.0786
     16 H3          1.5666  -40.8383   15.8429 H         1 Z0B         0.0863
     17 H4         -1.8829  -43.8743   13.8698 H         1 Z0B         0.0850
     18 H5         -0.1115  -42.1195   14.4448 H         1 Z0B         0.0453
     19 H6          0.4538  -43.8933   20.2852 H         1 Z0B         0.0835
@<TRIPOS>BOND
     1    1    2 ar 
     2    1    5 ar 
     3    8    1 ar 
     4    2    3 ar 
     5    2   12 ar 
     6    3    4 ar 
     7   13    4 ar 
     8    5   13 ar 
     9    7    6 2  
    10    6   11 1  
    11    7    8 1  
    12    8    9 ar 
    13    9   10 ar 
    14    9   11 1  
    15   10   12 ar 
    16    3   14 1  
    17    4   15 1  
    18    5   16 1  
    19    6   17 1  
    20    7   18 1  
    21   12   19 1  
@<TRIPOS>SUBSTRUCTURE
     1 Z0B         1

