### 
### Created by X-TOOL on Mon Sep 10 21:13:14 2018
### 

@<TRIPOS>MOLECULE
4bi0_ligand
   20    22     1     0     0
SMALL
GAST_HUCK


@<TRIPOS>ATOM
      1 C2          1.5750   45.3090   16.4690 C.ar      1 Z0W         0.0722
      2 N3          1.4960   44.7630   15.2540 N.ar      1 Z0W        -0.2773
      3 C4          0.7040   43.6860   15.1380 C.ar      1 Z0W         0.0501
      4 C5         -0.0040   43.1910   16.2400 C.ar      1 Z0W         0.1173
      5 N1          0.9680   44.9140   17.5980 N.ar      1 Z0W        -0.2774
      6 C6          0.1530   43.8440   17.5330 C.ar      1 Z0W         0.0818
      7 C7         -0.7010   43.0480   18.4200 C.ar      1 Z0W         0.0214
      8 C8         -0.9280   43.0820   19.7960 C.ar      1 Z0W        -0.0617
      9 C12        -1.3180   42.0360   17.6500 C.ar      1 Z0W         0.0742
     10 C11        -2.1640   41.0930   18.2350 C.ar      1 Z0W        -0.0359
     11 C10        -2.3740   41.1550   19.6060 C.ar      1 Z0W        -0.0696
     12 C9         -1.7600   42.1370   20.3780 C.ar      1 Z0W        -0.0710
     13 N2         -0.8900   42.1330   16.3390 N.pl3     1 Z0W        -0.2619
     14 H1          2.2106   46.1830   16.5545 H         1 Z0W         0.1019
     15 H2          0.6110   43.1922   14.1775 H         1 Z0W         0.0875
     16 H3         -0.4566   43.8430   20.4073 H         1 Z0W         0.0606
     17 H4         -2.6456   40.3305   17.6336 H         1 Z0W         0.0551
     18 H5         -3.0243   40.4295   20.0812 H         1 Z0W         0.0595
     19 H6         -1.9342   42.1636   21.4476 H         1 Z0W         0.0529
     20 H7         -1.1821   41.5197   15.5648 H         1 Z0W         0.2202
@<TRIPOS>BOND
     1    1    2 ar 
     2    1    5 ar 
     3    2    3 ar 
     4    3    4 ar 
     5    4    6 ar 
     6    4   13 1  
     7    5    6 ar 
     8    6    7 1  
     9    7    8 ar 
    10    7    9 ar 
    11    8   12 ar 
    12    9   10 ar 
    13    9   13 1  
    14   10   11 ar 
    15   11   12 ar 
    16    1   14 1  
    17    3   15 1  
    18    8   16 1  
    19   10   17 1  
    20   11   18 1  
    21   12   19 1  
    22   13   20 1  
@<TRIPOS>SUBSTRUCTURE
     1 Z0W         1

