### 
### Created by X-TOOL on Mon Sep 10 21:13:14 2018
### 

@<TRIPOS>MOLECULE
4bi1_ligand
   19    21     1     0     0
SMALL
GAST_HUCK


@<TRIPOS>ATOM
      1 C9          1.5440   45.1470   16.8810 C.2       1 ZO6        -0.0455
      2 C8          1.6450   44.7190   15.6050 C.2       1 ZO6         0.0037
      3 S           0.6840   43.3280   15.2580 S.3       1 ZO6        -0.0221
      4 C7          0.0810   43.2840   16.8820 C.ar      1 ZO6         0.0769
      5 C          -0.8270   42.3980   17.5430 C.ar      1 ZO6         0.0378
      6 C6          0.6440   44.3260   17.6780 C.ar      1 ZO6         0.0457
      7 N1          0.4120   44.5030   19.0040 N.ar      1 ZO6        -0.2999
      8 C5         -0.4060   43.6570   19.5900 C.ar      1 ZO6         0.0182
      9 C4         -1.0710   42.5940   18.9370 C.ar      1 ZO6         0.0184
     10 C3         -1.9910   41.7480   19.5950 C.ar      1 ZO6        -0.0263
     11 C2         -2.6250   40.7780   18.8830 C.ar      1 ZO6         0.0110
     12 N          -2.4260   40.5560   17.5790 N.ar      1 ZO6        -0.2940
     13 C1         -1.5530   41.3400   16.9480 C.ar      1 ZO6         0.0251
     14 H1          2.0776   46.0122   17.2718 H         1 ZO6         0.0443
     15 H2          2.2750   45.2066   14.8625 H         1 ZO6         0.0824
     16 H3         -0.5836   43.7838   20.6518 H         1 ZO6         0.0842
     17 H4         -2.1892   41.8703   20.6537 H         1 ZO6         0.0737
     18 H5         -3.3350   40.1461   19.4042 H         1 ZO6         0.0789
     19 H6         -1.3856   41.1519   15.8936 H         1 ZO6         0.0876
@<TRIPOS>BOND
     1    1    2 2  
     2    1    6 1  
     3    2    3 1  
     4    3    4 1  
     5    4    5 ar 
     6    4    6 ar 
     7    5    9 ar 
     8    5   13 ar 
     9    6    7 ar 
    10    7    8 ar 
    11    8    9 ar 
    12    9   10 ar 
    13   10   11 ar 
    14   11   12 ar 
    15   12   13 ar 
    16    1   14 1  
    17    2   15 1  
    18    8   16 1  
    19   10   17 1  
    20   11   18 1  
    21   13   19 1  
@<TRIPOS>SUBSTRUCTURE
     1 ZO6         1

