### 
### Created by X-TOOL on Mon Sep 10 21:13:14 2018
### 

@<TRIPOS>MOLECULE
4bi2_ligand
   19    21     1     0     0
SMALL
GAST_HUCK


@<TRIPOS>ATOM
      1 CAO        -0.7210   42.1430   17.0310 C.ar      1 ZO8         0.0076
      2 CAN        -0.8360   42.5490   18.3940 C.ar      1 ZO8         0.0270
      3 CAH        -1.7300   41.8230   19.2070 C.ar      1 ZO8         0.0237
      4 CAF        -2.3460   40.4460   17.4970 C.ar      1 ZO8         0.0102
      5 CAL        -1.5190   41.0510   16.6040 C.ar      1 ZO8        -0.0280
      6 CAC         1.3610   43.7010   14.3320 C.2       1 ZO8         0.0050
      7 CAG         0.5160   42.7290   14.7320 C.2       1 ZO8        -0.0507
      8 CAM         0.1470   42.8850   16.1480 C.ar      1 ZO8         0.0109
      9 CAJ         0.7870   44.0140   16.7640 C.ar      1 ZO8         0.1103
     10 NAC         0.6940   44.3970   18.0430 N.ar      1 ZO8        -0.2802
     11 SAK         1.7580   44.8220   15.5790 S.3       1 ZO8        -0.0154
     12 CAK        -0.0870   43.6730   18.8210 C.ar      1 ZO8         0.0206
     13 N          -2.4680   40.8000   18.7840 N.ar      1 ZO8        -0.2946
     14 H1         -1.8223   42.1179   20.2460 H         1 ZO8         0.0885
     15 H2         -2.9499   39.6183   17.1432 H         1 ZO8         0.0800
     16 H3         -1.4700   40.7033   15.5784 H         1 ZO8         0.0716
     17 H4          1.7544   43.7707   13.3189 H         1 ZO8         0.0840
     18 H5          0.1525   41.9294   14.0882 H         1 ZO8         0.0451
     19 H6         -0.1612   43.9591   19.8639 H         1 ZO8         0.0844
@<TRIPOS>BOND
     1    1    2 ar 
     2    1    5 ar 
     3    8    1 ar 
     4    2    3 ar 
     5    2   12 ar 
     6    3   13 ar 
     7    5    4 ar 
     8    4   13 ar 
     9    7    6 2  
    10    6   11 1  
    11    7    8 1  
    12    8    9 ar 
    13    9   10 ar 
    14    9   11 1  
    15   10   12 ar 
    16    3   14 1  
    17    4   15 1  
    18    5   16 1  
    19    6   17 1  
    20    7   18 1  
    21   12   19 1  
@<TRIPOS>SUBSTRUCTURE
     1 ZO8         1

