### 
### Created by X-TOOL on Mon Sep 10 21:13:14 2018
### 

@<TRIPOS>MOLECULE
4bio_ligand
   20    21     1     0     0
SMALL
GAST_HUCK


@<TRIPOS>ATOM
      1 OAA       -24.2940   17.5090   -9.0240 O.co2     1 8XQ        -0.5646
      2 OAB       -25.3220   17.3430   -7.1250 O.co2     1 8XQ        -0.5646
      3 OAC       -26.3440   23.3650   -8.3210 O.3       1 8XQ        -0.3235
      4 CAD       -25.6700   20.1870   -4.6120 C.ar      1 8XQ        -0.0338
      5 CAE       -26.0160   21.5300   -4.7030 C.ar      1 8XQ         0.0097
      6 CAF       -25.7690   21.3420   -9.4910 C.ar      1 8XQ        -0.0238
      7 CAG       -25.4220   19.9980   -9.4160 C.ar      1 8XQ        -0.0544
      8 CAH       -25.4340   19.4630   -5.7740 C.ar      1 8XQ        -0.0374
      9 NAI       -26.1230   22.1400   -5.9590 N.ar      1 8XQ        -0.2924
     10 CAJ       -24.9640   18.0310   -8.1060 C.2       1 8XQ         0.0549
     11 CAK       -26.0010   22.0480   -8.3190 C.ar      1 8XQ         0.1199
     12 CAL       -25.3110   19.3750   -8.1770 C.ar      1 8XQ         0.0104
     13 CAM       -25.5460   20.0920   -7.0080 C.ar      1 8XQ         0.0123
     14 CAN       -25.8930   21.4360   -7.0770 C.ar      1 8XQ         0.0864
     15 H1        -27.1565   23.4787   -8.7999 H         1 8XQ         0.2534
     16 H2        -25.5850   19.7087   -3.6430 H         1 8XQ         0.0696
     17 H3        -26.2028   22.1045   -3.8029 H         1 8XQ         0.0840
     18 H4        -25.8573   21.8327  -10.4535 H         1 8XQ         0.0544
     19 H5        -25.2377   19.4348  -10.3237 H         1 8XQ         0.0649
     20 H6        -25.1643   18.4145   -5.7184 H         1 8XQ         0.0747
@<TRIPOS>BOND
     1   10    1 ar 
     2   10    2 ar 
     3   11    3 1  
     4    5    4 ar 
     5    4    8 ar 
     6    9    5 ar 
     7    6    7 ar 
     8   11    6 ar 
     9    7   12 ar 
    10    8   13 ar 
    11   14    9 ar 
    12   12   10 1  
    13   11   14 ar 
    14   12   13 ar 
    15   13   14 ar 
    16    3   15 1  
    17    4   16 1  
    18    5   17 1  
    19    6   18 1  
    20    7   19 1  
    21    8   20 1  
@<TRIPOS>SUBSTRUCTURE
     1 8XQ         1

