### 
### Created by X-TOOL on Mon Sep 10 21:13:18 2018
### 

@<TRIPOS>MOLECULE
4bis_ligand
   20    21     1     0     0
SMALL
GAST_HUCK


@<TRIPOS>ATOM
      1 OAB        24.3040  -22.8030   -3.0310 O.co2     1 8HQ        -0.5576
      2 OAA        23.3010  -22.0400   -4.7910 O.co2     1 8HQ        -0.5576
      3 OAC        28.4320  -19.9740   -7.8870 O.3       1 8HQ        -0.3258
      4 CAD        26.5980  -23.1480   -4.5890 C.ar      1 8HQ        -0.0203
      5 CAE        27.8160  -23.0070   -5.2420 C.ar      1 8HQ         0.0133
      6 CAF        26.2040  -19.1240   -7.5580 C.ar      1 8HQ        -0.0282
      7 CAG        24.9800  -19.2520   -6.9120 C.ar      1 8HQ        -0.0687
      8 CAH        25.5790  -22.2400   -4.8450 C.ar      1 8HQ         0.0318
      9 NAI        28.0050  -21.9560   -6.1480 N.ar      1 8HQ        -0.2902
     10 CAK        27.2120  -20.0420   -7.2900 C.ar      1 8HQ         0.1168
     11 CAL        24.7750  -20.2910   -6.0090 C.ar      1 8HQ        -0.0591
     12 CA0        24.3530  -22.3650   -4.2000 C.2       1 8HQ         0.0718
     13 CAM        25.7900  -21.2050   -5.7480 C.ar      1 8HQ         0.0116
     14 CAN        27.0170  -21.0820   -6.3910 C.ar      1 8HQ         0.0859
     15 H          28.9769  -20.6862   -7.5734 H         1 8HQ         0.2520
     16 H          26.4445  -23.9590   -3.8864 H         1 8HQ         0.0731
     17 H          28.6190  -23.7095   -5.0505 H         1 8HQ         0.0846
     18 H          26.3703  -18.3173   -8.2628 H         1 8HQ         0.0533
     19 H          24.1850  -18.5426   -7.1115 H         1 8HQ         0.0610
     20 H          23.8194  -20.3883   -5.5066 H         1 8HQ         0.0521
@<TRIPOS>BOND
     1   12    1 ar 
     2   12    2 ar 
     3   10    3 1  
     4    5    4 ar 
     5    4    8 ar 
     6    9    5 ar 
     7    6    7 ar 
     8   10    6 ar 
     9    7   11 ar 
    10    8   12 1  
    11    8   13 ar 
    12   14    9 ar 
    13   10   14 ar 
    14   11   13 ar 
    15   13   14 ar 
    16    3   15 1  
    17    4   16 1  
    18    5   17 1  
    19    6   18 1  
    20    7   19 1  
    21   11   20 1  
@<TRIPOS>SUBSTRUCTURE
     1 8HQ         1

