### 
### Created by X-TOOL on Mon Sep 10 21:13:14 2018
### 

@<TRIPOS>MOLECULE
4bj8_ligand
   31    32     1     0     0
SMALL
GAST_HUCK


@<TRIPOS>ATOM
      1 C11       220.1320    8.1360    6.3560 C.2       1 BTN         0.0348
      2 O11       220.5780    7.1000    6.9220 O.co2     1 BTN        -0.5690
      3 O12       219.8690    8.1370    5.1490 O.co2     1 BTN        -0.5690
      4 C10       219.9540    9.4480    7.0860 C.3       1 BTN         0.0002
      5 C9        219.7670    9.2260    8.5750 C.3       1 BTN        -0.0414
      6 C8        218.5080    8.3870    8.8510 C.3       1 BTN        -0.0505
      7 C7        217.9880    8.5250   10.2930 C.3       1 BTN        -0.0389
      8 C2        216.7930    7.6260   10.5530 C.3       1 BTN         0.0302
      9 S1        215.2670    8.5420   10.4150 S.3       1 BTN        -0.1527
     10 C6        214.3660    7.2130   11.1490 C.3       1 BTN         0.0190
     11 C5        215.2530    6.6420   12.2520 C.3       1 BTN         0.0750
     12 N1        214.9740    7.3080   13.4980 N.am      1 BTN        -0.2671
     13 C3        215.9880    8.0200   13.9080 C.2       1 BTN         0.2580
     14 O3        215.9780    8.7280   14.9070 O.2       1 BTN        -0.4008
     15 N2        216.9910    7.8650   13.0610 N.am      1 BTN        -0.2668
     16 C4        216.7110    6.9900   11.9580 C.3       1 BTN         0.0775
     17 H1        219.0686    9.9639    6.6862 H         1 BTN         0.0430
     18 H2        220.8456   10.0719    6.9254 H         1 BTN         0.0430
     19 H3        219.6668   10.2008    9.0747 H         1 BTN         0.0283
     20 H4        220.6459    8.6982    8.9736 H         1 BTN         0.0283
     21 H5        218.7458    7.3292    8.6655 H         1 BTN         0.0267
     22 H6        217.7146    8.7109    8.1614 H         1 BTN         0.0267
     23 H7        217.6908    9.5700   10.4653 H         1 BTN         0.0277
     24 H8        218.7951    8.2537   10.9894 H         1 BTN         0.0277
     25 H9        216.8162    6.8227    9.8019 H         1 BTN         0.0435
     26 H10       214.1502    6.4397   10.3970 H         1 BTN         0.0399
     27 H11       213.4221    7.5839   11.5749 H         1 BTN         0.0399
     28 H12       215.1071    5.5550   12.3367 H         1 BTN         0.0584
     29 H13       214.1068    7.2338   13.9903 H         1 BTN         0.1849
     30 H14       217.8734    8.3204   13.1791 H         1 BTN         0.1849
     31 H15       217.3639    6.1053   11.9898 H         1 BTN         0.0587
@<TRIPOS>BOND
     1    1    2 ar 
     2    1    3 ar 
     3    1    4 1  
     4    4    5 1  
     5    5    6 1  
     6    6    7 1  
     7    7    8 1  
     8    8    9 1  
     9    8   16 1  
    10    9   10 1  
    11   10   11 1  
    12   11   12 1  
    13   11   16 1  
    14   12   13 am 
    15   13   14 2  
    16   13   15 am 
    17   15   16 1  
    18    4   17 1  
    19    4   18 1  
    20    5   19 1  
    21    5   20 1  
    22    6   21 1  
    23    6   22 1  
    24    7   23 1  
    25    7   24 1  
    26    8   25 1  
    27   10   26 1  
    28   10   27 1  
    29   11   28 1  
    30   12   29 1  
    31   15   30 1  
    32   16   31 1  
@<TRIPOS>SUBSTRUCTURE
     1 BTN         1

