### 
### Created by X-TOOL on Mon Sep 10 21:13:13 2018
### 

@<TRIPOS>MOLECULE
4bj9_ligand
   67    72     1     0     0
SMALL
GAST_HUCK


@<TRIPOS>ATOM
      1 C01       -39.1070  -13.1260   16.1370 C.ar      1 UHB        -0.0640
      2 C02       -40.1500  -14.1740   16.0990 C.ar      1 UHB        -0.0770
      3 C03       -40.7960  -14.5070   14.8250 C.ar      1 UHB        -0.0431
      4 C04       -40.4200  -13.7560   13.5770 C.ar      1 UHB         0.0769
      5 C05       -39.3270  -12.7120   13.6230 C.ar      1 UHB         0.0216
      6 C06       -38.6970  -12.4090   14.8780 C.ar      1 UHB         0.0405
      7 C07       -37.6910  -11.3820   14.6420 C.2       1 UHB         0.1981
      8 C08       -38.7230  -11.8430   12.5980 C.3       1 UHB         0.0639
      9 N09       -37.7190  -11.0440   13.2430 N.am      1 UHB        -0.2774
     10 O10       -36.9660  -10.8970   15.4660 O.2       1 UHB        -0.3887
     11 N11       -41.0940  -14.1200   12.3630 N.am      1 UHB        -0.2315
     12 C12       -41.5470  -13.2230   11.3090 C.2       1 UHB         0.2474
     13 O13       -41.3890  -12.0050   11.3760 O.2       1 UHB        -0.3798
     14 C14       -42.2400  -13.9360   10.0940 C.3       1 UHB         0.0637
     15 N15       -42.7430  -12.9510    9.1320 N.4       1 UHB         0.2552
     16 C16       -41.6030  -12.5690    8.2900 C.3       1 UHB        -0.0091
     17 C17       -41.8420  -11.4470    7.2860 C.3       1 UHB         0.0741
     18 N18       -42.7310  -10.4050    7.7660 N.am      1 UHB        -0.2608
     19 C19       -43.9600  -10.9700    8.1920 C.3       1 UHB         0.0741
     20 C20       -43.7530  -11.9460    9.3240 C.3       1 UHB        -0.0091
     21 C21       -42.3960   -8.9750    7.8400 C.2       1 UHB         0.2108
     22 C22       -41.0700   -8.4540    7.3730 C.3       1 UHB         0.1790
     23 C23       -40.0110   -8.5320    8.4560 C.3       1 UHB         0.1295
     24 C24       -39.7140   -7.1500    8.7590 C.3       1 UHB         0.1408
     25 C25       -39.9860   -6.4940    7.4760 C.3       1 UHB         0.2035
     26 O26       -41.2100   -7.0780    6.9960 O.3       1 UHB        -0.3181
     27 O27       -43.2050   -8.1570    8.2880 O.2       1 UHB        -0.3939
     28 O28       -38.9140   -9.2450    8.0070 O.3       1 UHB        -0.3840
     29 O29       -38.3640   -6.9700    9.2720 O.3       1 UHB        -0.3834
     30 N30       -40.0950   -5.0860    7.5180 N.pl3     1 UHB        -0.1918
     31 C31       -39.8220   -2.9680    6.8920 C.ar      1 UHB         0.1045
     32 C32       -39.5590   -4.2500    6.5470 C.ar      1 UHB         0.1613
     33 C33       -40.6990   -4.3120    8.4520 C.2       1 UHB         0.1123
     34 N34       -40.5310   -3.0010    8.0840 N.2       1 UHB        -0.2958
     35 N35       -38.6220   -2.1140    4.7970 N.ar      1 UHB        -0.2698
     36 C36       -38.3470   -3.4590    4.4440 C.ar      1 UHB         0.0533
     37 N37       -38.8190   -4.5400    5.3130 N.ar      1 UHB        -0.2714
     38 C38       -39.3280   -1.8290    5.9780 C.ar      1 UHB         0.1298
     39 N39       -39.5760   -0.4930    6.3130 N.pl3     1 UHB        -0.3152
     40 H1        -38.6340  -12.8721   17.0787 H         1 UHB         0.0519
     41 H2        -40.4352  -14.6928   17.0071 H         1 UHB         0.0532
     42 H3        -41.5423  -15.2921   14.7829 H         1 UHB         0.0513
     43 H4        -39.4927  -11.1932   12.1561 H         1 UHB         0.0668
     44 H5        -38.2641  -12.4567   11.8089 H         1 UHB         0.0668
     45 H6        -37.1364  -10.3659   12.7949 H         1 UHB         0.1867
     46 H7        -41.2716  -15.0946   12.2263 H         1 UHB         0.2237
     47 H8        -43.0806  -14.5421   10.4628 H         1 UHB         0.1067
     48 H9        -41.5092  -14.5884    9.5937 H         1 UHB         0.1067
     49 H10       -43.2652  -13.5600    8.5217 H         1 UHB         0.2054
     50 H11       -41.2909  -13.4605    7.7262 H         1 UHB         0.0835
     51 H12       -40.7871  -12.2523    8.9564 H         1 UHB         0.0835
     52 H13       -42.2805  -11.8840    6.3767 H         1 UHB         0.0575
     53 H14       -40.8722  -10.9889    7.0418 H         1 UHB         0.0575
     54 H15       -44.4245  -11.4969    7.3454 H         1 UHB         0.0575
     55 H16       -44.6262  -10.1634    8.5320 H         1 UHB         0.0575
     56 H17       -43.4811  -11.3664   10.2185 H         1 UHB         0.0835
     57 H18       -44.7085  -12.4624    9.4981 H         1 UHB         0.0835
     58 H19       -40.7419   -9.0449    6.5051 H         1 UHB         0.0869
     59 H20       -40.4119   -9.0318    9.3501 H         1 UHB         0.0673
     60 H21       -40.4110   -6.7715    9.5211 H         1 UHB         0.0678
     61 H22       -39.1680   -6.7392    6.7826 H         1 UHB         0.0998
     62 H23       -38.2382   -9.2380    8.6747 H         1 UHB         0.2102
     63 H24       -37.7400   -7.3232    8.6489 H         1 UHB         0.2101
     64 H25       -41.2243   -4.6674    9.3373 H         1 UHB         0.1349
     65 H26       -37.7930   -3.6855    3.5402 H         1 UHB         0.0996
     66 H27       -39.2429    0.2627    5.6975 H         1 UHB         0.1820
     67 H28       -40.0916   -0.2654    7.1751 H         1 UHB         0.1820
@<TRIPOS>BOND
     1    2    1 ar 
     2    6    1 ar 
     3    3    2 ar 
     4    4    3 ar 
     5    4    5 ar 
     6   11    4 1  
     7    5    6 ar 
     8    5    8 1  
     9    6    7 1  
    10    9    7 am 
    11    7   10 2  
    12    8    9 1  
    13   12   11 am 
    14   12   13 2  
    15   14   12 1  
    16   15   14 1  
    17   16   15 1  
    18   20   15 1  
    19   17   16 1  
    20   18   17 1  
    21   18   19 1  
    22   21   18 am 
    23   19   20 1  
    24   22   21 1  
    25   21   27 2  
    26   22   23 1  
    27   26   22 1  
    28   24   23 1  
    29   23   28 1  
    30   25   24 1  
    31   24   29 1  
    32   25   26 1  
    33   30   25 1  
    34   32   30 1  
    35   33   30 1  
    36   31   32 ar 
    37   31   34 1  
    38   38   31 ar 
    39   32   37 ar 
    40   34   33 2  
    41   35   36 ar 
    42   35   38 ar 
    43   36   37 ar 
    44   38   39 1  
    45    1   40 1  
    46    2   41 1  
    47    3   42 1  
    48    8   43 1  
    49    8   44 1  
    50    9   45 1  
    51   11   46 1  
    52   14   47 1  
    53   14   48 1  
    54   15   49 1  
    55   16   50 1  
    56   16   51 1  
    57   17   52 1  
    58   17   53 1  
    59   19   54 1  
    60   19   55 1  
    61   20   56 1  
    62   20   57 1  
    63   22   58 1  
    64   23   59 1  
    65   24   60 1  
    66   25   61 1  
    67   28   62 1  
    68   29   63 1  
    69   33   64 1  
    70   36   65 1  
    71   39   66 1  
    72   39   67 1  
@<TRIPOS>SUBSTRUCTURE
     1 UHB         1

