### 
### Created by X-TOOL on Mon Sep 10 21:13:14 2018
### 

@<TRIPOS>MOLECULE
4bjb_ligand
   40    42     1     0     0
SMALL
GAST_HUCK


@<TRIPOS>ATOM
      1 CAA        10.5980   10.5460   22.3960 C.3       1 P34        -0.0415
      2 N          11.6630    9.9240   21.6110 N.4       1 P34         0.2481
      3 CAB        12.9940    9.8840   22.2250 C.3       1 P34        -0.0415
      4 CA         11.2170    8.5020   21.6640 C.3       1 P34         0.0626
      5 C          11.7380    7.6880   20.4560 C.2       1 P34         0.2455
      6 O          12.5470    8.1790   19.6690 O.2       1 P34        -0.3808
      7 NAM        11.2160    6.4410   20.4010 N.am      1 P34        -0.2372
      8 CAP        11.4850    5.5260   19.4410 C.ar      1 P34         0.0545
      9 CAK        11.7160    5.8110   18.0830 C.ar      1 P34        -0.0434
     10 CAU        11.9550    4.7810   17.1460 C.ar      1 P34        -0.0020
     11 CAT        12.2030    5.0240   15.7750 C.ar      1 P34        -0.0079
     12 CAI        12.2310    6.3270   15.2540 C.ar      1 P34        -0.0530
     13 CAF        12.4730    6.5600   13.9060 C.ar      1 P34        -0.0599
     14 CAE        12.6860    5.4930   13.0460 C.ar      1 P34        -0.0588
     15 CAH        12.6610    4.1890   13.5360 C.ar      1 P34        -0.0442
     16 CAS        12.4220    3.9440   14.8910 C.ar      1 P34         0.0572
     17 CAQ        12.4000    2.6260   15.3630 C.2       1 P34         0.2237
     18 OAD        12.5850    1.6620   14.6260 O.2       1 P34        -0.3870
     19 NAN        12.1560    2.3850   16.7130 N.am      1 P34        -0.2368
     20 CAR        11.9320    3.4530   17.5970 C.ar      1 P34         0.0685
     21 CAJ        11.6900    3.1650   18.9390 C.ar      1 P34        -0.0471
     22 CAG        11.4630    4.1920   19.8490 C.ar      1 P34        -0.0498
     23 H1         10.7749   11.6298   22.4601 H         1 P34         0.0778
     24 H2         10.5892   10.1154   23.4082 H         1 P34         0.0778
     25 H3          9.6285   10.3609   21.9103 H         1 P34         0.0778
     26 H4         11.7095   10.3103   20.6811 H         1 P34         0.2047
     27 H5         13.7001    9.3946   21.5380 H         1 P34         0.0778
     28 H6         12.9465    9.3176   23.1667 H         1 P34         0.0778
     29 H7         13.3339   10.9097   22.4307 H         1 P34         0.0778
     30 H8         10.1174    8.4740   21.6638 H         1 P34         0.1067
     31 H9         11.5953    8.0450   22.5903 H         1 P34         0.1067
     32 H10        10.5816    6.1746   21.1267 H         1 P34         0.2212
     33 H11        11.7105    6.8421   17.7486 H         1 P34         0.0468
     34 H12        12.0605    7.1680   15.9164 H         1 P34         0.0613
     35 H13        12.4953    7.5752   13.5266 H         1 P34         0.0643
     36 H14        12.8718    5.6734   11.9934 H         1 P34         0.0608
     37 H15        12.8283    3.3577   12.8607 H         1 P34         0.0661
     38 H16        12.1402    1.4454   17.0550 H         1 P34         0.2277
     39 H17        11.6786    2.1346   19.2755 H         1 P34         0.0486
     40 H18        11.2666    3.9531   20.8879 H         1 P34         0.0494
@<TRIPOS>BOND
     1    1    2 1  
     2    2    3 1  
     3    2    4 1  
     4    4    5 1  
     5    5    6 2  
     6    5    7 am 
     7    7    8 1  
     8    8    9 ar 
     9    8   22 ar 
    10    9   10 ar 
    11   10   11 1  
    12   10   20 ar 
    13   11   12 ar 
    14   11   16 ar 
    15   12   13 ar 
    16   13   14 ar 
    17   14   15 ar 
    18   15   16 ar 
    19   16   17 1  
    20   17   18 2  
    21   17   19 am 
    22   19   20 1  
    23   20   21 ar 
    24   21   22 ar 
    25    1   23 1  
    26    1   24 1  
    27    1   25 1  
    28    2   26 1  
    29    3   27 1  
    30    3   28 1  
    31    3   29 1  
    32    4   30 1  
    33    4   31 1  
    34    7   32 1  
    35    9   33 1  
    36   12   34 1  
    37   13   35 1  
    38   14   36 1  
    39   15   37 1  
    40   19   38 1  
    41   21   39 1  
    42   22   40 1  
@<TRIPOS>SUBSTRUCTURE
     1 P34         1

