### 
### Created by X-TOOL on Mon Sep 10 21:13:14 2018
### 

@<TRIPOS>MOLECULE
4bjc_ligand
   43    46     1     0     0
SMALL
GAST_HUCK


@<TRIPOS>ATOM
      1 O1         12.5440    2.0960   14.9880 O.2       1 RPB        -0.3887
      2 C7         12.0450    3.0060   15.6590 C.2       1 RPB         0.1963
      3 N1         11.5500    2.6250   16.9050 N.am      1 RPB        -0.2862
      4 C8         10.9100    3.5170   17.8900 C.3       1 RPB         0.0354
      5 C9         11.8180    4.6930   18.2640 C.3       1 RPB        -0.0124
      6 C10        11.8850    5.6590   17.2370 C.2       1 RPB        -0.0306
      7 C5         11.9900    5.4670   15.9090 C.ar      1 RPB        -0.0016
      8 C4         12.0560    4.3290   15.1860 C.ar      1 RPB         0.0363
      9 C3         12.1520    4.4130   13.7900 C.ar      1 RPB        -0.0239
     10 C2         12.1750    5.6700   13.1850 C.ar      1 RPB         0.1246
     11 F1         12.2720    5.8090   11.8200 F         1 RPB        -0.1898
     12 C1         12.1100    6.8010   13.9890 C.ar      1 RPB        -0.0055
     13 C6         12.0170    6.6730   15.3130 C.ar      1 RPB         0.0647
     14 N2         11.9390    7.6020   16.2530 N.pl3     1 RPB        -0.2825
     15 C11        11.8610    6.9990   17.4380 C.2       1 RPB         0.0588
     16 C12        11.7570    7.7210   18.5810 C.ar      1 RPB        -0.0098
     17 C14        12.3890    7.3820   19.7840 C.ar      1 RPB        -0.0621
     18 C15        12.2420    8.1740   20.9280 C.ar      1 RPB        -0.0570
     19 C13        10.9910    8.8910   18.5640 C.ar      1 RPB        -0.0621
     20 C17        10.8470    9.6880   19.6980 C.ar      1 RPB        -0.0570
     21 C16        11.4590    9.3280   20.8980 C.ar      1 RPB        -0.0005
     22 C18        11.3370   10.1210   22.0210 C.3       1 RPB        -0.0009
     23 N3         10.1710    9.7690   22.8460 N.4       1 RPB         0.2368
     24 C19         8.9080    9.9060   22.0950 C.3       1 RPB        -0.0435
     25 H1         11.6365    1.6602   17.1535 H         1 RPB         0.1842
     26 H2         10.6820    2.9399   18.7983 H         1 RPB         0.0536
     27 H3          9.9763    3.9100   17.4612 H         1 RPB         0.0536
     28 H4         12.8311    4.3112   18.4585 H         1 RPB         0.0386
     29 H5         11.4247    5.1695   19.1741 H         1 RPB         0.0386
     30 H6         12.2076    3.5130   13.1884 H         1 RPB         0.0571
     31 H7         12.1349    7.7874   13.5401 H         1 RPB         0.0562
     32 H8         11.9387    8.6197   16.0946 H         1 RPB         0.2186
     33 H9         13.0031    6.4899   19.8296 H         1 RPB         0.0582
     34 H10        12.7415    7.8880   21.8466 H         1 RPB         0.0555
     35 H11        10.4967    9.1854   17.6453 H         1 RPB         0.0582
     36 H12        10.2548   10.5945   19.6468 H         1 RPB         0.0555
     37 H13        11.2376   11.1689   21.7017 H         1 RPB         0.0978
     38 H14        12.2454   10.0081   22.6309 H         1 RPB         0.0978
     39 H15        10.1420   10.3795   23.6476 H         1 RPB         0.2025
     40 H16        10.2655    8.8140   23.1542 H         1 RPB         0.2025
     41 H17         8.0634    9.6344   22.7453 H         1 RPB         0.0777
     42 H18         8.9270    9.2386   21.2208 H         1 RPB         0.0777
     43 H19         8.7921   10.9470   21.7592 H         1 RPB         0.0777
@<TRIPOS>BOND
     1    1    2 2  
     2    2    3 am 
     3    2    8 1  
     4    3    4 1  
     5    4    5 1  
     6    5    6 1  
     7    6    7 1  
     8    6   15 2  
     9    7    8 ar 
    10    7   13 ar 
    11    8    9 ar 
    12    9   10 ar 
    13   10   11 1  
    14   10   12 ar 
    15   12   13 ar 
    16   13   14 1  
    17   14   15 1  
    18   15   16 1  
    19   16   17 ar 
    20   16   19 ar 
    21   17   18 ar 
    22   18   21 ar 
    23   19   20 ar 
    24   20   21 ar 
    25   21   22 1  
    26   22   23 1  
    27   23   24 1  
    28    3   25 1  
    29    4   26 1  
    30    4   27 1  
    31    5   28 1  
    32    5   29 1  
    33    9   30 1  
    34   12   31 1  
    35   14   32 1  
    36   17   33 1  
    37   18   34 1  
    38   19   35 1  
    39   20   36 1  
    40   22   37 1  
    41   22   38 1  
    42   23   39 1  
    43   23   40 1  
    44   24   41 1  
    45   24   42 1  
    46   24   43 1  
@<TRIPOS>SUBSTRUCTURE
     1 RPB         1

