### 
### Created by X-TOOL on Mon Sep 10 21:13:12 2018
### 

@<TRIPOS>MOLECULE
4bjx_ligand
   53    56     1     0     0
SMALL
GAST_HUCK


@<TRIPOS>ATOM
      1 C1         15.0320    6.0240   10.0040 C.3       1 73B        -0.0364
      2 C2         14.0090    5.1520    9.2570 C.3       1 73B         0.0668
      3 C3         14.6530    4.2700    8.1860 C.3       1 73B         0.0055
      4 C4         14.0000    2.9070    8.1410 C.3       1 73B         0.0682
      5 N1         14.5630    2.0190    7.1420 N.pl3     1 73B        -0.3106
      6 C5         13.8410    1.0320    6.4880 C.ar      1 73B         0.0399
      7 C6         14.2550    0.5760    5.2570 C.ar      1 73B        -0.0436
      8 C7         13.5710   -0.4260    4.6150 C.ar      1 73B        -0.0597
      9 C8         12.5050   -0.9940    5.2300 C.ar      1 73B         0.0261
     10 CL1        11.6630   -2.3020    4.4280 Cl        1 73B        -0.0830
     11 C9         12.0910   -0.5760    6.4440 C.ar      1 73B        -0.0597
     12 C10        12.7700    0.4320    7.0840 C.ar      1 73B        -0.0436
     13 C11        13.9780    2.3010    9.5210 C.ar      1 73B         0.0061
     14 C12        14.5050    1.0590    9.8420 C.ar      1 73B        -0.0618
     15 C13        14.4410    0.5820   11.1440 C.ar      1 73B        -0.0374
     16 C14        13.9660    1.4250   12.1300 C.ar      1 73B        -0.0723
     17 C15        13.5050    2.6820   11.8430 C.ar      1 73B        -0.0440
     18 C16        13.5190    3.1270   10.5440 C.ar      1 73B         0.0773
     19 N2         13.1060    4.4410   10.1930 N.am      1 73B        -0.2181
     20 C17        11.9960    5.0490   10.6430 C.2       1 73B         0.2028
     21 C18        11.1180    4.2820   11.5830 C.3       1 73B         0.0318
     22 O1         11.7470    6.1620   10.3290 O.2       1 73B        -0.3851
     23 C19        14.9370   -0.7580   11.5120 C.ar      1 73B        -0.0269
     24 C20        14.4280   -1.4020   12.6130 C.ar      1 73B        -0.0547
     25 C21        14.8880   -2.6390   13.0010 C.ar      1 73B        -0.0498
     26 C22        15.8780   -3.2790   12.2890 C.ar      1 73B         0.0076
     27 C23        16.4070   -2.6360   11.1850 C.ar      1 73B        -0.0498
     28 C24        15.9430   -1.3870   10.8080 C.ar      1 73B        -0.0547
     29 C25        16.3820   -4.6180   12.7120 C.2       1 73B         0.0612
     30 O2         17.3860   -5.0350   12.2300 O.co2     1 73B        -0.5614
     31 O3         15.7230   -5.2520   13.6010 O.co2     1 73B        -0.5614
     32 H          15.6809    6.5329    9.2760 H         1 73B         0.0257
     33 H          15.6450    5.3891   10.6606 H         1 73B         0.0257
     34 H          14.5019    6.7738   10.6096 H         1 73B         0.0257
     35 H          13.3646    5.8519    8.7049 H         1 73B         0.0622
     36 H          15.7221    4.1491    8.4148 H         1 73B         0.0333
     37 H          14.5405    4.7551    7.2052 H         1 73B         0.0333
     38 H          12.9523    3.0693    7.8480 H         1 73B         0.0683
     39 H          15.5592    2.1280    6.9039 H         1 73B         0.1783
     40 H          15.1302    1.0127    4.7898 H         1 73B         0.0516
     41 H          13.8789   -0.7583    3.6302 H         1 73B         0.0589
     42 H          11.2268   -1.0333    6.9121 H         1 73B         0.0589
     43 H          12.4528    0.7532    8.0696 H         1 73B         0.0516
     44 H          14.9703    0.4563    9.0705 H         1 73B         0.0525
     45 H          13.9580    1.0822   13.1583 H         1 73B         0.0539
     46 H          13.1318    3.3209   12.6352 H         1 73B         0.0491
     47 H          10.2537    4.9012   11.8651 H         1 73B         0.0472
     48 H          11.6894    4.0173   12.4849 H         1 73B         0.0472
     49 H          10.7659    3.3642   11.0894 H         1 73B         0.0472
     50 H          13.6448   -0.9240   13.1902 H         1 73B         0.0608
     51 H          14.4660   -3.1160   13.8782 H         1 73B         0.0644
     52 H          17.1917   -3.1138   10.6097 H         1 73B         0.0644
     53 H          16.3775   -0.8952    9.9452 H         1 73B         0.0608
@<TRIPOS>BOND
     1    1    2 1  
     2    2    3 1  
     3    2   19 1  
     4    3    4 1  
     5    4    5 1  
     6    4   13 1  
     7    5    6 1  
     8    6    7 ar 
     9    6   12 ar 
    10    7    8 ar 
    11    8    9 ar 
    12    9   10 1  
    13    9   11 ar 
    14   11   12 ar 
    15   13   14 ar 
    16   13   18 ar 
    17   14   15 ar 
    18   15   16 ar 
    19   15   23 1  
    20   16   17 ar 
    21   17   18 ar 
    22   18   19 1  
    23   19   20 am 
    24   20   21 1  
    25   20   22 2  
    26   23   24 ar 
    27   23   28 ar 
    28   24   25 ar 
    29   25   26 ar 
    30   26   27 ar 
    31   26   29 1  
    32   27   28 ar 
    33   29   30 ar 
    34   29   31 ar 
    35    1   32 1  
    36    1   33 1  
    37    1   34 1  
    38    2   35 1  
    39    3   36 1  
    40    3   37 1  
    41    4   38 1  
    42    5   39 1  
    43    7   40 1  
    44    8   41 1  
    45   11   42 1  
    46   12   43 1  
    47   14   44 1  
    48   16   45 1  
    49   17   46 1  
    50   21   47 1  
    51   21   48 1  
    52   21   49 1  
    53   24   50 1  
    54   25   51 1  
    55   27   52 1  
    56   28   53 1  
@<TRIPOS>SUBSTRUCTURE
     1 73B         1

