### 
### Created by X-TOOL on Mon Sep 10 21:13:12 2018
### 

@<TRIPOS>MOLECULE
4bkj_ligand
   70    74     1     0     0
SMALL
GAST_HUCK


@<TRIPOS>ATOM
      1 C1        -23.0430   31.4550   32.6020 C.ar      1 STI        -0.0301
      2 C6        -22.4770   30.1870   32.3750 C.ar      1 STI        -0.0291
      3 C5        -22.4770   29.2620   33.4250 C.ar      1 STI         0.0316
      4 C4        -22.9950   29.6760   34.6610 C.ar      1 STI         0.0248
      5 N3        -23.5160   30.8850   34.8340 N.ar      1 STI        -0.2920
      6 C2        -23.5370   31.7770   33.8560 C.ar      1 STI         0.0142
      7 C7        -21.8920   27.9760   33.2890 C.ar      1 STI         0.0621
      8 C12       -21.4730   27.3940   32.0540 C.ar      1 STI        -0.0153
      9 C11       -20.8620   26.1340   32.0660 C.ar      1 STI         0.0146
     10 N10       -20.7030   25.4550   33.2370 N.ar      1 STI        -0.2516
     11 C9        -21.1200   26.0470   34.3530 C.ar      1 STI         0.2094
     12 N8        -21.6920   27.2420   34.3980 N.ar      1 STI        -0.2455
     13 N13       -20.9320   25.3820   35.5870 N.pl3     1 STI        -0.2475
     14 C14       -20.3130   24.0880   35.6750 C.ar      1 STI         0.0547
     15 C19       -21.0480   22.8930   35.4860 C.ar      1 STI        -0.0359
     16 C18       -20.4550   21.6610   35.6410 C.ar      1 STI        -0.0821
     17 C17       -19.0860   21.6060   35.9370 C.ar      1 STI        -0.0588
     18 C16       -18.3440   22.7840   36.0920 C.ar      1 STI         0.0494
     19 C15       -18.9380   24.0390   36.0020 C.ar      1 STI        -0.0244
     20 N21       -16.9660   22.6370   36.4700 N.am      1 STI        -0.2404
     21 C22       -16.0670   23.7280   36.7540 C.2       1 STI         0.2255
     22 C23       -14.6850   23.3050   37.2280 C.ar      1 STI         0.0485
     23 C25       -14.1400   22.0430   36.9290 C.ar      1 STI        -0.0479
     24 C26       -12.8710   21.7000   37.4160 C.ar      1 STI        -0.0494
     25 C27       -12.1960   22.6330   38.2120 C.ar      1 STI         0.0061
     26 C28       -12.7350   23.8590   38.5410 C.ar      1 STI        -0.0494
     27 C29       -14.0050   24.2220   38.0630 C.ar      1 STI        -0.0479
     28 C46       -10.8290   22.2630   38.7490 C.3       1 STI         0.0045
     29 N48       -10.0050   21.6380   37.7250 N.4       1 STI         0.2553
     30 C53        -8.6850   21.1170   38.1230 C.3       1 STI         0.0110
     31 C52        -7.9790   20.3430   37.0700 C.3       1 STI         0.0092
     32 N51        -7.7880   21.1270   35.8360 N.4       1 STI         0.2405
     33 C54        -7.0320   20.4250   34.7670 C.3       1 STI        -0.0427
     34 C50        -9.0780   21.7220   35.3890 C.3       1 STI         0.0092
     35 C49        -9.8900   22.4520   36.4890 C.3       1 STI         0.0110
     36 O29       -16.3120   24.9010   36.5940 O.2       1 STI        -0.3771
     37 C20       -22.5390   22.9740   35.1520 C.3       1 STI        -0.0402
     38 H         -23.0926   32.1792   31.7969 H         1 STI         0.0718
     39 H         -22.0516   29.9330   31.4109 H         1 STI         0.0773
     40 H         -22.9692   28.9891   35.4992 H         1 STI         0.0864
     41 H         -23.9432   32.7655   34.0373 H         1 STI         0.0847
     42 H         -21.6260   27.9209   31.1191 H         1 STI         0.0677
     43 H         -20.5132   25.6958   31.1379 H         1 STI         0.0893
     44 H         -21.2497   25.8410   36.4526 H         1 STI         0.2158
     45 H         -21.0350   20.7512   35.5363 H         1 STI         0.0490
     46 H         -18.5977   20.6444   36.0468 H         1 STI         0.0394
     47 H         -18.3685   24.9448   36.1759 H         1 STI         0.0399
     48 H         -16.6028   21.7080   36.5416 H         1 STI         0.2227
     49 H         -14.6993   21.3384   36.3242 H         1 STI         0.0652
     50 H         -12.4252   20.7398   37.1829 H         1 STI         0.0572
     51 H         -12.1775   24.5439   39.1697 H         1 STI         0.0572
     52 H         -14.4499   25.1749   38.3258 H         1 STI         0.0652
     53 H         -10.9521   21.5607   39.5866 H         1 STI         0.0991
     54 H         -10.3263   23.1742   39.1053 H         1 STI         0.0991
     55 H         -10.5288   20.8191   37.4584 H         1 STI         0.2053
     56 H          -8.8244   20.4609   38.9948 H         1 STI         0.0868
     57 H          -8.0505   21.9704   38.4041 H         1 STI         0.0868
     58 H          -8.5709   19.4468   36.8322 H         1 STI         0.0868
     59 H          -6.9934   20.0404   37.4535 H         1 STI         0.0868
     60 H          -7.2045   21.9064   36.0968 H         1 STI         0.2035
     61 H          -6.9397   21.0832   33.8905 H         1 STI         0.0778
     62 H          -7.5671   19.5073   34.4816 H         1 STI         0.0778
     63 H          -6.0294   20.1648   35.1373 H         1 STI         0.0778
     64 H          -9.7039   20.9120   34.9864 H         1 STI         0.0868
     65 H          -8.8590   22.4471   34.5914 H         1 STI         0.0868
     66 H          -9.3868   23.3993   36.7327 H         1 STI         0.0868
     67 H         -10.8996   22.6611   36.1058 H         1 STI         0.0868
     68 H         -22.8386   24.0289   35.0657 H         1 STI         0.0342
     69 H         -23.1206   22.4919   35.9516 H         1 STI         0.0342
     70 H         -22.7297   22.4595   34.1986 H         1 STI         0.0342
@<TRIPOS>BOND
     1    1    2 ar 
     2    1    6 ar 
     3    2    3 ar 
     4    3    4 ar 
     5    3    7 1  
     6    4    5 ar 
     7    5    6 ar 
     8    7    8 ar 
     9    7   12 ar 
    10    8    9 ar 
    11    9   10 ar 
    12   10   11 ar 
    13   11   12 ar 
    14   11   13 1  
    15   13   14 1  
    16   14   15 ar 
    17   14   19 ar 
    18   15   16 ar 
    19   15   37 1  
    20   16   17 ar 
    21   17   18 ar 
    22   18   19 ar 
    23   18   20 1  
    24   20   21 am 
    25   21   22 1  
    26   21   36 2  
    27   22   23 ar 
    28   22   27 ar 
    29   23   24 ar 
    30   24   25 ar 
    31   25   26 ar 
    32   25   28 1  
    33   26   27 ar 
    34   28   29 1  
    35   29   30 1  
    36   29   35 1  
    37   30   31 1  
    38   31   32 1  
    39   32   33 1  
    40   32   34 1  
    41   34   35 1  
    42    1   38 1  
    43    2   39 1  
    44    4   40 1  
    45    6   41 1  
    46    8   42 1  
    47    9   43 1  
    48   13   44 1  
    49   16   45 1  
    50   17   46 1  
    51   19   47 1  
    52   20   48 1  
    53   23   49 1  
    54   24   50 1  
    55   26   51 1  
    56   27   52 1  
    57   28   53 1  
    58   28   54 1  
    59   29   55 1  
    60   30   56 1  
    61   30   57 1  
    62   31   58 1  
    63   31   59 1  
    64   32   60 1  
    65   33   61 1  
    66   33   62 1  
    67   33   63 1  
    68   34   64 1  
    69   34   65 1  
    70   35   66 1  
    71   35   67 1  
    72   37   68 1  
    73   37   69 1  
    74   37   70 1  
@<TRIPOS>SUBSTRUCTURE
     1 STI         1

