### 
### Created by X-TOOL on Mon Sep 10 21:13:14 2018
### 

@<TRIPOS>MOLECULE
4bks_ligand
   43    45     1     0     0
SMALL
GAST_HUCK


@<TRIPOS>ATOM
      1 CAA        -6.9610   33.6190   -2.3860 C.3       1 X6C         0.0260
      2 CAQ        -7.1040   34.2220   -0.9540 C.2       1 X6C         0.1777
      3 OAB        -6.8530   35.4170   -0.7690 O.2       1 X6C        -0.3970
      4 N          -7.4480   33.3820    0.0620 N.am      1 X6C        -0.2494
      5 CD2        -7.8150   31.9320    0.0000 C.3       1 X6C         0.0628
      6 CG         -8.6170   31.6670    1.2550 C.3       1 X6C         0.0799
      7 OD1        -9.9830   32.0590    1.0620 O.3       1 X6C        -0.3896
      8 CB         -7.9820   32.5610    2.2920 C.3       1 X6C         0.0158
      9 CA         -7.5880   33.8340    1.5120 C.3       1 X6C         0.1361
     10 C          -6.4040   34.3580    2.0640 C.2       1 X6C         0.2038
     11 O          -5.2920   33.9180    1.7380 O.2       1 X6C        -0.3944
     12 NAO        -6.6000   35.3350    2.9900 N.am      1 X6C        -0.2737
     13 CAK        -5.5140   35.9010    3.8270 C.3       1 X6C         0.0642
     14 CAS        -5.2170   35.0740    4.9580 C.ar      1 X6C        -0.0218
     15 CAF        -6.1120   34.0790    5.4260 C.ar      1 X6C        -0.0589
     16 CAH        -5.8010   33.2700    6.5310 C.ar      1 X6C        -0.0595
     17 CAE        -4.0170   35.2650    5.6640 C.ar      1 X6C        -0.0589
     18 CAG        -3.7160   34.4700    6.7890 C.ar      1 X6C        -0.0595
     19 CAT        -4.6070   33.4680    7.2440 C.ar      1 X6C         0.0070
     20 CAU        -4.3260   32.6890    8.3120 C.2       1 X6C         0.1383
     21 OAP        -4.8920   31.4500    8.5720 O.3       1 X6C        -0.2297
     22 CAI        -4.3400   31.0020    9.7440 C.2       1 X6C         0.1629
     23 NAN        -3.4840   31.9320   10.1690 N.2       1 X6C        -0.3050
     24 CAJ        -3.4700   32.9550    9.3020 C.2       1 X6C         0.0059
     25 H1         -7.2235   32.5510   -2.3620 H         1 X6C         0.0467
     26 H2         -5.9225   33.7337   -2.7302 H         1 X6C         0.0467
     27 H3         -7.6362   34.1471   -3.0754 H         1 X6C         0.0467
     28 H4         -6.9104   31.3064   -0.0180 H         1 X6C         0.0550
     29 H5         -8.4210   31.7262   -0.8946 H         1 X6C         0.0550
     30 H6         -8.5624   30.6082    1.5481 H         1 X6C         0.0616
     31 H7        -10.3555   31.5615    0.3435 H         1 X6C         0.2099
     32 H8         -7.0935   32.0811    2.7282 H         1 X6C         0.0338
     33 H9         -8.6989   32.8005    3.0911 H         1 X6C         0.0338
     34 H10        -8.3801   34.5937    1.5858 H         1 X6C         0.0803
     35 H11        -7.5264   35.6909    3.1131 H         1 X6C         0.1879
     36 H12        -5.8236   36.8938    4.1855 H         1 X6C         0.0684
     37 H13        -4.6073   35.9994    3.2121 H         1 X6C         0.0684
     38 H14        -7.0596   33.9393    4.9184 H         1 X6C         0.0556
     39 H15        -6.4868   32.4877    6.8357 H         1 X6C         0.0592
     40 H16        -3.3182   36.0285    5.3416 H         1 X6C         0.0556
     41 H17        -2.7826   34.6293    7.3168 H         1 X6C         0.0592
     42 H18        -4.5607   30.0573   10.2387 H         1 X6C         0.1401
     43 H19        -2.8614   33.8537    9.3905 H         1 X6C         0.0534
@<TRIPOS>BOND
     1    1    2 1  
     2    2    3 2  
     3    2    4 am 
     4    4    5 1  
     5    4    9 1  
     6    5    6 1  
     7    6    7 1  
     8    6    8 1  
     9    8    9 1  
    10    9   10 1  
    11   10   11 2  
    12   10   12 am 
    13   12   13 1  
    14   13   14 1  
    15   14   15 ar 
    16   14   17 ar 
    17   15   16 ar 
    18   16   19 ar 
    19   17   18 ar 
    20   18   19 ar 
    21   19   20 1  
    22   20   21 1  
    23   20   24 2  
    24   21   22 1  
    25   22   23 2  
    26   23   24 1  
    27    1   25 1  
    28    1   26 1  
    29    1   27 1  
    30    5   28 1  
    31    5   29 1  
    32    6   30 1  
    33    7   31 1  
    34    8   32 1  
    35    8   33 1  
    36    9   34 1  
    37   12   35 1  
    38   13   36 1  
    39   13   37 1  
    40   15   38 1  
    41   16   39 1  
    42   17   40 1  
    43   18   41 1  
    44   22   42 1  
    45   24   43 1  
@<TRIPOS>SUBSTRUCTURE
     1 X6C         1

