### 
### Created by X-TOOL on Mon Sep 10 21:13:14 2018
### 

@<TRIPOS>MOLECULE
4bkt_ligand
   36    37     1     0     0
SMALL
GAST_HUCK


@<TRIPOS>ATOM
      1 C01        -9.7600   36.9870   -4.9760 C.3       1 QD0        -0.0292
      2 C02        -9.2540   35.7350   -4.3450 C.2       1 QD0         0.0089
      3 N03        -9.8940   34.5260   -4.3280 N.2       1 QD0        -0.1728
      4 O04        -9.0870   33.6640   -3.6310 O.3       1 QD0        -0.1784
      5 C05        -7.9520   34.2180   -3.2430 C.2       1 QD0         0.1501
      6 C06        -6.8590   33.5830   -2.4220 C.3       1 QD0         0.1092
      7 C07        -6.9920   34.0500   -0.9660 C.2       1 QD0         0.1975
      8 N08        -7.4600   33.1640    0.1080 N.am      1 QD0        -0.2472
      9 C09        -7.6380   33.5390    1.4990 C.3       1 QD0         0.1361
     10 C10        -6.4410   34.2110    2.1030 C.2       1 QD0         0.2017
     11 N11        -6.6610   35.2830    3.0430 N.am      1 QD0        -0.2881
     12 C12        -5.5900   35.9930    3.6880 C.3       1 QD0         0.0196
     13 O13        -5.3040   33.8490    1.7910 O.2       1 QD0        -0.3945
     14 C14        -8.0010   32.3370    2.2880 C.3       1 QD0         0.0158
     15 C15        -8.5810   31.4700    1.2500 C.3       1 QD0         0.0799
     16 C17        -7.8550   31.7760   -0.0250 C.3       1 QD0         0.0630
     17 O18        -6.7310   35.2210   -0.6800 O.2       1 QD0        -0.3931
     18 C19        -8.0230   35.5620   -3.6420 C.2       1 QD0        -0.0302
     19 O16        -9.9290   31.7680    1.1150 O.3       1 QD0        -0.3896
     20 H1         -9.0278   37.7943   -4.8274 H         1 QD0         0.0374
     21 H2        -10.7169   37.2701   -4.5132 H         1 QD0         0.0374
     22 H3         -9.9087   36.8206   -6.0531 H         1 QD0         0.0374
     23 H4         -5.8780   33.8845   -2.8178 H         1 QD0         0.0718
     24 H5         -6.9521   32.4879   -2.4679 H         1 QD0         0.0718
     25 H6         -8.4753   34.2508    1.5474 H         1 QD0         0.0803
     26 H7         -7.6024   35.5445    3.2559 H         1 QD0         0.1848
     27 H8         -6.0087   36.7602    4.3559 H         1 QD0         0.0484
     28 H9         -4.9586   36.4746    2.9268 H         1 QD0         0.0484
     29 H10        -4.9834   35.2875    4.2748 H         1 QD0         0.0484
     30 H11        -8.7373   32.5763    3.0694 H         1 QD0         0.0338
     31 H12        -7.1149   31.8755    2.7482 H         1 QD0         0.0338
     32 H13        -8.4562   30.4102    1.5167 H         1 QD0         0.0616
     33 H14        -6.9722   31.1291   -0.1348 H         1 QD0         0.0550
     34 H15        -8.5183   31.6416   -0.8922 H         1 QD0         0.0550
     35 H16        -7.2765   36.3314   -3.4506 H         1 QD0         0.0265
     36 H17       -10.2987   31.2463    0.4124 H         1 QD0         0.2099
@<TRIPOS>BOND
     1    1    2 1  
     2    2    3 2  
     3    2   18 1  
     4    3    4 1  
     5    4    5 1  
     6    5    6 1  
     7    5   18 2  
     8    6    7 1  
     9    7    8 am 
    10    7   17 2  
    11    8    9 1  
    12    8   16 1  
    13    9   10 1  
    14    9   14 1  
    15   10   11 am 
    16   10   13 2  
    17   11   12 1  
    18   14   15 1  
    19   15   16 1  
    20   15   19 1  
    21    1   20 1  
    22    1   21 1  
    23    1   22 1  
    24    6   23 1  
    25    6   24 1  
    26    9   25 1  
    27   11   26 1  
    28   12   27 1  
    29   12   28 1  
    30   12   29 1  
    31   14   30 1  
    32   14   31 1  
    33   15   32 1  
    34   16   33 1  
    35   16   34 1  
    36   18   35 1  
    37   19   36 1  
@<TRIPOS>SUBSTRUCTURE
     1 QD0         1

