### 
### Created by X-TOOL on Mon Sep 10 21:13:15 2018
### 

@<TRIPOS>MOLECULE
4bky_ligand
   67    72     1     0     0
SMALL
GAST_HUCK


@<TRIPOS>ATOM
      1 O22        15.5470    9.6500    8.8210 O.2       1 82B        -0.4013
      2 C20        15.0570    9.8760    7.7200 C.2       1 82B         0.2526
      3 N21        14.1390   10.8320    7.5760 N.am      1 82B        -0.2543
      4 C24        13.5530   11.5350    8.7050 C.3       1 82B         0.1155
      5 C25        14.4290   12.6650    9.1020 C.ar      1 82B        -0.0132
      6 C30        14.7710   13.6590    8.1750 C.ar      1 82B        -0.0580
      7 C29        15.5670   14.7270    8.5810 C.ar      1 82B        -0.0685
      8 C28        16.0260   14.8110    9.8970 C.ar      1 82B        -0.0687
      9 C27        15.6830   13.8200   10.8210 C.ar      1 82B        -0.0685
     10 C26        14.8770   12.7540   10.4230 C.ar      1 82B        -0.0580
     11 C23        12.1830   12.0280    8.2350 C.3       1 82B         0.0012
     12 N31        11.3770   12.7450    9.2310 N.4       1 82B         0.2383
     13 C36        10.0690   12.2200    9.5920 C.3       1 82B        -0.0315
     14 C35         9.4070   13.4090   10.2790 C.3       1 82B        -0.0077
     15 C34        10.3600   14.6020   10.1690 C.3       1 82B        -0.0077
     16 C33        11.7310   14.0520    9.7890 C.3       1 82B        -0.0315
     17 N8         15.3600    9.1870    6.6120 N.am      1 82B        -0.2865
     18 C4         16.0770    7.8930    6.6130 C.3       1 82B         0.0465
     19 C19        17.5000    8.0580    7.1760 C.3       1 82B        -0.0749
     20 C18        16.6830    6.8600    7.6270 C.3       1 82B        -0.0749
     21 C7         14.8250    9.5310    5.2560 C.3       1 82B         0.0727
     22 C6         15.2920    8.3720    4.4120 C.2       1 82B         0.0710
     23 C5         16.1060    7.5240    5.1910 C.2       1 82B         0.0703
     24 N1         16.5060    6.4270    4.5290 N.pl3     1 82B        -0.2139
     25 C3         15.3460    7.7730    3.1630 C.2       1 82B         0.1901
     26 N2         16.0410    6.6030    3.2030 N.2       1 82B        -0.1503
     27 N9         14.7310    8.1660    1.9980 N.am      1 82B        -0.2227
     28 C10        13.9170    9.2160    1.9060 C.2       1 82B         0.2405
     29 O12        13.6860    9.9570    2.8430 O.2       1 82B        -0.3830
     30 C11        13.3030    9.5270    0.5870 C.2       1 82B         0.1326
     31 N16        12.3820   10.5000    0.3530 N.pl3     1 82B        -0.2636
     32 C32        11.8010   11.4420    1.3430 C.3       1 82B         0.0448
     33 C15        12.0400   10.5150   -0.9410 C.2       1 82B         0.0364
     34 C14        12.7900    9.5110   -1.4730 C.2       1 82B         0.0000
     35 BR         12.7110    9.0620   -3.3960 Br        1 82B        -0.0816
     36 C13        13.5970    8.8480   -0.5900 C.2       1 82B        -0.0525
     37 H1         13.8413   11.0755    6.6529 H         1 82B         0.1877
     38 H2         13.4332   10.8521    9.5590 H         1 82B         0.0771
     39 H3         14.4192   13.5970    7.1516 H         1 82B         0.0557
     40 H4         15.8327   15.5000    7.8690 H         1 82B         0.0599
     41 H5         16.6482   15.6446   10.2020 H         1 82B         0.0559
     42 H6         16.0418   13.8798   11.8421 H         1 82B         0.0599
     43 H7         14.5968   11.9915   11.1408 H         1 82B         0.0557
     44 H8         11.6062   11.1519    7.9038 H         1 82B         0.0861
     45 H9         12.3437   12.7047    7.3828 H         1 82B         0.0861
     46 H10        11.8366   12.2612    9.9864 H         1 82B         0.2036
     47 H11        10.1605   11.3658   10.2790 H         1 82B         0.0814
     48 H12         9.5046   11.9135    8.6990 H         1 82B         0.0814
     49 H13         9.2218   13.1742   11.3376 H         1 82B         0.0319
     50 H14         8.4537   13.6446    9.7834 H         1 82B         0.0319
     51 H15        10.4191   15.1272   11.1337 H         1 82B         0.0319
     52 H16        10.0052   15.2974    9.3941 H         1 82B         0.0319
     53 H17        12.2256   14.6880    9.0401 H         1 82B         0.0814
     54 H18        12.3813   13.9499   10.6703 H         1 82B         0.0814
     55 H19        17.7144    8.8701    7.8863 H         1 82B         0.0128
     56 H20        18.3678    7.9089    6.5166 H         1 82B         0.0128
     57 H21        16.9541    5.8494    7.2876 H         1 82B         0.0128
     58 H22        16.3008    6.8106    8.6573 H         1 82B         0.0128
     59 H23        15.2450   10.4806    4.8930 H         1 82B         0.0741
     60 H24        13.7270    9.5962    5.2675 H         1 82B         0.0741
     61 H25        17.0372    5.6285    4.9048 H         1 82B         0.2510
     62 H26        14.9052    7.6319    1.1707 H         1 82B         0.2197
     63 H27        11.0839   12.1069    0.8394 H         1 82B         0.0588
     64 H28        12.6049   12.0432    1.7928 H         1 82B         0.0588
     65 H29        11.2838   10.8738    2.1301 H         1 82B         0.0588
     66 H30        11.3329   11.1714   -1.4460 H         1 82B         0.0936
     67 H31        14.2807    8.0179   -0.7614 H         1 82B         0.0391
@<TRIPOS>BOND
     1    1    2 2  
     2    2    3 am 
     3    2   17 am 
     4    3    4 1  
     5    4    5 1  
     6    4   11 1  
     7    5    6 ar 
     8    5   10 ar 
     9    6    7 ar 
    10    7    8 ar 
    11    8    9 ar 
    12    9   10 ar 
    13   11   12 1  
    14   12   13 1  
    15   12   16 1  
    16   13   14 1  
    17   14   15 1  
    18   15   16 1  
    19   17   18 1  
    20   17   21 1  
    21   18   19 1  
    22   18   20 1  
    23   18   23 1  
    24   19   20 1  
    25   21   22 1  
    26   22   23 2  
    27   22   25 1  
    28   23   24 1  
    29   24   26 1  
    30   25   26 2  
    31   25   27 1  
    32   27   28 am 
    33   28   29 2  
    34   28   30 1  
    35   30   31 1  
    36   30   36 2  
    37   31   32 1  
    38   31   33 1  
    39   33   34 2  
    40   34   35 1  
    41   34   36 1  
    42    3   37 1  
    43    4   38 1  
    44    6   39 1  
    45    7   40 1  
    46    8   41 1  
    47    9   42 1  
    48   10   43 1  
    49   11   44 1  
    50   11   45 1  
    51   12   46 1  
    52   13   47 1  
    53   13   48 1  
    54   14   49 1  
    55   14   50 1  
    56   15   51 1  
    57   15   52 1  
    58   16   53 1  
    59   16   54 1  
    60   19   55 1  
    61   19   56 1  
    62   20   57 1  
    63   20   58 1  
    64   21   59 1  
    65   21   60 1  
    66   24   61 1  
    67   27   62 1  
    68   32   63 1  
    69   32   64 1  
    70   32   65 1  
    71   33   66 1  
    72   36   67 1  
@<TRIPOS>SUBSTRUCTURE
     1 82B         1

