### 
### Created by X-TOOL on Mon Sep 10 21:13:14 2018
### 

@<TRIPOS>MOLECULE
4bkz_ligand
   46    49     1     0     0
SMALL
GAST_HUCK


@<TRIPOS>ATOM
      1 O23        15.7590   10.4640    9.7010 O.2       1 1WS        -0.3861
      2 C21        14.9500   10.7490    8.8330 C.2       1 1WS         0.2105
      3 N22        13.9870   11.6310    9.0740 N.am      1 1WS        -0.2861
      4 C24        13.7340   12.3520   10.3180 C.3       1 1WS         0.0352
      5 C25        12.4820   11.6910   10.8910 C.3       1 1WS         0.0075
      6 C26        11.4550   12.7210   11.3390 C.3       1 1WS        -0.0335
      7 N27        10.7060   12.1880   12.4620 N.4       1 1WS         0.2186
      8 C8         15.0080   10.1410    7.4660 C.2       1 1WS         0.1172
      9 C7         15.8620    8.9880    7.0530 C.2       1 1WS         0.0118
     10 C4         16.8620    8.1130    7.7910 C.2       1 1WS        -0.0770
     11 C3         17.0370    6.7500    7.1000 C.2       1 1WS        -0.0746
     12 N9         14.3010   10.5260    6.3840 N.2       1 1WS        -0.1935
     13 N10        14.6120    9.7270    5.2500 N.pl3     1 1WS        -0.2124
     14 C6         15.5470    8.8680    5.7090 C.2       1 1WS         0.0896
     15 C1         16.1270    7.8310    4.9820 C.2       1 1WS         0.0680
     16 C11        16.0620    7.5420    3.5550 C.2       1 1WS         0.2050
     17 N12        16.7290    6.3880    3.3350 N.pl3     1 1WS        -0.2035
     18 N5         17.1650    5.9540    4.6240 N.2       1 1WS        -0.2581
     19 C2         16.7920    6.8110    5.6180 C.2       1 1WS         0.0062
     20 N13        15.4420    8.3880    2.7000 N.pl3     1 1WS        -0.2387
     21 C14        15.3840    8.4080    1.3440 C.ar      1 1WS         0.0646
     22 C19        16.3190    7.7780    0.5190 C.ar      1 1WS        -0.0052
     23 C18        16.1790    7.8720   -0.8770 C.ar      1 1WS         0.1229
     24 F20        17.0740    7.2510   -1.6670 F         1 1WS        -0.1866
     25 C17        15.1210    8.5930   -1.4640 C.ar      1 1WS        -0.0400
     26 C16        14.1910    9.2270   -0.6430 C.ar      1 1WS        -0.0733
     27 C15        14.3340    9.1340    0.7520 C.ar      1 1WS        -0.0422
     28 H1         13.3634   11.8235    8.3163 H         1 1WS         0.1844
     29 H2         13.5551   13.4191   10.1202 H         1 1WS         0.0521
     30 H3         14.5824   12.2445   11.0099 H         1 1WS         0.0521
     31 H4         12.7686   11.0744   11.7557 H         1 1WS         0.0336
     32 H5         12.0312   11.0515   10.1179 H         1 1WS         0.0336
     33 H6         10.7675   12.9408   10.5089 H         1 1WS         0.0814
     34 H7         11.9686   13.6446   11.6441 H         1 1WS         0.0814
     35 H8         10.0239   12.8663   12.7632 H         1 1WS         0.1994
     36 H9         11.3372   11.9863   13.2215 H         1 1WS         0.1994
     37 H10        10.2366   11.3413   12.1813 H         1 1WS         0.1994
     38 H11        17.3886    8.4134    8.6956 H         1 1WS         0.0554
     39 H12        17.3095    5.8375    7.6283 H         1 1WS         0.0433
     40 H13        14.2167    9.7889    4.3009 H         1 1WS         0.2519
     41 H14        16.8889    5.9210    2.4310 H         1 1WS         0.2558
     42 H15        14.9231    9.1505    3.1586 H         1 1WS         0.2199
     43 H16        17.1438    7.2225    0.9505 H         1 1WS         0.0519
     44 H17        15.0313    8.6539   -2.5426 H         1 1WS         0.0506
     45 H18        13.3678    9.7848   -1.0746 H         1 1WS         0.0577
     46 H19        13.6152    9.6356    1.3898 H         1 1WS         0.0502
@<TRIPOS>BOND
     1    1    2 2  
     2    2    3 am 
     3    2    8 1  
     4    3    4 1  
     5    4    5 1  
     6    5    6 1  
     7    6    7 1  
     8    8    9 1  
     9    8   12 2  
    10    9   10 1  
    11    9   14 2  
    12   10   11 2  
    13   11   19 1  
    14   12   13 1  
    15   13   14 1  
    16   14   15 1  
    17   15   16 2  
    18   15   19 1  
    19   16   17 1  
    20   16   20 1  
    21   17   18 1  
    22   18   19 2  
    23   20   21 1  
    24   21   22 ar 
    25   21   27 ar 
    26   22   23 ar 
    27   23   24 1  
    28   23   25 ar 
    29   25   26 ar 
    30   26   27 ar 
    31    3   28 1  
    32    4   29 1  
    33    4   30 1  
    34    5   31 1  
    35    5   32 1  
    36    6   33 1  
    37    6   34 1  
    38    7   35 1  
    39    7   36 1  
    40    7   37 1  
    41   10   38 1  
    42   11   39 1  
    43   13   40 1  
    44   17   41 1  
    45   20   42 1  
    46   22   43 1  
    47   25   44 1  
    48   26   45 1  
    49   27   46 1  
@<TRIPOS>SUBSTRUCTURE
     1 1WS         1

