### 
### Created by X-TOOL on Mon Sep 10 21:13:14 2018
### 

@<TRIPOS>MOLECULE
4bnt_ligand
   18    19     1     0     0
SMALL
GAST_HUCK


@<TRIPOS>ATOM
      1 CAA        -4.3890    3.0500  -37.7880 C.ar      1 36E        -0.0600
      2 CAB        -5.6680    2.6360  -38.1530 C.ar      1 36E        -0.0365
      3 FAC        -9.6920    6.1050  -40.7190 F         1 36E        -0.2198
      4 CAD        -4.0280    4.3770  -38.0060 C.ar      1 36E        -0.0596
      5 CAE        -4.9510    5.2420  -38.5750 C.ar      1 36E        -0.0216
      6 CAF        -6.1670    4.8020  -38.9050 C.ar      1 36E         0.1096
      7 CAG        -6.5150    3.5160  -38.6970 C.ar      1 36E         0.0905
      8 FAH       -10.5950    4.5360  -39.2900 F         1 36E        -0.2198
      9 CAI        -9.5980    4.7620  -40.1860 C.3       1 36E         0.4190
     10 CAJ        -8.1900    4.5350  -39.5710 C.2       1 36E         0.2128
     11 NAK        -7.2090    5.4380  -39.4540 N.pl3     1 36E        -0.2393
     12 NAL        -7.7700    3.3540  -39.1160 N.2       1 36E        -0.2396
     13 FAM        -9.7230    3.8370  -41.1830 F         1 36E        -0.2198
     14 H1         -3.6884    2.3527  -37.3429 H         1 36E         0.0577
     15 H2         -5.9743    1.6079  -37.9971 H         1 36E         0.0664
     16 H3         -3.0393    4.7292  -37.7348 H         1 36E         0.0662
     17 H4         -4.6841    6.2776  -38.7520 H         1 36E         0.0588
     18 H5         -7.2482    6.4290  -39.7322 H         1 36E         0.2350
@<TRIPOS>BOND
     1    2    1 ar 
     2    4    1 ar 
     3    7    2 ar 
     4    9    3 1  
     5    5    4 ar 
     6    6    5 ar 
     7    6    7 ar 
     8   11    6 1  
     9    7   12 1  
    10    9    8 1  
    11   10    9 1  
    12    9   13 1  
    13   10   11 1  
    14   10   12 2  
    15    1   14 1  
    16    2   15 1  
    17    4   16 1  
    18    5   17 1  
    19   11   18 1  
@<TRIPOS>SUBSTRUCTURE
     1 36E         1

