### 
### Created by X-TOOL on Mon Sep 10 21:13:15 2018
### 

@<TRIPOS>MOLECULE
4bnu_ligand
   32    35     1     0     0
SMALL
GAST_HUCK


@<TRIPOS>ATOM
      1 N1         -7.6830   -1.9570   39.9740 N.ar      1 9KQ        -0.2305
      2 C2         -8.8770   -1.3620   40.1590 C.ar      1 9KQ         0.1102
      3 N3         -9.0450   -0.0370   39.8710 N.ar      1 9KQ        -0.2808
      4 C4         -8.0030    0.6860   39.3690 C.ar      1 9KQ         0.0507
      5 C5         -6.7650    0.0970   39.1790 C.ar      1 9KQ         0.0693
      6 C6         -6.5880   -1.2770   39.4760 C.ar      1 9KQ         0.2070
      7 CAA        -8.1870    2.0380   39.1030 C.ar      1 9KQ        -0.0378
      8 CAB        -7.1740    2.8230   38.6000 C.ar      1 9KQ        -0.0541
      9 CAC        -5.9400    2.2380   38.3910 C.ar      1 9KQ        -0.0532
     10 CAD        -5.7560    0.9020   38.6740 C.ar      1 9KQ        -0.0376
     11 CAK        -9.7870   -3.3920   41.1510 C.ar      1 9KQ        -0.0462
     12 CAL       -10.8860   -4.0790   41.6650 C.ar      1 9KQ        -0.0569
     13 CAM       -12.1250   -3.4940   41.6990 C.ar      1 9KQ        -0.0580
     14 CAN       -12.2840   -2.1980   41.2380 C.ar      1 9KQ        -0.0569
     15 CAO       -11.2020   -1.5090   40.7380 C.ar      1 9KQ        -0.0462
     16 CAP        -9.9540   -2.0970   40.6730 C.ar      1 9KQ         0.0178
     17 CAQ        -4.1190   -1.7250   38.9760 C.2       1 9KQ         0.1442
     18 NAQ        -5.4120   -1.9700   39.3100 N.pl3     1 9KQ        -0.1460
     19 CAR        -5.3950   -3.3090   39.5590 C.2       1 9KQ         0.1442
     20 NAS        -4.1710   -3.8390   39.3850 N.2       1 9KQ        -0.2473
     21 NAT        -3.4260   -2.9020   39.0400 N.2       1 9KQ        -0.2473
     22 H1         -9.1546    2.4865   39.2969 H         1 9KQ         0.0637
     23 H2         -7.3399    3.8702   38.3744 H         1 9KQ         0.0678
     24 H3         -5.1175    2.8292   38.0049 H         1 9KQ         0.0638
     25 H4         -4.7816    0.4623   38.4942 H         1 9KQ         0.0687
     26 H5         -8.8111   -3.8632   41.1243 H         1 9KQ         0.0660
     27 H6        -10.7591   -5.0874   42.0421 H         1 9KQ         0.0628
     28 H7        -12.9762   -4.0432   42.0849 H         1 9KQ         0.0648
     29 H8        -13.2595   -1.7264   41.2708 H         1 9KQ         0.0628
     30 H9        -11.3314   -0.4904   40.3904 H         1 9KQ         0.0660
     31 H10        -3.7043   -0.7557   38.7034 H         1 9KQ         0.1346
     32 H11        -6.2692   -3.8828   39.8631 H         1 9KQ         0.1346
@<TRIPOS>BOND
     1    2    1 ar 
     2    1    6 ar 
     3    2    3 ar 
     4   16    2 1  
     5    3    4 ar 
     6    4    5 ar 
     7    4    7 ar 
     8    6    5 ar 
     9    5   10 ar 
    10    6   18 1  
    11    7    8 ar 
    12    8    9 ar 
    13   10    9 ar 
    14   11   12 ar 
    15   11   16 ar 
    16   12   13 ar 
    17   13   14 ar 
    18   14   15 ar 
    19   15   16 ar 
    20   18   17 1  
    21   17   21 2  
    22   18   19 1  
    23   19   20 2  
    24   20   21 1  
    25    7   22 1  
    26    8   23 1  
    27    9   24 1  
    28   10   25 1  
    29   11   26 1  
    30   12   27 1  
    31   13   28 1  
    32   14   29 1  
    33   15   30 1  
    34   17   31 1  
    35   19   32 1  
@<TRIPOS>SUBSTRUCTURE
     1 9KQ         1

