### 
### Created by X-TOOL on Mon Sep 10 21:13:15 2018
### 

@<TRIPOS>MOLECULE
4bnv_ligand
   34    36     1     0     0
SMALL
GAST_HUCK


@<TRIPOS>ATOM
      1 CL          7.2870   -1.5550  -33.9830 Cl        1 Q7U        -0.0831
      2 CAK         5.8320   -1.2700  -34.7410 C.ar      1 Q7U         0.0592
      3 CAJ         5.1850   -2.3520  -35.3040 C.ar      1 Q7U        -0.0617
      4 CAB         3.9770   -2.1640  -35.9480 C.ar      1 Q7U        -0.0767
      5 CAC         3.4160   -0.8960  -36.0290 C.ar      1 Q7U        -0.0754
      6 CAD         4.0610    0.1980  -35.4630 C.ar      1 Q7U        -0.0408
      7 CAL         5.2760    0.0020  -34.8110 C.ar      1 Q7U         0.0815
      8 NAM         5.9640    1.0030  -34.2460 N.am      1 Q7U        -0.2117
      9 CAN         5.2630    2.0920  -33.9050 C.2       1 Q7U         0.3291
     10 OAE         4.0550    2.1250  -34.1010 O.2       1 Q7U        -0.3765
     11 NAO         5.8890    3.1530  -33.3630 N.am      1 Q7U        -0.1641
     12 CAP         7.1940    3.0860  -33.1150 C.2       1 Q7U         0.2435
     13 NAQ         7.9430    1.9920  -33.1190 N.2       1 Q7U        -0.3144
     14 CAR         9.1710    2.3870  -32.7710 C.ar      1 Q7U         0.0084
     15 CAS        10.3010    1.7040  -32.6260 C.ar      1 Q7U        -0.0705
     16 CAT        11.4790    2.3460  -32.2640 C.ar      1 Q7U        -0.0818
     17 CAI        11.4440    3.7110  -32.0470 C.ar      1 Q7U        -0.0795
     18 CAH        10.2460    4.3760  -32.2080 C.ar      1 Q7U        -0.0456
     19 CAG         9.1630    3.7030  -32.5580 C.ar      1 Q7U         0.0759
     20 NAF         7.9320    4.1340  -32.7570 N.pl3     1 Q7U        -0.2174
     21 CAA         7.5830    5.5710  -32.5910 C.3       1 Q7U         0.0459
     22 H1          5.6217   -3.3422  -35.2412 H         1 Q7U         0.0582
     23 H2          3.4649   -3.0100  -36.3920 H         1 Q7U         0.0487
     24 H3          2.4684   -0.7583  -36.5372 H         1 Q7U         0.0579
     25 H4          3.6249    1.1883  -35.5282 H         1 Q7U         0.0501
     26 H5          6.9493    0.9404  -34.0872 H         1 Q7U         0.2270
     27 H6          5.3772    3.9849  -33.1485 H         1 Q7U         0.2411
     28 H7         10.3042    0.6328  -32.7921 H         1 Q7U         0.0509
     29 H8         12.4031    1.7900  -32.1544 H         1 Q7U         0.0506
     30 H9         12.3397    4.2478  -31.7562 H         1 Q7U         0.0507
     31 H10        10.1927    5.4468  -32.0481 H         1 Q7U         0.0529
     32 H11         6.5133    5.7153  -32.8029 H         1 Q7U         0.0558
     33 H12         8.1799    6.1763  -33.2890 H         1 Q7U         0.0558
     34 H13         7.7977    5.8836  -31.5584 H         1 Q7U         0.0558
@<TRIPOS>BOND
     1    1    2 1  
     2    2    3 ar 
     3    2    7 ar 
     4    3    4 ar 
     5    4    5 ar 
     6    5    6 ar 
     7    6    7 ar 
     8    7    8 1  
     9    8    9 am 
    10    9   10 2  
    11    9   11 am 
    12   11   12 1  
    13   12   13 2  
    14   12   20 1  
    15   13   14 1  
    16   14   15 ar 
    17   14   19 ar 
    18   15   16 ar 
    19   16   17 ar 
    20   17   18 ar 
    21   18   19 ar 
    22   19   20 1  
    23   20   21 1  
    24    3   22 1  
    25    4   23 1  
    26    5   24 1  
    27    6   25 1  
    28    8   26 1  
    29   11   27 1  
    30   15   28 1  
    31   16   29 1  
    32   17   30 1  
    33   18   31 1  
    34   21   32 1  
    35   21   33 1  
    36   21   34 1  
@<TRIPOS>SUBSTRUCTURE
     1 Q7U         1

