### 
### Created by X-TOOL on Mon Sep 10 21:13:15 2018
### 

@<TRIPOS>MOLECULE
4bnx_ligand
   39    42     1     0     0
SMALL
GAST_HUCK


@<TRIPOS>ATOM
      1 CL         27.0420  162.8440   49.4190 Cl        1 O74        -0.0786
      2 CAB        25.6560  163.6920   49.1060 C.ar      1 O74         0.0643
      3 CAC        25.3220  164.2460   47.8910 C.ar      1 O74        -0.0566
      4 CAD        24.1180  164.9220   47.8450 C.ar      1 O74        -0.0721
      5 CAG        23.2830  165.0080   48.9720 C.ar      1 O74        -0.0704
      6 CAF        23.6540  164.4370   50.1900 C.ar      1 O74        -0.0361
      7 CAE        24.8760  163.7730   50.2200 C.ar      1 O74         0.0829
      8 NAJ        25.4780  163.1160   51.2070 N.pl3     1 O74        -0.2449
      9 C6         24.9640  163.1530   52.3750 C.ar      1 O74         0.1597
     10 N1         23.7280  163.5920   52.5420 N.ar      1 O74        -0.2516
     11 C5         25.7460  162.7200   53.4390 C.ar      1 O74         0.0558
     12 CAI        27.0760  162.2600   53.2640 C.ar      1 O74        -0.0410
     13 CAH        27.8050  161.8440   54.3790 C.ar      1 O74        -0.0555
     14 CAK        27.2160  161.8940   55.6590 C.ar      1 O74        -0.0566
     15 CAO        25.9000  162.3410   55.8400 C.ar      1 O74        -0.0418
     16 C4         25.1590  162.7560   54.7180 C.ar      1 O74         0.0399
     17 N3         23.8990  163.2060   54.8540 N.ar      1 O74        -0.2957
     18 C2         23.2010  163.6390   53.7710 C.ar      1 O74         0.0941
     19 CAS        21.8640  163.9960   53.8970 C.ar      1 O74         0.0456
     20 CAT        21.0470  164.2440   52.7810 C.ar      1 O74        -0.0540
     21 CAW        19.7070  164.5030   52.9680 C.ar      1 O74        -0.0674
     22 CAY        19.1830  164.4590   54.2650 C.ar      1 O74        -0.0662
     23 CAX        19.9900  164.1770   55.3610 C.ar      1 O74        -0.0270
     24 CAV        21.3040  163.9210   55.1600 C.ar      1 O74         0.1065
     25 OAU        22.1620  163.6570   56.1570 O.3       1 O74        -0.3271
     26 H1         25.9648  164.1572   47.0227 H         1 O74         0.0595
     27 H2         23.8109  165.3962   46.9198 H         1 O74         0.0526
     28 H3         22.3344  165.5268   48.8938 H         1 O74         0.0591
     29 H4         23.0222  164.5073   51.0680 H         1 O74         0.0543
     30 H5         26.3440  162.5864   51.0322 H         1 O74         0.2231
     31 H6         27.5211  162.2318   52.2760 H         1 O74         0.0682
     32 H7         28.8206  161.4837   54.2613 H         1 O74         0.0620
     33 H8         27.7931  161.5801   56.5213 H         1 O74         0.0671
     34 H9         25.4593  162.3667   56.8301 H         1 O74         0.0619
     35 H10        21.4674  164.2316   51.7819 H         1 O74         0.0632
     36 H11        19.0685  164.7372   52.1239 H         1 O74         0.0538
     37 H12        18.1267  164.6486   54.4179 H         1 O74         0.0623
     38 H13        19.5734  164.1623   56.3617 H         1 O74         0.0554
     39 H14        23.0283  163.5078   55.7966 H         1 O74         0.2514
@<TRIPOS>BOND
     1    1    2 1  
     2    2    3 ar 
     3    2    7 ar 
     4    3    4 ar 
     5    4    5 ar 
     6    5    6 ar 
     7    6    7 ar 
     8    7    8 1  
     9    8    9 1  
    10    9   10 ar 
    11    9   11 ar 
    12   10   18 ar 
    13   11   12 ar 
    14   11   16 ar 
    15   12   13 ar 
    16   13   14 ar 
    17   14   15 ar 
    18   15   16 ar 
    19   16   17 ar 
    20   17   18 ar 
    21   18   19 1  
    22   19   20 ar 
    23   19   24 ar 
    24   20   21 ar 
    25   21   22 ar 
    26   22   23 ar 
    27   23   24 ar 
    28   24   25 1  
    29    3   26 1  
    30    4   27 1  
    31    5   28 1  
    32    6   29 1  
    33    8   30 1  
    34   12   31 1  
    35   13   32 1  
    36   14   33 1  
    37   15   34 1  
    38   20   35 1  
    39   21   36 1  
    40   22   37 1  
    41   23   38 1  
    42   25   39 1  
@<TRIPOS>SUBSTRUCTURE
     1 O74         1

