### 
### Created by X-TOOL on Mon Sep 10 21:13:13 2018
### 

@<TRIPOS>MOLECULE
4bny_ligand
   36    39     1     0     0
SMALL
GAST_HUCK


@<TRIPOS>ATOM
      1 N1          7.4100   -3.0500   33.8220 N.ar      1 36I        -0.2973
      2 C2          8.4420   -2.1670   33.7060 C.ar      1 36I         0.0919
      3 N3          8.2670   -0.9460   34.1410 N.ar      1 36I        -0.2629
      4 C4          7.0730   -0.6030   34.6550 C.ar      1 36I         0.1416
      5 C5          6.0570   -1.4100   34.7730 C.ar      1 36I         0.1052
      6 C6          6.1910   -2.6800   34.3650 C.ar      1 36I         0.0404
      7 CAA         5.0370   -3.3870   34.5520 C.2       1 36I        -0.0401
      8 CAE         9.7230   -2.4480   33.1940 C.ar      1 36I         0.0115
      9 CAF        10.7690   -1.5210   33.2740 C.ar      1 36I        -0.0479
     10 CAG        12.0600   -1.8810   32.8250 C.ar      1 36I        -0.0579
     11 CAH         4.0020   -2.7060   35.0930 C.2       1 36I         0.0084
     12 SAI         4.5190   -1.0580   35.4200 S.3       1 36I        -0.0213
     13 CAM         9.9610   -3.7000   32.7360 C.ar      1 36I        -0.0479
     14 CAN        11.1910   -4.0710   32.2850 C.ar      1 36I        -0.0579
     15 CAO        12.2250   -3.1590   32.2840 C.ar      1 36I        -0.0589
     16 CAP         5.4900    1.1120   35.1860 C.3       1 36I         0.0552
     17 NAQ         6.8710    0.6150   35.0570 N.pl3     1 36I        -0.2839
     18 CAR         8.0260    1.4680   35.1400 C.3       1 36I         0.0552
     19 CAS         5.4270    2.2300   36.0870 C.3       1 36I         0.0682
     20 OAT         6.4230    3.0850   35.6010 O.3       1 36I        -0.3757
     21 CAU         7.5940    2.4630   36.0440 C.3       1 36I         0.0682
     22 H1          4.9556   -4.4386   34.2809 H         1 36I         0.0455
     23 H2         10.5896   -0.5314   33.6785 H         1 36I         0.0652
     24 H3         12.8924   -1.1904   32.8977 H         1 36I         0.0625
     25 H4          3.0113   -3.1115   35.2932 H         1 36I         0.0899
     26 H5          9.1537   -4.4234   32.7283 H         1 36I         0.0652
     27 H6         11.3569   -5.0809   31.9276 H         1 36I         0.0625
     28 H7         13.1814   -3.4377   31.8567 H         1 36I         0.0641
     29 H8          4.8512    0.3035   35.5709 H         1 36I         0.0547
     30 H9          5.1270    1.4267   34.1965 H         1 36I         0.0547
     31 H10         8.2746    1.9001   34.1595 H         1 36I         0.0547
     32 H11         8.8974    0.9233   35.5323 H         1 36I         0.0547
     33 H12         5.6435    1.9180   37.1194 H         1 36I         0.0580
     34 H13         4.4392    2.7126   36.0492 H         1 36I         0.0580
     35 H14         8.3846    3.2210   36.1457 H         1 36I         0.0580
     36 H15         7.4034    1.9983   37.0226 H         1 36I         0.0580
@<TRIPOS>BOND
     1    1    2 ar 
     2    1    6 ar 
     3    2    3 ar 
     4    2    8 1  
     5    3    4 ar 
     6    4    5 ar 
     7    4   17 1  
     8    5    6 ar 
     9    5   12 1  
    10    6    7 1  
    11    7   11 2  
    12    8    9 ar 
    13    8   13 ar 
    14    9   10 ar 
    15   10   15 ar 
    16   11   12 1  
    17   13   14 ar 
    18   14   15 ar 
    19   17   16 1  
    20   16   19 1  
    21   17   18 1  
    22   18   21 1  
    23   19   20 1  
    24   20   21 1  
    25    7   22 1  
    26    9   23 1  
    27   10   24 1  
    28   11   25 1  
    29   13   26 1  
    30   14   27 1  
    31   15   28 1  
    32   16   29 1  
    33   16   30 1  
    34   18   31 1  
    35   18   32 1  
    36   19   33 1  
    37   19   34 1  
    38   21   35 1  
    39   21   36 1  
@<TRIPOS>SUBSTRUCTURE
     1 36I         1

