### 
### Created by X-TOOL on Mon Sep 10 21:13:15 2018
### 

@<TRIPOS>MOLECULE
4bnz_ligand
   33    35     1     0     0
SMALL
GAST_HUCK


@<TRIPOS>ATOM
      1 C1        -11.6930   -3.7300  -32.1410 C.ar      1 8M5        -0.0756
      2 C2        -10.5020   -4.4120  -32.1580 C.ar      1 8M5        -0.0417
      3 C3         -9.4190   -3.7950  -32.6160 C.ar      1 8M5         0.0713
      4 C4         -9.4140   -2.5370  -33.0700 C.ar      1 8M5        -0.0076
      5 C5        -10.5290   -1.8340  -33.0860 C.ar      1 8M5        -0.0730
      6 C6        -11.7010   -2.4170  -32.6180 C.ar      1 8M5        -0.0783
      7 C15        -7.4020   -3.3350  -33.2670 C.2       1 8M5         0.0523
      8 C18        -7.6290   -5.6600  -32.4060 C.3       1 8M5         0.0438
      9 N19        -8.1820   -4.2820  -32.7570 N.pl3     1 8M5        -0.2588
     10 C24        -4.5080   -0.2150  -35.3210 C.ar      1 8M5        -0.0414
     11 C25        -3.8490    0.8890  -35.8670 C.ar      1 8M5        -0.0756
     12 C26        -4.4370    2.1750  -35.8300 C.ar      1 8M5        -0.0772
     13 C27        -5.6780    2.3910  -35.2460 C.ar      1 8M5        -0.0756
     14 C28        -6.3380    1.2860  -34.7130 C.ar      1 8M5        -0.0414
     15 C29        -5.7550   -0.0130  -34.7480 C.ar      1 8M5         0.0651
     16 C33        -7.7000   -1.1060  -33.9300 C.2       1 8M5         0.2063
     17 N35        -6.3460   -1.1150  -34.2710 N.am      1 8M5        -0.2388
     18 O37        -8.4120   -0.0930  -33.8420 O.2       1 8M5        -0.3910
     19 CAE        -8.1690   -2.2660  -33.4650 C.2       1 8M5         0.0567
     20 H1        -12.5987   -4.1954  -31.7692 H         1 8M5         0.0533
     21 H2        -10.4465   -5.4351  -31.8042 H         1 8M5         0.0548
     22 H3        -10.5320   -0.8161  -33.4587 H         1 8M5         0.0538
     23 H4        -12.6251   -1.8503  -32.6232 H         1 8M5         0.0519
     24 H5         -6.3377   -3.4180  -33.4820 H         1 8M5         0.1065
     25 H6         -8.4369   -6.2870  -32.0008 H         1 8M5         0.0572
     26 H7         -6.8337   -5.5551  -31.6533 H         1 8M5         0.0572
     27 H8         -7.2178   -6.1314  -33.3108 H         1 8M5         0.0572
     28 H9         -4.0580   -1.2009  -35.3444 H         1 8M5         0.0502
     29 H10        -2.8750    0.7586  -36.3247 H         1 8M5         0.0577
     30 H11        -3.9058    3.0122  -36.2682 H         1 8M5         0.0487
     31 H12        -6.1165    3.3815  -35.2063 H         1 8M5         0.0577
     32 H13        -7.3151    1.4175  -34.2625 H         1 8M5         0.0502
     33 H14        -5.8126   -1.9532  -34.1577 H         1 8M5         0.2242
@<TRIPOS>BOND
     1    2    1 ar 
     2    6    1 ar 
     3    3    2 ar 
     4    4    3 ar 
     5    9    3 1  
     6    4    5 ar 
     7   19    4 1  
     8    5    6 ar 
     9    7    9 1  
    10   19    7 2  
    11    9    8 1  
    12   10   11 ar 
    13   15   10 ar 
    14   11   12 ar 
    15   13   12 ar 
    16   14   13 ar 
    17   15   14 ar 
    18   17   15 1  
    19   16   17 am 
    20   16   18 2  
    21   16   19 1  
    22    1   20 1  
    23    2   21 1  
    24    5   22 1  
    25    6   23 1  
    26    7   24 1  
    27    8   25 1  
    28    8   26 1  
    29    8   27 1  
    30   10   28 1  
    31   11   29 1  
    32   12   30 1  
    33   13   31 1  
    34   14   32 1  
    35   17   33 1  
@<TRIPOS>SUBSTRUCTURE
     1 8M5         1

