### 
### Created by X-TOOL on Mon Sep 10 21:13:16 2018
### 

@<TRIPOS>MOLECULE
4bo0_ligand
   42    44     1     0     0
SMALL
GAST_HUCK


@<TRIPOS>ATOM
      1 CAA        -6.6800    0.0520  -35.2870 C.3       1 FXE         0.0607
      2 OAB        -7.1620   -1.1950  -35.7860 O.3       1 FXE        -0.3201
      3 CAE        -6.1880   -2.1220  -35.8780 C.ar      1 FXE         0.0947
      4 CAF        -6.5730   -3.2660  -35.4050 C.ar      1 FXE         0.0702
      5 CAD        -4.9210   -1.9290  -36.4260 C.ar      1 FXE        -0.0445
      6 CAN        -4.0670   -3.0290  -36.4340 C.ar      1 FXE        -0.0820
      7 CAO        -4.5340   -4.2320  -35.9090 C.ar      1 FXE        -0.0500
      8 CAP        -5.7690   -4.3200  -35.4020 C.ar      1 FXE         0.0748
      9 NAQ        -6.4620   -5.3200  -34.8320 N.pl3     1 FXE        -0.2302
     10 CAV        -5.9540   -6.6770  -34.6150 C.3       1 FXE         0.0463
     11 NAR        -7.6460   -4.9100  -34.5240 N.2       1 FXE        -0.2202
     12 CAG        -7.7410   -3.6190  -34.8920 C.2       1 FXE         0.1353
     13 NAH        -8.8280   -2.8590  -34.6680 N.am      1 FXE        -0.2095
     14 CAI        -9.9210   -3.5090  -34.1820 C.2       1 FXE         0.3127
     15 OAC       -10.9440   -2.8920  -33.8550 O.2       1 FXE        -0.3822
     16 NAJ        -9.8450   -4.8590  -34.1220 N.am      1 FXE        -0.2173
     17 CAK       -10.7940   -5.5720  -33.5760 C.ar      1 FXE         0.0972
     18 CAL       -12.1410   -5.2440  -33.3980 C.ar      1 FXE        -0.0495
     19 CAM       -12.9500   -6.1560  -32.7760 C.ar      1 FXE        -0.0869
     20 CAU       -12.4190   -7.3470  -32.2950 C.ar      1 FXE        -0.0863
     21 CAT       -11.0740   -7.6460  -32.4720 C.ar      1 FXE        -0.0462
     22 CAS       -10.2700   -6.7400  -33.1260 C.ar      1 FXE         0.1119
     23 OAW        -8.9210   -6.8510  -33.4120 O.3       1 FXE        -0.3276
     24 CAX        -8.2870   -8.0570  -32.9380 C.3       1 FXE         0.0562
     25 H1         -7.5110    0.7706  -35.2316 H         1 FXE         0.0581
     26 H2         -5.9031    0.4412  -35.9615 H         1 FXE         0.0581
     27 H3         -6.2545   -0.0945  -34.2833 H         1 FXE         0.0581
     28 H4         -4.6152   -0.9692  -36.8265 H         1 FXE         0.0426
     29 H5         -3.0643   -2.9512  -36.8385 H         1 FXE         0.0551
     30 H6         -3.8909   -5.1046  -35.9113 H         1 FXE         0.0440
     31 H7         -6.7314   -7.2865  -34.1312 H         1 FXE         0.0560
     32 H8         -5.0647   -6.6367  -33.9688 H         1 FXE         0.0560
     33 H9         -5.6845   -7.1267  -35.5820 H         1 FXE         0.0560
     34 H10        -8.8329   -1.8753  -34.8477 H         1 FXE         0.2242
     35 H11        -9.0447   -5.3210  -34.5041 H         1 FXE         0.2227
     36 H12       -12.5337   -4.2943  -33.7428 H         1 FXE         0.0465
     37 H13       -14.0075   -5.9490  -32.6582 H         1 FXE         0.0484
     38 H14       -13.0610   -8.0498  -31.7764 H         1 FXE         0.0459
     39 H15       -10.6639   -8.5783  -32.1009 H         1 FXE         0.0494
     40 H16        -7.2228   -8.0453  -33.2160 H         1 FXE         0.0572
     41 H17        -8.7753   -8.9312  -33.3933 H         1 FXE         0.0572
     42 H18        -8.3794   -8.1140  -31.8434 H         1 FXE         0.0572
@<TRIPOS>BOND
     1    1    2 1  
     2    2    3 1  
     3    3    4 ar 
     4    3    5 ar 
     5    4    8 ar 
     6    4   12 1  
     7    5    6 ar 
     8    6    7 ar 
     9    7    8 ar 
    10    8    9 1  
    11    9   10 1  
    12    9   11 1  
    13   11   12 2  
    14   12   13 1  
    15   13   14 am 
    16   14   15 2  
    17   14   16 am 
    18   16   17 1  
    19   17   18 ar 
    20   17   22 ar 
    21   18   19 ar 
    22   19   20 ar 
    23   20   21 ar 
    24   21   22 ar 
    25   22   23 1  
    26   23   24 1  
    27    1   25 1  
    28    1   26 1  
    29    1   27 1  
    30    5   28 1  
    31    6   29 1  
    32    7   30 1  
    33   10   31 1  
    34   10   32 1  
    35   10   33 1  
    36   13   34 1  
    37   16   35 1  
    38   18   36 1  
    39   19   37 1  
    40   20   38 1  
    41   21   39 1  
    42   24   40 1  
    43   24   41 1  
    44   24   42 1  
@<TRIPOS>SUBSTRUCTURE
     1 FXE         1

