### 
### Created by X-TOOL on Mon Sep 10 21:13:14 2018
### 

@<TRIPOS>MOLECULE
4bo1_ligand
   39    41     1     0     0
SMALL
GAST_HUCK


@<TRIPOS>ATOM
      1 CAR        -6.6070   -7.0780  -33.6510 C.3       1 NKH         0.0539
      2 OAQ        -6.7960   -5.8990  -32.8850 O.3       1 NKH        -0.3343
      3 CAP        -8.1100   -5.7080  -32.6900 C.ar      1 NKH         0.1017
      4 CAU        -8.9270   -6.7090  -32.2010 C.ar      1 NKH        -0.0404
      5 CAT       -10.2710   -6.4440  -31.9960 C.ar      1 NKH         0.0430
      6 CL        -11.3050   -7.7370  -31.3760 Cl        1 NKH        -0.0953
      7 CAS       -10.7590   -5.1660  -32.3100 C.ar      1 NKH         0.0804
      8 OAV       -12.0830   -4.9550  -32.0680 O.3       1 NKH        -0.3311
      9 CAX       -12.5300   -3.9150  -32.9090 C.3       1 NKH         0.0569
     10 CAN        -9.9230   -4.1750  -32.8120 C.ar      1 NKH        -0.0198
     11 CAO        -8.5710   -4.4480  -32.9980 C.ar      1 NKH         0.0883
     12 NAM        -7.6010   -3.6230  -33.4740 N.am      1 NKH        -0.2378
     13 CAK        -7.8570   -2.3640  -33.9180 C.2       1 NKH         0.2305
     14 OAL        -8.9530   -1.7970  -33.8990 O.2       1 NKH        -0.3756
     15 CAG        -6.7450   -1.6460  -34.3700 C.ar      1 NKH         0.0764
     16 CAH        -5.5000   -2.2260  -34.5360 C.ar      1 NKH         0.0650
     17 NAI        -5.3260   -3.5180  -34.2460 N.ar      1 NKH        -0.2927
     18 CAJ        -4.0840   -4.1390  -34.4290 C.ar      1 NKH         0.0116
     19 CAE        -2.9990   -3.4100  -34.8520 C.ar      1 NKH        -0.0306
     20 CAD        -3.1860   -2.0710  -35.1370 C.ar      1 NKH        -0.0326
     21 CAC        -4.4290   -1.4790  -34.9720 C.ar      1 NKH         0.0127
     22 CAB        -4.5820   -0.1250  -35.2470 C.ar      1 NKH        -0.0405
     23 CAA        -5.8320    0.4540  -35.0820 C.ar      1 NKH        -0.0488
     24 CAF        -6.9060   -0.3100  -34.6370 C.ar      1 NKH        -0.0350
     25 H1         -5.5314   -7.2405  -33.8145 H         1 NKH         0.0568
     26 H2         -7.1132   -6.9698  -34.6216 H         1 NKH         0.0568
     27 H3         -7.0297   -7.9379  -33.1108 H         1 NKH         0.0568
     28 H4         -8.5212   -7.6897  -31.9805 H         1 NKH         0.0476
     29 H5        -13.5990   -3.7303  -32.7272 H         1 NKH         0.0574
     30 H6        -12.3813   -4.2037  -33.9600 H         1 NKH         0.0574
     31 H7        -11.9584   -2.9997  -32.6958 H         1 NKH         0.0574
     32 H8        -10.3213   -3.1970  -33.0567 H         1 NKH         0.0394
     33 H9         -6.6586   -3.9567  -33.4986 H         1 NKH         0.2221
     34 H10        -3.9783   -5.2004  -34.2359 H         1 NKH         0.0874
     35 H11        -2.0243   -3.8720  -34.9591 H         1 NKH         0.0696
     36 H12        -2.3522   -1.4770  -35.4934 H         1 NKH         0.0781
     37 H13        -3.7396    0.4680  -35.5844 H         1 NKH         0.0702
     38 H14        -5.9724    1.5064  -35.3008 H         1 NKH         0.0656
     39 H15        -7.8764    0.1533  -34.5003 H         1 NKH         0.0719
@<TRIPOS>BOND
     1    1    2 1  
     2    2    3 1  
     3    3    4 ar 
     4    3   11 ar 
     5    4    5 ar 
     6    5    6 1  
     7    5    7 ar 
     8    7    8 1  
     9    7   10 ar 
    10    8    9 1  
    11   10   11 ar 
    12   11   12 1  
    13   12   13 am 
    14   13   14 2  
    15   13   15 1  
    16   15   16 ar 
    17   15   24 ar 
    18   16   17 ar 
    19   16   21 ar 
    20   17   18 ar 
    21   18   19 ar 
    22   19   20 ar 
    23   20   21 ar 
    24   21   22 ar 
    25   22   23 ar 
    26   23   24 ar 
    27    1   25 1  
    28    1   26 1  
    29    1   27 1  
    30    4   28 1  
    31    9   29 1  
    32    9   30 1  
    33    9   31 1  
    34   10   32 1  
    35   12   33 1  
    36   18   34 1  
    37   19   35 1  
    38   20   36 1  
    39   22   37 1  
    40   23   38 1  
    41   24   39 1  
@<TRIPOS>SUBSTRUCTURE
     1 NKH         1

