### 
### Created by X-TOOL on Mon Sep 10 21:13:15 2018
### 

@<TRIPOS>MOLECULE
4bo2_ligand
   41    43     1     0     0
SMALL
GAST_HUCK


@<TRIPOS>ATOM
      1 CAF         9.6790  102.0330  183.2980 C.3       1 36K        -0.0389
      2 CAE        10.1140  102.8690  182.0550 C.3       1 36K         0.0541
      3 NAD        11.0720  103.9870  182.4300 N.pl3     1 36K        -0.2146
      4 CAC        12.3720  103.8540  182.1710 C.ar      1 36K         0.0762
      5 CAB        13.0320  102.8810  181.6140 C.ar      1 36K        -0.0455
      6 CAA        14.3840  103.0300  181.4430 C.ar      1 36K        -0.0795
      7 CAI        15.0590  104.1400  181.8750 C.ar      1 36K        -0.0818
      8 CAJ        14.3210  105.1110  182.4450 C.ar      1 36K        -0.0705
      9 CAK        13.0320  104.9460  182.5680 C.ar      1 36K         0.0084
     10 NAL        12.1820  105.7740  183.0780 N.2       1 36K        -0.3144
     11 CAM        10.9830  105.1820  183.0160 C.2       1 36K         0.2437
     12 NAN         9.9230  105.8420  183.4990 N.am      1 36K        -0.1646
     13 CAO         8.7560  105.2200  183.7510 C.2       1 36K         0.3259
     14 OAT         8.5510  104.0200  183.5220 O.2       1 36K        -0.3779
     15 NAP         7.8240  106.0230  184.2880 N.am      1 36K        -0.2153
     16 CAQ         8.1260  107.3120  184.4550 C.ar      1 36K         0.0974
     17 CAU         9.3040  107.8840  184.0420 C.ar      1 36K        -0.0495
     18 CAV         9.5030  109.2340  184.2590 C.ar      1 36K        -0.0869
     19 CAW         8.5240  110.0140  184.8880 C.ar      1 36K        -0.0863
     20 CAS         7.3360  109.4460  185.3150 C.ar      1 36K        -0.0462
     21 CAR         7.1660  108.0850  185.0770 C.ar      1 36K         0.1120
     22 OAG         6.0550  107.4230  185.4450 O.3       1 36K        -0.3275
     23 CAH         6.3880  106.0190  185.5130 C.3       1 36K         0.0562
     24 H1          8.9882  101.2376  182.9814 H         1 36K         0.0255
     25 H2          9.1751  102.6890  184.0231 H         1 36K         0.0255
     26 H3         10.5668  101.5827  183.7660 H         1 36K         0.0255
     27 H4          9.2187  103.3088  181.5914 H         1 36K         0.0591
     28 H5         10.6103  102.2025  181.3343 H         1 36K         0.0591
     29 H6         12.5266  101.9771  181.2938 H         1 36K         0.0529
     30 H7         14.9384  102.2408  180.9481 H         1 36K         0.0507
     31 H8         16.1333  104.2324  181.7637 H         1 36K         0.0506
     32 H9         14.7925  106.0209  182.7983 H         1 36K         0.0509
     33 H10        10.0002  106.8230  183.6773 H         1 36K         0.2410
     34 H11         6.9291  105.6655  184.5552 H         1 36K         0.2231
     35 H12        10.0653  107.2863  183.5538 H         1 36K         0.0465
     36 H13        10.4296  109.6960  183.9380 H         1 36K         0.0484
     37 H14         8.6985  111.0728  185.0419 H         1 36K         0.0459
     38 H15         6.5730  110.0341  185.8120 H         1 36K         0.0494
     39 H16         5.4985  105.4453  185.8125 H         1 36K         0.0572
     40 H17         7.1882  105.8673  186.2524 H         1 36K         0.0572
     41 H18         6.7308  105.6752  184.5259 H         1 36K         0.0572
@<TRIPOS>BOND
     1    1    2 1  
     2    2    3 1  
     3    3    4 1  
     4    3   11 1  
     5    4    5 ar 
     6    4    9 ar 
     7    5    6 ar 
     8    6    7 ar 
     9    7    8 ar 
    10    8    9 ar 
    11    9   10 1  
    12   10   11 2  
    13   11   12 1  
    14   12   13 am 
    15   13   14 2  
    16   13   15 am 
    17   15   16 1  
    18   16   17 ar 
    19   16   21 ar 
    20   17   18 ar 
    21   18   19 ar 
    22   19   20 ar 
    23   20   21 ar 
    24   21   22 1  
    25   22   23 1  
    26    1   24 1  
    27    1   25 1  
    28    1   26 1  
    29    2   27 1  
    30    2   28 1  
    31    5   29 1  
    32    6   30 1  
    33    7   31 1  
    34    8   32 1  
    35   12   33 1  
    36   15   34 1  
    37   17   35 1  
    38   18   36 1  
    39   19   37 1  
    40   20   38 1  
    41   23   39 1  
    42   23   40 1  
    43   23   41 1  
@<TRIPOS>SUBSTRUCTURE
     1 36K         1

