### 
### Created by X-TOOL on Mon Sep 10 21:13:15 2018
### 

@<TRIPOS>MOLECULE
4bo3_ligand
   31    32     1     0     0
SMALL
GAST_HUCK


@<TRIPOS>ATOM
      1 NAA       -10.6240   -8.9220  -32.6650 N.am      1 U98        -0.2615
      2 FAB        -6.3350   -1.2180  -34.4130 F         1 U98        -0.2207
      3 OAC       -11.5370   -7.7900  -30.3920 O.2       1 U98        -0.1512
      4 SAD       -10.5670   -7.6340  -31.5400 S.o2      1 U98         0.0691
      5 OAE        -9.1470   -7.5360  -30.9940 O.2       1 U98        -0.1512
      6 FAF        -8.2120   -1.4930  -35.7640 F         1 U98        -0.2207
      7 CAG        -6.7470   -1.9610  -35.3000 C.3       1 U98         0.3736
      8 CAH        -6.7150   -3.3000  -34.8120 C.ar      1 U98         0.0374
      9 CAI        -7.8090   -3.8690  -34.1610 C.ar      1 U98        -0.0098
     10 CAJ        -7.7910   -5.1860  -33.6940 C.ar      1 U98         0.0907
     11 NAK        -8.8070   -5.8380  -33.0450 N.pl3     1 U98        -0.2533
     12 CAL       -10.0950   -5.4140  -32.9900 C.ar      1 U98         0.1591
     13 CAM       -11.0110   -6.2120  -32.3020 C.ar      1 U98         0.1571
     14 CAN       -12.3610   -5.8590  -32.1860 C.ar      1 U98        -0.0261
     15 FAO        -5.9320   -1.8560  -36.3170 F         1 U98        -0.2207
     16 CAP        -5.5510   -4.0620  -34.9740 C.ar      1 U98        -0.0420
     17 CAQ        -5.5260   -5.3700  -34.5070 C.ar      1 U98        -0.0402
     18 CAR        -6.6290   -5.9140  -33.8720 C.ar      1 U98        -0.0094
     19 NAS       -10.5230   -4.2990  -33.5400 N.ar      1 U98        -0.2799
     20 CAT       -11.8710   -3.9240  -33.4520 C.ar      1 U98        -0.0028
     21 CAU       -12.8000   -4.6910  -32.7710 C.ar      1 U98        -0.0452
     22 H1        -11.4810   -9.1407  -33.1316 H         1 U98         0.1634
     23 H2         -9.8003   -9.4560  -32.8559 H         1 U98         0.1634
     24 H3         -8.7010   -3.2712  -34.0126 H         1 U98         0.0747
     25 H4         -8.5751   -6.7176  -32.5618 H         1 U98         0.2127
     26 H5        -13.0510   -6.4954  -31.6438 H         1 U98         0.0721
     27 H6         -4.6797   -3.6360  -35.4582 H         1 U98         0.0766
     28 H7         -4.6337   -5.9707  -34.6412 H         1 U98         0.0672
     29 H8         -6.5808   -6.9333  -33.5062 H         1 U98         0.0785
     30 H9        -12.1948   -3.0071  -33.9311 H         1 U98         0.0784
     31 H10       -13.8371   -4.3837  -32.7002 H         1 U98         0.0604
@<TRIPOS>BOND
     1    4    1 am 
     2    7    2 1  
     3    4    3 2  
     4    4    5 2  
     5   13    4 1  
     6    7    6 1  
     7    8    7 1  
     8    7   15 1  
     9    9    8 ar 
    10    8   16 ar 
    11   10    9 ar 
    12   11   10 1  
    13   10   18 ar 
    14   12   11 1  
    15   12   13 ar 
    16   12   19 ar 
    17   13   14 ar 
    18   14   21 ar 
    19   16   17 ar 
    20   17   18 ar 
    21   19   20 ar 
    22   20   21 ar 
    23    1   22 1  
    24    1   23 1  
    25    9   24 1  
    26   11   25 1  
    27   14   26 1  
    28   16   27 1  
    29   17   28 1  
    30   18   29 1  
    31   20   30 1  
    32   21   31 1  
@<TRIPOS>SUBSTRUCTURE
     1 U98         1

