### 
### Created by X-TOOL on Mon Sep 10 21:13:15 2018
### 

@<TRIPOS>MOLECULE
4bo4_ligand
   39    41     1     0     0
SMALL
GAST_HUCK


@<TRIPOS>ATOM
      1 CAF        -5.2490    2.6260   35.8550 C.3       1 36G         0.0567
      2 CAE        -4.2400    2.1800   34.9940 C.3       1 36G        -0.0201
      3 CAC        -5.4720    0.1130   35.3290 C.ar      1 36G        -0.0211
      4 CAB        -5.5860   -1.2620   35.4360 C.ar      1 36G        -0.0736
      5 CAA        -6.8310   -1.8900   35.4700 C.ar      1 36G        -0.0841
      6 CAI        -8.0120   -1.1600   35.3950 C.ar      1 36G        -0.0827
      7 CAJ        -7.9010    0.2090   35.3020 C.ar      1 36G        -0.0476
      8 CAK        -6.6440    0.8430   35.2450 C.ar      1 36G         0.0725
      9 CAO        -7.3000    3.0640   34.5450 C.2       1 36G         0.3150
     10 OAT        -7.0600    4.2740   34.5700 O.2       1 36G        -0.3820
     11 NAP        -8.3680    2.6060   33.8970 N.am      1 36G        -0.2171
     12 CA0        -4.1870    0.7040   35.3130 C.3       1 36G        -0.0209
     13 CAQ        -9.2290    3.4520   33.3500 C.ar      1 36G         0.0972
     14 CAU        -8.9400    4.7150   32.8510 C.ar      1 36G        -0.0495
     15 CAV        -9.9840    5.4440   32.3380 C.ar      1 36G        -0.0869
     16 CAW       -11.2620    4.9200   32.3190 C.ar      1 36G        -0.0863
     17 CAS       -11.5420    3.6750   32.8180 C.ar      1 36G        -0.0462
     18 CAR       -10.5160    2.9440   33.3410 C.ar      1 36G         0.1119
     19 NAH        -6.4900    2.1730   35.1750 N.am      1 36G        -0.2038
     20 OAG       -10.6630    1.6900   33.8880 O.3       1 36G        -0.3276
     21 CAH       -11.6320    0.8050   33.3160 C.3       1 36G         0.0562
     22 H1         -5.2293    3.7214   35.9539 H         1 36G         0.0583
     23 H2         -5.1524    2.1662   36.8496 H         1 36G         0.0583
     24 H3         -3.2807    2.6713   35.2136 H         1 36G         0.0308
     25 H4         -4.5076    2.3522   33.9411 H         1 36G         0.0308
     26 H5         -4.6870   -1.8649   35.4947 H         1 36G         0.0512
     27 H6         -6.8788   -2.9695   35.5567 H         1 36G         0.0469
     28 H7         -8.9796   -1.6484   35.4092 H         1 36G         0.0520
     29 H8         -8.8008    0.8127   35.2719 H         1 36G         0.0479
     30 H9         -8.5214    1.6206   33.8225 H         1 36G         0.2227
     31 H10        -3.7244    0.5720   36.3022 H         1 36G         0.0397
     32 H11        -3.5746    0.1990   34.5515 H         1 36G         0.0397
     33 H12        -7.9305    5.1096   32.8659 H         1 36G         0.0465
     34 H13        -9.8042    6.4381   31.9450 H         1 36G         0.0484
     35 H14       -12.0668    5.5110   31.8970 H         1 36G         0.0459
     36 H15       -12.5519    3.2815   32.7977 H         1 36G         0.0494
     37 H16       -11.6254   -0.1491   33.8634 H         1 36G         0.0572
     38 H17       -11.3844    0.6234   32.2597 H         1 36G         0.0572
     39 H18       -12.6308    1.2606   33.3854 H         1 36G         0.0572
@<TRIPOS>BOND
     1    1    2 1  
     2   19    1 1  
     3    2   12 1  
     4    3    4 ar 
     5    8    3 ar 
     6    3   12 1  
     7    4    5 ar 
     8    6    5 ar 
     9    7    6 ar 
    10    8    7 ar 
    11   19    8 1  
    12    9   10 2  
    13    9   11 am 
    14    9   19 am 
    15   11   13 1  
    16   13   14 ar 
    17   13   18 ar 
    18   14   15 ar 
    19   15   16 ar 
    20   16   17 ar 
    21   17   18 ar 
    22   18   20 1  
    23   20   21 1  
    24    1   22 1  
    25    1   23 1  
    26    2   24 1  
    27    2   25 1  
    28    4   26 1  
    29    5   27 1  
    30    6   28 1  
    31    7   29 1  
    32   11   30 1  
    33   12   31 1  
    34   12   32 1  
    35   14   33 1  
    36   15   34 1  
    37   16   35 1  
    38   17   36 1  
    39   21   37 1  
    40   21   38 1  
    41   21   39 1  
@<TRIPOS>SUBSTRUCTURE
     1 36G         1

