### 
### Created by X-TOOL on Mon Sep 10 21:13:15 2018
### 

@<TRIPOS>MOLECULE
4bo5_ligand
   29    31     1     0     0
SMALL
GAST_HUCK


@<TRIPOS>ATOM
      1 CL        -31.0340  -19.0850   36.5230 Cl        1 WI4        -0.0790
      2 CAJ       -30.3900  -17.4560   36.5500 C.ar      1 WI4         0.0636
      3 CAI       -31.1300  -16.4200   37.0870 C.ar      1 WI4        -0.0570
      4 CAA       -30.5990  -15.1280   37.1040 C.ar      1 WI4        -0.0724
      5 CAB       -29.3320  -14.8580   36.5820 C.ar      1 WI4        -0.0708
      6 CAC       -28.5830  -15.8950   36.0440 C.ar      1 WI4        -0.0367
      7 CAK       -29.1340  -17.1730   36.0400 C.ar      1 WI4         0.0823
      8 NAL       -28.4850  -18.2010   35.5520 N.pl3     1 WI4        -0.2359
      9 CAM       -27.2650  -17.9690   35.1130 C.ar      1 WI4         0.2184
     10 NAN       -26.6690  -18.9870   34.4820 N.ar      1 WI4        -0.1925
     11 NAD       -26.6560  -16.7750   35.2940 N.ar      1 WI4        -0.2307
     12 CAE       -25.3540  -16.6260   34.7810 C.ar      1 WI4         0.0816
     13 NAF       -24.7410  -17.7260   34.1150 N.ar      1 WI4        -0.2234
     14 CAO       -25.4300  -18.8860   34.0010 C.ar      1 WI4         0.2492
     15 NAP       -24.9680  -19.9670   33.3780 N.pl3     1 WI4        -0.2031
     16 CAQ       -23.7940  -20.2540   32.8130 C.2       1 WI4         0.0382
     17 CAR       -23.8920  -21.4730   32.2920 C.2       1 WI4        -0.0801
     18 CAH       -25.1210  -21.9330   32.5260 C.2       1 WI4        -0.0801
     19 CAG       -25.7900  -21.0000   33.1890 C.2       1 WI4         0.0382
     20 H1        -32.1173  -16.6088   37.4929 H         1 WI4         0.0594
     21 H2        -31.1815  -14.3194   37.5305 H         1 WI4         0.0523
     22 H3        -28.9376  -13.8484   36.5970 H         1 WI4         0.0590
     23 H4        -27.5945  -15.7143   35.6375 H         1 WI4         0.0540
     24 H5        -28.9061  -19.1402   35.5137 H         1 WI4         0.2218
     25 H6        -24.8245  -15.6865   34.8912 H         1 WI4         0.1164
     26 H7        -22.9172  -19.6087   32.7840 H         1 WI4         0.0835
     27 H8        -23.1024  -22.0054   31.7638 H         1 WI4         0.0302
     28 H9        -25.5080  -22.9054   32.2251 H         1 WI4         0.0302
     29 H10       -26.8254  -21.0654   33.5200 H         1 WI4         0.0835
@<TRIPOS>BOND
     1    1    2 1  
     2    2    3 ar 
     3    2    7 ar 
     4    3    4 ar 
     5    4    5 ar 
     6    5    6 ar 
     7    6    7 ar 
     8    7    8 1  
     9    8    9 1  
    10    9   10 ar 
    11    9   11 ar 
    12   10   14 ar 
    13   11   12 ar 
    14   12   13 ar 
    15   13   14 ar 
    16   14   15 1  
    17   15   16 1  
    18   15   19 1  
    19   16   17 2  
    20   17   18 1  
    21   18   19 2  
    22    3   20 1  
    23    4   21 1  
    24    5   22 1  
    25    6   23 1  
    26    8   24 1  
    27   12   25 1  
    28   16   26 1  
    29   17   27 1  
    30   18   28 1  
    31   19   29 1  
@<TRIPOS>SUBSTRUCTURE
     1 WI4         1

