### 
### Created by X-TOOL on Mon Sep 10 21:13:14 2018
### 

@<TRIPOS>MOLECULE
4bo6_ligand
   31    34     1     0     0
SMALL
GAST_HUCK


@<TRIPOS>ATOM
      1 CAO        -9.0900   -1.7950  -33.2370 C.2       1 36P         0.0514
      2 CAS       -10.5040   -1.8230  -32.7690 C.2       1 36P        -0.0651
      3 CAN       -10.7770   -3.1200  -32.3930 C.ar      1 36P        -0.0280
      4 CAM       -11.9250   -3.5690  -31.9060 C.ar      1 36P        -0.0780
      5 CAL       -12.0550   -4.8870  -31.5520 C.ar      1 36P        -0.0812
      6 CAB       -10.9450   -5.7070  -31.7220 C.ar      1 36P        -0.0780
      7 CAC        -9.7690   -5.1950  -32.2310 C.ar      1 36P        -0.0397
      8 CAD        -9.6980   -3.9100  -32.5570 C.ar      1 36P         0.0946
      9 NAE        -8.6660   -3.2060  -33.0470 N.am      1 36P        -0.1787
     10 CAF        -7.4260   -3.6890  -33.2870 C.2       1 36P         0.2719
     11 OAA        -7.1730   -4.8770  -33.0630 O.2       1 36P        -0.3553
     12 CAG        -6.4550   -2.8800  -33.7890 C.2       1 36P         0.1092
     13 NAH        -6.6640   -1.5830  -34.0920 N.2       1 36P        -0.3015
     14 CAP        -5.1900   -3.2830  -34.0670 C.2       1 36P         0.0361
     15 SAQ        -4.3490   -1.9410  -34.6730 S.3       1 36P         0.0010
     16 CAI        -5.6050   -0.9360  -34.5800 C.2       1 36P         0.1009
     17 CAJ        -5.6020    0.3430  -34.9080 C.2       1 36P         0.0100
     18 CAK        -6.7200    1.0820  -34.7820 C.2       1 36P        -0.0626
     19 CAR        -6.5750    2.3640  -35.1360 C.2       1 36P        -0.0037
     20 SAU        -5.0110    2.5820  -35.6220 S.3       1 36P        -0.0337
     21 CAT        -4.5160    0.9790  -35.3600 C.2       1 36P         0.0169
     22 H1         -8.5139   -0.9543  -33.6207 H         1 36P         0.0951
     23 H2        -11.1911   -0.9789  -32.7313 H         1 36P         0.0243
     24 H3        -12.7634   -2.8922  -31.7873 H         1 36P         0.0526
     25 H4        -12.9863   -5.2746  -31.1552 H         1 36P         0.0503
     26 H5        -11.0038   -6.7554  -31.4529 H         1 36P         0.0517
     27 H6         -8.9072   -5.8390  -32.3640 H         1 36P         0.0544
     28 H7         -4.7879   -4.2853  -33.9267 H         1 36P         0.0860
     29 H8         -7.6623    0.6713  -34.4225 H         1 36P         0.0421
     30 H9         -7.3503    3.1283  -35.1087 H         1 36P         0.0725
     31 H10        -3.5251    0.5584  -35.5249 H         1 36P         0.0845
@<TRIPOS>BOND
     1    1    2 2  
     2    1    9 1  
     3    2    3 1  
     4    3    4 ar 
     5    3    8 ar 
     6    4    5 ar 
     7    5    6 ar 
     8    6    7 ar 
     9    7    8 ar 
    10    8    9 1  
    11    9   10 am 
    12   10   11 2  
    13   10   12 1  
    14   12   13 1  
    15   12   14 2  
    16   13   16 2  
    17   14   15 1  
    18   15   16 1  
    19   16   17 1  
    20   17   18 1  
    21   17   21 2  
    22   18   19 2  
    23   19   20 1  
    24   20   21 1  
    25    1   22 1  
    26    2   23 1  
    27    4   24 1  
    28    5   25 1  
    29    6   26 1  
    30    7   27 1  
    31   14   28 1  
    32   18   29 1  
    33   19   30 1  
    34   21   31 1  
@<TRIPOS>SUBSTRUCTURE
     1 36P         1

