### 
### Created by X-TOOL on Mon Sep 10 21:13:14 2018
### 

@<TRIPOS>MOLECULE
4bo7_ligand
   31    34     1     0     0
SMALL
GAST_HUCK


@<TRIPOS>ATOM
      1 NAA       -10.5220   -6.8860  -32.1510 N.2       1 J2T        -0.2249
      2 CAB        -9.2470   -6.8260  -32.5130 C.2       1 J2T         0.2105
      3 CAC        -8.2560   -7.6990  -32.4740 C.2       1 J2T         0.0170
      4 CAD        -7.0010   -7.3110  -32.9330 C.2       1 J2T         0.0108
      5 CAE        -4.1740   -4.1170  -34.9070 C.ar      1 J2T        -0.0525
      6 CAF        -4.0130   -2.8410  -35.4390 C.ar      1 J2T        -0.0763
      7 CAG        -5.0280   -1.9810  -35.4320 C.ar      1 J2T        -0.0522
      8 CAH        -5.0930   -0.6790  -35.9020 C.3       1 J2T        -0.0253
      9 CAI        -6.2790   -0.0200  -35.1900 C.3       1 J2T        -0.0372
     10 NAJ       -11.0180   -5.7880  -32.4000 N.2       1 J2T        -0.1519
     11 NAK       -10.0950   -4.9930  -32.9200 N.2       1 J2T        -0.0456
     12 NAL        -9.0010   -5.6120  -32.9880 N.pl3     1 J2T        -0.0353
     13 NAM        -7.8650   -5.1880  -33.4290 N.2       1 J2T        -0.1097
     14 CAN        -6.8160   -6.0260  -33.4290 C.2       1 J2T         0.1756
     15 NAO        -5.5920   -5.6820  -33.8620 N.pl3     1 J2T        -0.2592
     16 CAP        -5.4070   -4.4710  -34.3790 C.ar      1 J2T         0.0478
     17 CAQ        -6.4270   -3.5420  -34.4060 C.ar      1 J2T        -0.0443
     18 CAR        -6.2230   -2.3270  -34.9270 C.ar      1 J2T        -0.0504
     19 CAS        -7.1150   -1.2440  -35.0490 C.3       1 J2T        -0.0227
     20 H1         -8.4178   -8.7001  -32.0911 H         1 J2T         0.0772
     21 H2         -6.1713   -8.0080  -32.9038 H         1 J2T         0.0752
     22 H3         -3.3504   -4.8218  -34.9053 H         1 J2T         0.0459
     23 H4         -3.0583   -2.5472  -35.8601 H         1 J2T         0.0510
     24 H5         -5.2529   -0.6750  -36.9903 H         1 J2T         0.0391
     25 H6         -4.1621   -0.1426  -35.6662 H         1 J2T         0.0391
     26 H7         -6.7637    0.7509  -35.8070 H         1 J2T         0.0304
     27 H8         -5.9984    0.4113  -34.2178 H         1 J2T         0.0304
     28 H9         -4.8080   -6.3466  -33.7945 H         1 J2T         0.2102
     29 H10        -7.3998   -3.7985  -34.0024 H         1 J2T         0.0452
     30 H11        -7.7509   -1.3740  -35.9371 H         1 J2T         0.0411
     31 H12        -7.7479   -1.1705  -34.1523 H         1 J2T         0.0411
@<TRIPOS>BOND
     1    2    1 2  
     2   10    1 1  
     3    3    2 1  
     4   12    2 1  
     5    4    3 2  
     6   14    4 1  
     7    5    6 ar 
     8   16    5 ar 
     9    6    7 ar 
    10    7    8 1  
    11    7   18 ar 
    12    8    9 1  
    13    9   19 1  
    14   11   10 2  
    15   12   11 1  
    16   13   12 1  
    17   14   13 2  
    18   15   14 1  
    19   15   16 1  
    20   16   17 ar 
    21   17   18 ar 
    22   18   19 1  
    23    3   20 1  
    24    4   21 1  
    25    5   22 1  
    26    6   23 1  
    27    8   24 1  
    28    8   25 1  
    29    9   26 1  
    30    9   27 1  
    31   15   28 1  
    32   17   29 1  
    33   19   30 1  
    34   19   31 1  
@<TRIPOS>SUBSTRUCTURE
     1 J2T         1

