### 
### Created by X-TOOL on Mon Sep 10 21:13:16 2018
### 

@<TRIPOS>MOLECULE
4bo8_ligand
   37    39     1     0     0
SMALL
GAST_HUCK


@<TRIPOS>ATOM
      1 FAP        -3.4360    0.9650  -36.1930 F         1 34X        -0.1939
      2 CAO        -4.5210    1.0560  -35.8330 C.ar      1 34X         0.1511
      3 CAN        -5.1460    2.2990  -35.9130 C.ar      1 34X        -0.0418
      4 CAM        -6.4390    2.4360  -35.4700 C.ar      1 34X        -0.0792
      5 CAA        -7.0920    1.3240  -34.9620 C.ar      1 34X        -0.0797
      6 CAB        -6.4510    0.1020  -34.8960 C.ar      1 34X        -0.0430
      7 CAC        -5.1360   -0.0900  -35.3510 C.ar      1 34X         0.1005
      8 NAD        -4.3150   -1.2070  -35.3260 N.am      1 34X        -0.2169
      9 CAE        -4.7080   -2.4350  -34.9120 C.2       1 34X         0.3146
     10 OAQ        -3.9400   -3.3990  -34.8520 O.2       1 34X        -0.3890
     11 NAF        -6.0110   -2.5390  -34.7500 N.am      1 34X        -0.1334
     12 NAG        -6.6050   -3.3180  -34.2300 N.pl3     1 34X        -0.1175
     13 CAH        -7.7940   -2.8150  -33.9980 C.2       1 34X         0.0681
     14 CAR        -6.5620   -4.5070  -33.6210 C.2       1 34X         0.2310
     15 NAW        -5.5050   -5.3130  -33.6220 N.pl3     1 34X        -0.2937
     16 NAS        -7.7680   -4.7660  -33.0650 N.2       1 34X        -0.3214
     17 CAI        -8.4890   -3.6630  -33.3060 C.2       1 34X         0.0055
     18 CAJ        -9.7390   -3.3300  -33.0500 C.ar      1 34X        -0.0341
     19 CAK       -10.1530   -2.0310  -33.3690 C.ar      1 34X        -0.0622
     20 CAL       -11.4560   -1.6740  -33.1570 C.ar      1 34X        -0.0670
     21 CAV       -12.3320   -2.5910  -32.6330 C.ar      1 34X        -0.0669
     22 CAU       -11.9240   -3.8680  -32.3260 C.ar      1 34X        -0.0670
     23 CAT       -10.6210   -4.2580  -32.5440 C.ar      1 34X        -0.0622
     24 H1         -4.6157    3.1515  -36.3218 H         1 34X         0.0561
     25 H2         -6.9396    3.3964  -35.5169 H         1 34X         0.0476
     26 H3         -8.1145    1.4139  -34.6135 H         1 34X         0.0543
     27 H4         -6.9845   -0.7430  -34.4760 H         1 34X         0.0488
     28 H5         -3.3699   -1.0986  -35.6342 H         1 34X         0.2245
     29 H6         -6.5479   -1.8013  -35.1593 H         1 34X         0.2259
     30 H7         -8.1423   -1.8393  -34.3336 H         1 34X         0.0858
     31 H8         -5.5460   -6.2167  -33.1295 H         1 34X         0.1811
     32 H9         -4.6450   -5.0339  -34.1153 H         1 34X         0.1811
     33 H10        -9.4487   -1.3164  -33.7793 H         1 34X         0.0574
     34 H11       -11.7944   -0.6736  -33.4012 H         1 34X         0.0603
     35 H12       -13.3626   -2.3042  -32.4581 H         1 34X         0.0574
     36 H13       -12.6336   -4.5734  -31.9090 H         1 34X         0.0603
     37 H14       -10.2986   -5.2691  -32.3229 H         1 34X         0.0574
@<TRIPOS>BOND
     1    1    2 1  
     2    2    3 ar 
     3    2    7 ar 
     4    3    4 ar 
     5    4    5 ar 
     6    5    6 ar 
     7    6    7 ar 
     8    7    8 1  
     9    8    9 am 
    10    9   10 2  
    11    9   11 am 
    12   11   12 1  
    13   12   13 1  
    14   12   14 1  
    15   13   17 2  
    16   14   15 1  
    17   14   16 2  
    18   16   17 1  
    19   17   18 1  
    20   18   19 ar 
    21   18   23 ar 
    22   19   20 ar 
    23   20   21 ar 
    24   21   22 ar 
    25   22   23 ar 
    26    3   24 1  
    27    4   25 1  
    28    5   26 1  
    29    6   27 1  
    30    8   28 1  
    31   11   29 1  
    32   13   30 1  
    33   15   31 1  
    34   15   32 1  
    35   19   33 1  
    36   20   34 1  
    37   21   35 1  
    38   22   36 1  
    39   23   37 1  
@<TRIPOS>SUBSTRUCTURE
     1 34X         1

