### 
### Created by X-TOOL on Mon Sep 10 21:13:16 2018
### 

@<TRIPOS>MOLECULE
4bo9_ligand
   38    41     1     0     0
SMALL
GAST_HUCK


@<TRIPOS>ATOM
      1 CAB        11.2190  104.0950   32.8290 C.ar      1 3X3        -0.0210
      2 CAA        11.8840  102.9790   32.3610 C.ar      1 3X3        -0.0644
      3 CAG        13.2380  103.0640   32.0320 C.ar      1 3X3        -0.0676
      4 CAH        13.9380  104.2630   32.1710 C.ar      1 3X3        -0.0644
      5 CAI        13.2720  105.3810   32.6400 C.ar      1 3X3        -0.0210
      6 CAC        11.9220  105.2890   32.9630 C.ar      1 3X3         0.1417
      7 NAD        11.2910  106.3510   33.4360 N.pl3     1 3X3        -0.0471
      8 NAJ        10.0670  106.3560   33.7860 N.2       1 3X3        -0.1360
      9 NAE        11.8180  107.5270   33.6550 N.2       1 3X3        -0.0382
     10 NAF        10.9110  108.3040   34.1320 N.2       1 3X3        -0.1771
     11 CAK         9.7960  107.5840   34.2190 C.2       1 3X3         0.1446
     12 CAN         8.6230  108.0230   34.6860 C.ar      1 3X3         0.0403
     13 CAO         8.5670  109.3100   35.1750 C.ar      1 3X3        -0.0594
     14 CAP         7.3680  109.7960   35.6750 C.ar      1 3X3        -0.0717
     15 CAX         6.2230  109.0070   35.7040 C.ar      1 3X3        -0.0700
     16 CAW         6.2770  107.7270   35.2250 C.ar      1 3X3        -0.0308
     17 CAV         7.4660  107.2400   34.7240 C.ar      1 3X3         0.1071
     18 OAU         7.5810  105.9850   34.2210 O.3       1 3X3        -0.2995
     19 CAT         6.5630  105.0320   34.4970 C.3       1 3X3         0.1347
     20 CAS         7.0160  103.7270   33.9160 C.2       1 3X3         0.1257
     21 OAR         6.2140  102.7060   33.5260 O.3       1 3X3        -0.2660
     22 CAQ         7.0220  101.7470   33.0930 C.2       1 3X3         0.0670
     23 CAM         8.2620  103.4200   33.7300 C.2       1 3X3        -0.0678
     24 CAL         8.2750  102.1950   33.2140 C.2       1 3X3        -0.0808
     25 H1         10.1676  104.0422   33.0876 H         1 3X3         0.0598
     26 H2         11.3558  102.0390   32.2493 H         1 3X3         0.0603
     27 H3         13.7536  102.1848   31.6628 H         1 3X3         0.0567
     28 H4         14.9899  104.3176   31.9148 H         1 3X3         0.0603
     29 H5         13.7981  106.3218   32.7550 H         1 3X3         0.0598
     30 H6          9.4515  109.9366   35.1690 H         1 3X3         0.0596
     31 H7          7.3224  110.8117   36.0509 H         1 3X3         0.0527
     32 H8          5.2960  109.4030   36.1027 H         1 3X3         0.0593
     33 H9          5.3925  107.1005   35.2391 H         1 3X3         0.0543
     34 H10         5.6166  105.3445   34.0316 H         1 3X3         0.0812
     35 H11         6.4223  104.9333   35.5835 H         1 3X3         0.0812
     36 H12         6.7196  100.7736   32.7095 H         1 3X3         0.0854
     37 H13         9.1271  104.0428   33.9526 H         1 3X3         0.0220
     38 H14         9.1697  101.6414   32.9330 H         1 3X3         0.0296
@<TRIPOS>BOND
     1    1    2 ar 
     2    1    6 ar 
     3    2    3 ar 
     4    3    4 ar 
     5    4    5 ar 
     6    5    6 ar 
     7    6    7 1  
     8    7    8 1  
     9    7    9 1  
    10    8   11 2  
    11    9   10 2  
    12   10   11 1  
    13   11   12 1  
    14   12   13 ar 
    15   12   17 ar 
    16   13   14 ar 
    17   14   15 ar 
    18   15   16 ar 
    19   16   17 ar 
    20   17   18 1  
    21   18   19 1  
    22   19   20 1  
    23   20   21 1  
    24   20   23 2  
    25   21   22 1  
    26   22   24 2  
    27   23   24 1  
    28    1   25 1  
    29    2   26 1  
    30    3   27 1  
    31    4   28 1  
    32    5   29 1  
    33   13   30 1  
    34   14   31 1  
    35   15   32 1  
    36   16   33 1  
    37   19   34 1  
    38   19   35 1  
    39   22   36 1  
    40   23   37 1  
    41   24   38 1  
@<TRIPOS>SUBSTRUCTURE
     1 3X3         1

