### 
### Created by X-TOOL on Mon Sep 10 21:13:14 2018
### 

@<TRIPOS>MOLECULE
4bqg_ligand
   25    26     1     0     0
SMALL
GAST_HUCK


@<TRIPOS>ATOM
      1 C10         5.5610   12.1080   24.0170 C.ar      1 50Q        -0.0552
      2 C13         4.5520   14.0460   25.0790 C.ar      1 50Q         0.0467
      3 C15         3.3210   13.4180   25.2090 C.ar      1 50Q        -0.0140
      4 O05        -2.6500   11.2640   25.1580 O.3       1 50Q        -0.3384
      5 C04        -1.5390   11.6570   24.4650 C.ar      1 50Q         0.0716
      6 C03        -1.6320   12.2810   23.2210 C.ar      1 50Q        -0.0163
      7 C02        -0.4600   12.6490   22.5360 C.ar      1 50Q         0.0716
      8 O01        -0.5260   13.2590   21.3400 O.3       1 50Q        -0.3384
      9 C19         0.7830   12.3710   23.0540 C.ar      1 50Q        -0.0121
     10 C09         4.3400   11.4740   24.1430 C.ar      1 50Q        -0.0276
     11 C11         5.6310   13.4140   24.5000 C.ar      1 50Q         0.0431
     12 C16         3.2420   12.1030   24.7210 C.ar      1 50Q         0.1164
     13 CL6         7.1640   14.3320   24.4350 Cl        1 50Q        -0.0797
     14 O17         2.0800   11.3850   24.8160 O.3       1 50Q        -0.2631
     15 CL5         4.8630   15.7120   25.6620 Cl        1 50Q        -0.0727
     16 C18         0.8610   11.7240   24.2800 C.ar      1 50Q         0.0993
     17 C06        -0.2870   11.3790   24.9870 C.ar      1 50Q        -0.0121
     18 H1          6.4169   11.6174   23.5677 H         1 50Q         0.0597
     19 H2          2.4696   13.9137   25.6611 H         1 50Q         0.0558
     20 H3         -3.1941   12.0216   25.3379 H         1 50Q         0.2476
     21 H4         -2.6035   12.4815   22.7840 H         1 50Q         0.0380
     22 H5         -0.9996   14.0777   21.4290 H         1 50Q         0.2476
     23 H6          1.6822   12.6508   22.5171 H         1 50Q         0.0385
     24 H7          4.2345   10.4576   23.7812 H         1 50Q         0.0555
     25 H8         -0.2006   10.8904   25.9508 H         1 50Q         0.0385
@<TRIPOS>BOND
     1   10    1 ar 
     2    1   11 ar 
     3    3    2 ar 
     4    2   11 ar 
     5    2   15 1  
     6   12    3 ar 
     7    5    4 1  
     8    6    5 ar 
     9    5   17 ar 
    10    7    6 ar 
    11    7    8 1  
    12    9    7 ar 
    13   16    9 ar 
    14   12   10 ar 
    15   11   13 1  
    16   14   12 1  
    17   14   16 1  
    18   16   17 ar 
    19    1   18 1  
    20    3   19 1  
    21    4   20 1  
    22    6   21 1  
    23    8   22 1  
    24    9   23 1  
    25   10   24 1  
    26   17   25 1  
@<TRIPOS>SUBSTRUCTURE
     1 50Q         1

