### 
### Created by X-TOOL on Mon Sep 10 21:13:14 2018
### 

@<TRIPOS>MOLECULE
4bqh_ligand
   39    42     1     0     0
SMALL
GAST_HUCK


@<TRIPOS>ATOM
      1 OAN        -8.2350   35.4930    7.4340 O.2       1 9VU        -0.3167
      2 CAH        -9.2630   36.1490    7.6920 C.2       1 9VU         0.2352
      3 NAG       -10.4920   35.6270    7.7230 N.am      1 9VU        -0.2190
      4 CAC       -11.3820   36.6190    7.9990 C.ar      1 9VU         0.0946
      5 CAB       -12.7130   36.5430    8.1000 C.ar      1 9VU        -0.0086
      6 CAA       -13.5210   37.6610    8.3610 C.ar      1 9VU        -0.0392
      7 CAF       -12.8860   38.9010    8.5020 C.ar      1 9VU        -0.0229
      8 CAJ       -13.6690   40.0760    8.7650 C.3       1 9VU        -0.0291
      9 CAE       -11.4780   38.9300    8.3850 C.ar      1 9VU         0.0204
     10 BRA       -10.6500   40.6190    8.6490 Br        1 9VU        -0.0430
     11 CAD       -10.7390   37.8120    8.1400 C.ar      1 9VU        -0.0007
     12 CAI        -9.3370   37.5470    7.9440 C.3       1 9VU         0.1381
     13 OAL        -8.8840   38.1870    6.7480 O.3       1 9VU        -0.4356
     14 CAM        -8.3860   38.0760    9.0510 C.3       1 9VU         0.0210
     15 CAO        -8.5540   37.3600   10.4070 C.2       1 9VU         0.1126
     16 OAP        -9.2700   36.3480   10.4450 O.2       1 9VU        -0.3852
     17 CAQ        -7.8350   37.8690   11.5290 C.ar      1 9VU         0.0112
     18 CAV        -7.2500   39.1370   11.5410 C.ar      1 9VU        -0.0227
     19 CAU        -6.5670   39.5910   12.6070 C.ar      1 9VU         0.1293
     20 OAY        -5.9540   40.7990   12.7780 O.3       1 9VU        -0.2895
     21 CAX        -5.0590   40.5750   13.9020 C.3       1 9VU         0.1882
     22 OAW        -5.7230   39.5520   14.6540 O.3       1 9VU        -0.2869
     23 CAT        -6.4400   38.8610   13.7150 C.ar      1 9VU         0.1294
     24 CAS        -6.9890   37.6370   13.7860 C.ar      1 9VU        -0.0343
     25 CAR        -7.7040   37.1210   12.7060 C.ar      1 9VU        -0.0625
     26 H1        -10.7206   34.6658    7.5688 H         1 9VU         0.2403
     27 H2        -13.1885   35.5769    7.9750 H         1 9VU         0.0616
     28 H3        -14.5973   37.5677    8.4501 H         1 9VU         0.0777
     29 H4        -14.7338   39.8041    8.8119 H         1 9VU         0.0386
     30 H5        -13.5129   40.8086    7.9595 H         1 9VU         0.0386
     31 H6        -13.3601   40.5152    9.7250 H         1 9VU         0.0386
     32 H7         -9.3737   37.8521    6.0060 H         1 9VU         0.1885
     33 H8         -8.5855   39.1478    9.1972 H         1 9VU         0.0364
     34 H9         -7.3485   37.9390    8.7122 H         1 9VU         0.0364
     35 H10        -7.3490   39.7721   10.6681 H         1 9VU         0.0560
     36 H11        -4.9415   41.4904   14.5005 H         1 9VU         0.0976
     37 H12        -4.0720   40.2328   13.5576 H         1 9VU         0.0976
     38 H13        -6.8754   37.0470   14.6883 H         1 9VU         0.0525
     39 H14        -8.1591   36.1397   12.7773 H         1 9VU         0.0554
@<TRIPOS>BOND
     1    1    2 2  
     2    2    3 am 
     3    2   12 1  
     4    3    4 1  
     5    4    5 ar 
     6    4   11 ar 
     7    5    6 ar 
     8    6    7 ar 
     9    7    8 1  
    10    7    9 ar 
    11    9   10 1  
    12    9   11 ar 
    13   11   12 1  
    14   12   13 1  
    15   12   14 1  
    16   14   15 1  
    17   15   16 2  
    18   15   17 1  
    19   17   18 ar 
    20   17   25 ar 
    21   18   19 ar 
    22   19   20 1  
    23   19   23 ar 
    24   20   21 1  
    25   21   22 1  
    26   22   23 1  
    27   23   24 ar 
    28   24   25 ar 
    29    3   26 1  
    30    5   27 1  
    31    6   28 1  
    32    8   29 1  
    33    8   30 1  
    34    8   31 1  
    35   13   32 1  
    36   14   33 1  
    37   14   34 1  
    38   18   35 1  
    39   21   36 1  
    40   21   37 1  
    41   24   38 1  
    42   25   39 1  
@<TRIPOS>SUBSTRUCTURE
     1 9VU         1

