### 
### Created by X-TOOL on Mon Sep 10 21:13:13 2018
### 

@<TRIPOS>MOLECULE
4bqs_ligand
   26    27     1     0     0
SMALL
GAST_HUCK


@<TRIPOS>ATOM
      1 OAA         0.5330   -0.6150   43.8740 O.co2     1 K2Q        -0.5666
      2 CAK         1.5760   -0.6220   44.6370 C.2       1 K2Q         0.0465
      3 OAB         2.2370   -1.6770   44.7920 O.co2     1 K2Q        -0.5666
      4 CAL         2.0380    0.5830   45.2220 C.2       1 K2Q        -0.0334
      5 CAI         1.1540    1.6860   45.1190 C.2       1 K2Q        -0.0488
      6 CAG         3.2670    0.6560   45.9460 C.3       1 K2Q        -0.0353
      7 CAO         3.8410    1.8830   46.4200 C.3       1 K2Q         0.0612
      8 OAD         5.0640    2.0880   45.6760 O.3       1 K2Q        -0.4429
      9 CAF         4.1110    1.8370   47.7860 C.2       1 K2Q        -0.0539
     10 CAE         3.3350    2.4120   48.7900 C.2       1 K2Q         0.0121
     11 CAH         2.0890    3.0570   48.5860 C.3       1 K2Q         0.1265
     12 OAJ         1.2940    2.3850   47.5500 O.3       1 K2Q        -0.3303
     13 CAN         1.5450    2.8010   46.1730 C.3       1 K2Q         0.1061
     14 CAM         2.9830    3.1550   45.9930 C.3       1 K2Q         0.0810
     15 OAC         3.2110    3.5030   44.5710 O.3       1 K2Q        -0.3978
     16 H1          0.3252    1.7565   44.4161 H         1 K2Q         0.0592
     17 H2          4.0269    0.2027   45.2925 H         1 K2Q         0.0263
     18 H3          3.1273    0.0268   46.8374 H         1 K2Q         0.0263
     19 H4          5.4761    2.8947   45.9623 H         1 K2Q         0.1886
     20 H5          5.0085    1.3041   48.0966 H         1 K2Q         0.0490
     21 H6          3.7145    2.3622   49.8095 H         1 K2Q         0.1555
     22 H7          2.2719    4.0967   48.2769 H         1 K2Q         0.1000
     23 H8          1.5244    3.0490   49.5300 H         1 K2Q         0.1000
     24 H9          0.9346    3.6937   45.9718 H         1 K2Q         0.0770
     25 H10         3.2475    4.0131   46.6284 H         1 K2Q         0.0518
     26 H11         4.1246    3.7305   44.4444 H         1 K2Q         0.2086
@<TRIPOS>BOND
     1    1    2 ar 
     2    2    3 ar 
     3    2    4 1  
     4    4    5 2  
     5    4    6 1  
     6    5   13 1  
     7    6    7 1  
     8    7    8 1  
     9    7    9 1  
    10    7   14 1  
    11    9   10 2  
    12   10   11 1  
    13   11   12 1  
    14   12   13 1  
    15   13   14 1  
    16   14   15 1  
    17    5   16 1  
    18    6   17 1  
    19    6   18 1  
    20    8   19 1  
    21    9   20 1  
    22   10   21 1  
    23   11   22 1  
    24   11   23 1  
    25   13   24 1  
    26   14   25 1  
    27   15   26 1  
@<TRIPOS>SUBSTRUCTURE
     1 K2Q         1

