### 
### Created by X-TOOL on Mon Sep 10 21:13:14 2018
### 

@<TRIPOS>MOLECULE
4bqt_ligand
   29    31     1     0     0
SMALL
GAST_HUCK


@<TRIPOS>ATOM
      1 O          27.7880  -26.6030   83.3710 O.2       1 C5E        -0.4271
      2 C          28.2700  -26.1000   84.4120 C.2       1 C5E         0.1884
      3 N          29.0380  -26.8500   85.3220 N.am      1 C5E        -0.2018
      4 C5         29.2590  -28.2620   85.0180 C.3       1 C5E         0.0780
      5 C6         30.2300  -29.0030   85.9500 C.3       1 C5E         0.0317
      6 C10        29.3940  -29.7770   86.9310 C.3       1 C5E        -0.0276
      7 N1         28.6470  -28.8190   87.7040 N.4       1 C5E         0.2296
      8 C9         29.3700  -27.7680   88.3880 C.3       1 C5E        -0.0132
      9 C8         30.3340  -27.0530   87.4600 C.3       1 C5E         0.0747
     10 C7         31.1590  -28.0690   86.7170 C.3       1 C5E        -0.0171
     11 C4         29.5450  -26.2690   86.4980 C.2       1 C5E         0.0944
     12 C3         29.2880  -24.9410   86.7660 C.2       1 C5E        -0.0426
     13 C2         28.5460  -24.2020   85.8650 C.2       1 C5E        -0.0887
     14 C1         28.0430  -24.7750   84.7000 C.2       1 C5E        -0.0258
     15 H1         29.6567  -28.3286   83.9946 H         1 C5E         0.0644
     16 H2         28.2867  -28.7741   85.0677 H         1 C5E         0.0644
     17 H3         30.8423  -29.6948   85.3529 H         1 C5E         0.0384
     18 H4         30.0422  -30.3711   87.5920 H         1 C5E         0.0817
     19 H5         28.7059  -30.4463   86.3939 H         1 C5E         0.0817
     20 H6         28.1379  -29.3344   88.4048 H         1 C5E         0.2016
     21 H7         27.9966  -28.3727   87.0764 H         1 C5E         0.2016
     22 H8         29.9379  -28.2095   89.2202 H         1 C5E         0.0851
     23 H9         28.6483  -27.0380   88.7832 H         1 C5E         0.0851
     24 H10        30.9926  -26.3887   88.0387 H         1 C5E         0.0623
     25 H11        31.8285  -27.5548   86.0117 H         1 C5E         0.0308
     26 H12        31.7578  -28.6514   87.4327 H         1 C5E         0.0308
     27 H13        29.6656  -24.4800   87.6775 H         1 C5E         0.0265
     28 H14        28.3506  -23.1505   86.0700 H         1 C5E         0.0620
     29 H15        27.4626  -24.1661   84.0084 H         1 C5E         0.0305
@<TRIPOS>BOND
     1    1    2 2  
     2    2    3 am 
     3    2   14 1  
     4    3    4 1  
     5    3   11 1  
     6    4    5 1  
     7    5    6 1  
     8    5   10 1  
     9    6    7 1  
    10    7    8 1  
    11    8    9 1  
    12    9   10 1  
    13    9   11 1  
    14   11   12 2  
    15   12   13 1  
    16   13   14 2  
    17    4   15 1  
    18    4   16 1  
    19    5   17 1  
    20    6   18 1  
    21    6   19 1  
    22    7   20 1  
    23    7   21 1  
    24    8   22 1  
    25    8   23 1  
    26    9   24 1  
    27   10   25 1  
    28   10   26 1  
    29   12   27 1  
    30   13   28 1  
    31   14   29 1  
@<TRIPOS>SUBSTRUCTURE
     1 C5E         1

