### 
### Created by X-TOOL on Mon Sep 10 21:13:14 2018
### 

@<TRIPOS>MOLECULE
4bqw_ligand
   31    32     1     0     0
SMALL
GAST_HUCK


@<TRIPOS>ATOM
      1 OAK       -32.5940   23.0990    3.2560 O.co2     1 QNM        -0.5669
      2 CAI       -32.9530   22.3040    4.1520 C.2       1 QNM         0.0568
      3 OAJ       -32.2930   21.3370    4.5880 O.co2     1 QNM        -0.5669
      4 C4        -34.3260   22.5440    4.7840 C.3       1 QNM         0.0815
      5 N3        -34.9380   23.7500    4.2040 N.am      1 QNM        -0.2807
      6 C2        -36.1540   24.1470    4.5730 C.2       1 QNM         0.1836
      7 O2        -36.7910   23.6010    5.4710 O.2       1 QNM        -0.4089
      8 C6        -35.8000   26.3200    3.3050 C.2       1 QNM         0.2075
      9 O6        -34.5940   26.0810    3.2610 O.2       1 QNM        -0.4140
     10 CAL       -35.3620   28.4720    2.1320 C.3       1 QNM         0.0491
     11 CAN       -37.6690   27.7860    2.7890 C.ar      1 QNM         0.0978
     12 CAO       -38.1670   28.9700    2.2520 C.ar      1 QNM        -0.0292
     13 CA0       -36.6820   25.4120    3.8880 C.2       1 QNM         0.1310
     14 CAP       -39.5350   29.2340    2.2910 C.ar      1 QNM        -0.0673
     15 CAQ       -40.4020   28.3170    2.8680 C.ar      1 QNM        -0.0678
     16 CAR       -39.9080   27.1300    3.4070 C.ar      1 QNM        -0.0522
     17 CAS       -38.5420   26.8710    3.3670 C.ar      1 QNM         0.0603
     18 CAT       -38.0470   25.6870    3.9080 C.2       1 QNM         0.1316
     19 NAN       -36.2960   27.5050    2.7510 N.am      1 QNM        -0.2197
     20 OAU       -38.9190   24.7820    4.4300 O.3       1 QNM        -0.3132
     21 H1        -34.2097   22.6795    5.8694 H         1 QNM         0.0687
     22 H2        -34.9739   21.6765    4.5901 H         1 QNM         0.0687
     23 H3        -34.4329   24.2794    3.5224 H         1 QNM         0.1846
     24 H4        -34.3353   28.0822    2.1956 H         1 QNM         0.0570
     25 H5        -35.4230   29.4328    2.6641 H         1 QNM         0.0570
     26 H6        -35.6334   28.6196    1.0763 H         1 QNM         0.0570
     27 H7        -37.4899   29.6876    1.8029 H         1 QNM         0.0534
     28 H8        -39.9215   30.1554    1.8707 H         1 QNM         0.0633
     29 H9        -41.4656   28.5240    2.8997 H         1 QNM         0.0521
     30 H10       -40.5854   26.4122    3.8552 H         1 QNM         0.0644
     31 H11       -38.4368   24.0321    4.7580 H         1 QNM         0.2612
@<TRIPOS>BOND
     1    2    1 ar 
     2    2    3 ar 
     3    4    2 1  
     4    5    4 1  
     5    6    5 am 
     6    6    7 2  
     7   13    6 1  
     8    8    9 2  
     9    8   13 1  
    10   19    8 am 
    11   19   10 1  
    12   11   12 ar 
    13   11   17 ar 
    14   11   19 1  
    15   12   14 ar 
    16   13   18 2  
    17   14   15 ar 
    18   15   16 ar 
    19   16   17 ar 
    20   17   18 1  
    21   18   20 1  
    22    4   21 1  
    23    4   22 1  
    24    5   23 1  
    25   10   24 1  
    26   10   25 1  
    27   10   26 1  
    28   12   27 1  
    29   14   28 1  
    30   15   29 1  
    31   16   30 1  
    32   20   31 1  
@<TRIPOS>SUBSTRUCTURE
     1 QNM         1

