### 
### Created by X-TOOL on Mon Sep 10 21:13:15 2018
### 

@<TRIPOS>MOLECULE
4bqx_ligand
   27    28     1     0     0
SMALL
GAST_HUCK


@<TRIPOS>ATOM
      1 O18        36.3030  -16.5910   -3.1550 O.co2     1 UN9        -0.5669
      2 C16        35.6650  -17.1970   -4.0420 C.2       1 UN9         0.0569
      3 O17        34.4670  -17.0160   -4.3460 O.co2     1 UN9        -0.5669
      4 C15        36.4130  -18.2610   -4.8470 C.3       1 UN9         0.0825
      5 N14        37.8070  -18.3520   -4.3930 N.am      1 UN9        -0.2751
      6 C12        38.6010  -19.2990   -4.8890 C.2       1 UN9         0.2102
      7 O13        38.2430  -20.1380   -5.7100 O.2       1 UN9        -0.3909
      8 C9         40.0360  -19.3300   -4.3640 C.ar      1 UN9         0.1403
      9 N8         40.7260  -20.4560   -4.5960 N.ar      1 UN9        -0.2813
     10 C7         41.9760  -20.6400   -4.1470 C.ar      1 UN9         0.1160
     11 CL1        42.7290  -22.1630   -4.5070 Cl        1 UN9        -0.0455
     12 C2         42.6030  -19.6270   -3.4250 C.ar      1 UN9         0.0220
     13 C10        40.6080  -18.2870   -3.6440 C.ar      1 UN9         0.1430
     14 O19        39.9070  -17.1610   -3.3390 O.3       1 UN9        -0.3160
     15 C3         41.9130  -18.4420   -3.1810 C.ar      1 UN9         0.0383
     16 C4         42.5140  -17.4140   -2.4600 C.ar      1 UN9        -0.0441
     17 C5         43.8110  -17.5690   -1.9790 C.ar      1 UN9        -0.0567
     18 C6         44.5040  -18.7530   -2.2200 C.ar      1 UN9        -0.0571
     19 C1         43.9000  -19.7800   -2.9380 C.ar      1 UN9        -0.0475
     20 H1         36.3948  -17.9900   -5.9129 H         1 UN9         0.0688
     21 H2         35.9210  -19.2349   -4.7077 H         1 UN9         0.0688
     22 H3         38.1579  -17.7061   -3.7150 H         1 UN9         0.1860
     23 H4         39.1484  -17.3934   -2.8164 H         1 UN9         0.2571
     24 H5         41.9725  -16.4937   -2.2733 H         1 UN9         0.0661
     25 H6         44.2810  -16.7695   -1.4177 H         1 UN9         0.0632
     26 H7         45.5148  -18.8742   -1.8477 H         1 UN9         0.0646
     27 H8         44.4398  -20.7024   -3.1194 H         1 UN9         0.0641
@<TRIPOS>BOND
     1    1    2 ar 
     2    2    3 ar 
     3    2    4 1  
     4    4    5 1  
     5    5    6 am 
     6    6    7 2  
     7    6    8 1  
     8    8    9 ar 
     9    8   13 ar 
    10    9   10 ar 
    11   10   11 1  
    12   10   12 ar 
    13   12   15 ar 
    14   12   19 ar 
    15   13   14 1  
    16   13   15 ar 
    17   15   16 ar 
    18   16   17 ar 
    19   17   18 ar 
    20   18   19 ar 
    21    4   20 1  
    22    4   21 1  
    23    5   22 1  
    24   14   23 1  
    25   16   24 1  
    26   17   25 1  
    27   18   26 1  
    28   19   27 1  
@<TRIPOS>SUBSTRUCTURE
     1 UN9         1

