### 
### Created by X-TOOL on Mon Sep 10 21:13:15 2018
### 

@<TRIPOS>MOLECULE
4bqy_ligand
   30    31     1     0     0
SMALL
GAST_HUCK


@<TRIPOS>ATOM
      1 C1        -44.1240  -20.4180    2.9120 C.ar      1 FNT        -0.0475
      2 CL1       -42.9490  -22.6770    4.4560 Cl        1 FNT        -0.0455
      3 C2        -42.8390  -20.2120    3.3770 C.ar      1 FNT         0.0220
      4 C3        -42.1860  -19.0640    3.1220 C.ar      1 FNT         0.0383
      5 C4        -42.8240  -18.0690    2.4050 C.ar      1 FNT        -0.0441
      6 C5        -44.1020  -18.2490    1.9370 C.ar      1 FNT        -0.0567
      7 C6        -44.7480  -19.4270    2.1880 C.ar      1 FNT        -0.0571
      8 C7        -42.1930  -21.1720    4.1020 C.ar      1 FNT         0.1160
      9 N8        -40.9650  -20.9970    4.5890 N.ar      1 FNT        -0.2813
     10 C9        -40.2730  -19.8940    4.3620 C.ar      1 FNT         0.1403
     11 C08       -36.0820  -20.1730    4.5620 C.3       1 FNT        -0.0300
     12 C10       -40.9070  -18.9010    3.6070 C.ar      1 FNT         0.1430
     13 C12       -38.9780  -19.8150    4.9250 C.2       1 FNT         0.2104
     14 O13       -38.6060  -20.5300    5.9540 O.2       1 FNT        -0.3909
     15 N14       -38.1100  -18.9330    4.4310 N.am      1 FNT        -0.2727
     16 C15       -36.7910  -18.8920    4.9250 C.3       1 FNT         0.0908
     17 C16       -36.0290  -17.7360    4.2870 C.2       1 FNT         0.0597
     18 O17       -36.5910  -17.0250    3.4350 O.co2     1 FNT        -0.5666
     19 O18       -34.8690  -17.5700    4.6760 O.co2     1 FNT        -0.5666
     20 O19       -40.2480  -17.7220    3.3270 O.3       1 FNT        -0.3160
     21 H1        -44.6361  -21.3515    3.1155 H         1 FNT         0.0641
     22 H2        -42.3089  -17.1353    2.2100 H         1 FNT         0.0661
     23 H3        -44.5941  -17.4643    1.3738 H         1 FNT         0.0632
     24 H4        -45.7544  -19.5815    1.8160 H         1 FNT         0.0646
     25 H5        -35.0518  -20.1435    4.9466 H         1 FNT         0.0270
     26 H6        -36.0618  -20.2836    3.4678 H         1 FNT         0.0270
     27 H7        -36.6152  -21.0260    5.0070 H         1 FNT         0.0270
     28 H8        -38.3944  -18.3007    3.7103 H         1 FNT         0.1863
     29 H9        -36.8101  -18.7690    6.0179 H         1 FNT         0.0722
     30 H10       -40.0235  -17.2851    4.1402 H         1 FNT         0.2571
@<TRIPOS>BOND
     1    3    1 ar 
     2    1    7 ar 
     3    8    2 1  
     4    4    3 ar 
     5    8    3 ar 
     6    4    5 ar 
     7   12    4 ar 
     8    5    6 ar 
     9    6    7 ar 
    10    9    8 ar 
    11   10    9 ar 
    12   10   12 ar 
    13   13   10 1  
    14   16   11 1  
    15   12   20 1  
    16   13   14 2  
    17   15   13 am 
    18   15   16 1  
    19   16   17 1  
    20   17   18 ar 
    21   17   19 ar 
    22    1   21 1  
    23    5   22 1  
    24    6   23 1  
    25    7   24 1  
    26   11   25 1  
    27   11   26 1  
    28   11   27 1  
    29   15   28 1  
    30   16   29 1  
    31   20   30 1  
@<TRIPOS>SUBSTRUCTURE
     1 FNT         1

