### 
### Created by X-TOOL on Mon Sep 10 21:13:15 2018
### 

@<TRIPOS>MOLECULE
4br3_ligand
   59    63     1     0     0
SMALL
GAST_HUCK


@<TRIPOS>ATOM
      1 C1         -5.8160  -10.2470    5.4630 C.3       1 U85         0.0124
      2 N1         -6.9440   -9.9350    4.5610 N.2       1 U85        -0.3556
      3 C2         -7.3730   -8.5470    4.3510 C.3       1 U85         0.0124
      4 C3         -7.6410  -10.9430    4.0130 C.2       1 U85         0.0998
      5 C4         -8.7640  -10.7120    3.2100 C.2       1 U85         0.0578
      6 C5         -9.4860  -11.7770    2.6540 C.2       1 U85         0.1329
      7 C6         -7.2400  -12.2470    4.2590 C.2       1 U85         0.0578
      8 C7         -7.9320  -13.3340    3.7280 C.2       1 U85         0.1329
      9 N2         -9.0500  -13.0980    2.9000 N.pl3     1 U85        -0.1726
     10 C8         -9.8030  -14.2600    2.3970 C.3       1 U85         0.1196
     11 C9        -10.4730  -14.7820    3.5350 C.ar      1 U85        -0.0058
     12 C10       -11.5960  -14.1310    4.0450 C.ar      1 U85        -0.0567
     13 C11       -12.2280  -14.6200    5.1760 C.ar      1 U85        -0.0615
     14 C12       -10.0050  -15.9200    4.1920 C.ar      1 U85        -0.0567
     15 C13       -10.6610  -16.4220    5.3270 C.ar      1 U85        -0.0615
     16 C14       -11.7930  -15.7790    5.8370 C.ar      1 U85        -0.0283
     17 C15       -12.4850  -16.2320    6.9850 C.ar      1 U85        -0.0283
     18 C16       -13.4670  -15.4070    7.5600 C.ar      1 U85        -0.0615
     19 C17       -14.1850  -15.7950    8.6890 C.ar      1 U85        -0.0572
     20 C18       -12.2320  -17.4700    7.5900 C.ar      1 U85        -0.0615
     21 C19       -12.9520  -17.8560    8.7260 C.ar      1 U85        -0.0572
     22 C20       -13.9320  -17.0270    9.2850 C.ar      1 U85        -0.0112
     23 C21       -14.6740  -17.4140   10.4230 C.3       1 U85         0.1031
     24 N3        -14.0530  -16.9360   11.6950 N.pl3     1 U85        -0.1892
     25 C22       -13.3070  -17.7780   12.4460 C.2       1 U85         0.1328
     26 N4        -12.9850  -19.0650   12.2850 N.2       1 U85        -0.3432
     27 C23       -12.2280  -19.4400   13.3100 C.2       1 U85        -0.0216
     28 N5        -12.0750  -18.3880   14.1100 N.2       1 U85        -0.3604
     29 C24       -12.7400  -17.3530   13.5890 C.2       1 U85         0.0972
     30 C25       -12.9050  -16.0810   14.0140 C.2       1 U85         0.1586
     31 N6        -12.3060  -15.7510   15.1600 N.pl3     1 U85        -0.2911
     32 N7        -13.6340  -15.1790   13.3240 N.2       1 U85        -0.2041
     33 C26       -14.2410  -15.5940   12.1240 C.2       1 U85         0.1621
     34 H1         -5.3611   -9.3107    5.8185 H         1 U85         0.0459
     35 H2         -5.0636  -10.8367    4.9188 H         1 U85         0.0459
     36 H3         -6.1836  -10.8258    6.3232 H         1 U85         0.0459
     37 H4         -8.2209   -8.5273    3.6505 H         1 U85         0.0459
     38 H5         -6.5386   -7.9645    3.9332 H         1 U85         0.0459
     39 H6         -7.6811   -8.1090    5.3119 H         1 U85         0.0459
     40 H7         -9.0817   -9.6889    3.0142 H         1 U85         0.0921
     41 H8        -10.3677  -11.5894    2.0430 H         1 U85         0.1544
     42 H9         -6.3644  -12.4261    4.8813 H         1 U85         0.0921
     43 H10        -7.6142  -14.3518    3.9491 H         1 U85         0.1544
     44 H11        -9.1193  -15.0100    1.9727 H         1 U85         0.0866
     45 H12       -10.5277  -13.9490    1.6302 H         1 U85         0.0866
     46 H13       -11.9746  -13.2410    3.5554 H         1 U85         0.0559
     47 H14       -13.0893  -14.0887    5.5645 H         1 U85         0.0600
     48 H15        -9.1207  -16.4248    3.8202 H         1 U85         0.0559
     49 H16       -10.2866  -17.3161    5.8124 H         1 U85         0.0600
     50 H17       -13.6715  -14.4412    7.1122 H         1 U85         0.0600
     51 H18       -14.9407  -15.1374    9.1033 H         1 U85         0.0559
     52 H19       -11.4774  -18.1298    7.1775 H         1 U85         0.0600
     53 H20       -12.7467  -18.8173    9.1829 H         1 U85         0.0559
     54 H21       -14.7338  -18.5120   10.4496 H         1 U85         0.0800
     55 H22       -15.6873  -16.9933   10.3443 H         1 U85         0.0800
     56 H23       -11.8074  -20.4321   13.4675 H         1 U85         0.0727
     57 H24       -12.3973  -14.7949   15.5322 H         1 U85         0.1984
     58 H25       -11.7523  -16.4524   15.6723 H         1 U85         0.1984
     59 H26       -14.8421  -14.9015   11.5365 H         1 U85         0.1720
@<TRIPOS>BOND
     1    1    2 1  
     2    2    3 1  
     3    2    4 2  
     4    4    5 1  
     5    4    7 1  
     6    5    6 2  
     7    6    9 1  
     8    7    8 2  
     9    8    9 1  
    10    9   10 1  
    11   10   11 1  
    12   11   12 ar 
    13   11   14 ar 
    14   12   13 ar 
    15   13   16 ar 
    16   14   15 ar 
    17   15   16 ar 
    18   16   17 1  
    19   17   18 ar 
    20   17   20 ar 
    21   18   19 ar 
    22   19   22 ar 
    23   20   21 ar 
    24   21   22 ar 
    25   22   23 1  
    26   23   24 1  
    27   24   25 1  
    28   24   33 1  
    29   25   26 2  
    30   25   29 1  
    31   26   27 1  
    32   27   28 2  
    33   28   29 1  
    34   29   30 2  
    35   30   31 1  
    36   30   32 1  
    37   32   33 2  
    38    1   34 1  
    39    1   35 1  
    40    1   36 1  
    41    3   37 1  
    42    3   38 1  
    43    3   39 1  
    44    5   40 1  
    45    6   41 1  
    46    7   42 1  
    47    8   43 1  
    48   10   44 1  
    49   10   45 1  
    50   12   46 1  
    51   13   47 1  
    52   14   48 1  
    53   15   49 1  
    54   18   50 1  
    55   19   51 1  
    56   20   52 1  
    57   21   53 1  
    58   23   54 1  
    59   23   55 1  
    60   27   56 1  
    61   31   57 1  
    62   31   58 1  
    63   33   59 1  
@<TRIPOS>SUBSTRUCTURE
     1 U85         1

