### 
### Created by X-TOOL on Mon Sep 10 21:13:14 2018
### 

@<TRIPOS>MOLECULE
4brx_ligand
   57    60     1     0     0
SMALL
GAST_HUCK


@<TRIPOS>ATOM
      1 CBC       -10.4060    3.0680   -1.1270 C.3       1 KGW         0.0482
      2 CBE        -9.4360    2.0920   -0.4360 C.3       1 KGW         0.0670
      3 OBG        -8.0290    2.3360   -0.8170 O.3       1 KGW        -0.3759
      4 CBF        -7.7180    2.2780   -2.1980 C.3       1 KGW         0.0670
      5 CBD        -8.5580    3.3080   -2.9820 C.3       1 KGW         0.0482
      6 NBB        -9.9410    3.5130   -2.4760 N.pl3     1 KGW        -0.3120
      7 CBA       -10.8530    4.3310   -3.2650 C.ar      1 KGW         0.0207
      8 CAY       -12.1740    4.5700   -2.8470 C.ar      1 KGW        -0.0237
      9 CAS       -13.0060    5.3980   -3.6230 C.ar      1 KGW         0.1055
     10 OAT       -14.2890    5.6360   -3.2880 O.3       1 KGW        -0.3277
     11 CAU       -14.5970    4.9820   -1.9540 C.3       1 KGW         0.0569
     12 CAX       -10.3880    4.9470   -4.4340 C.ar      1 KGW        -0.0638
     13 CAR       -11.2420    5.7570   -5.1890 C.ar      1 KGW        -0.0561
     14 CAL       -12.5480    5.9920   -4.7920 C.ar      1 KGW         0.0857
     15 NAH       -13.4230    6.7610   -5.4880 N.pl3     1 KGW        -0.2480
     16 C2        -13.1570    7.8440   -6.2600 C.ar      1 KGW         0.2043
     17 N3        -11.9210    8.3250   -6.4160 N.ar      1 KGW        -0.2102
     18 N1        -14.1820    8.4690   -6.8980 N.ar      1 KGW        -0.2397
     19 C6        -13.9550    9.5430   -7.6620 C.ar      1 KGW         0.0728
     20 C4        -11.6920    9.4010   -7.2020 C.ar      1 KGW         0.2100
     21 NAE       -10.4600    9.8600   -7.4290 N.pl3     1 KGW        -0.2339
     22 CAJ        -9.3200    9.3200   -6.9750 C.ar      1 KGW         0.0889
     23 CAQ        -9.2420    9.0360   -5.5990 C.ar      1 KGW        -0.0312
     24 CAW        -8.0780    8.5050   -5.0780 C.ar      1 KGW        -0.0665
     25 CAZ        -6.9850    8.2550   -5.9300 C.ar      1 KGW        -0.0672
     26 CAV        -7.0470    8.5680   -7.2950 C.ar      1 KGW        -0.0508
     27 CAP        -8.2180    9.1210   -7.8260 C.ar      1 KGW         0.0737
     28 CAO        -8.2440    9.4030   -9.3440 C.2       1 KGW         0.1984
     29 OAI        -9.0550   10.2010   -9.8520 O.2       1 KGW        -0.3911
     30 NAN        -7.4290    8.6130  -10.0680 N.am      1 KGW        -0.2912
     31 NAQ       -12.7040   10.0120   -7.8160 N.ar      1 KGW        -0.2387
     32 CAM        -7.3660    8.8450  -11.5430 C.3       1 KGW         0.0188
     33 H1        -10.5213    3.9558   -0.4878 H         1 KGW         0.0532
     34 H2        -11.3798    2.5693   -1.2411 H         1 KGW         0.0532
     35 H3         -9.7062    1.0642   -0.7200 H         1 KGW         0.0579
     36 H4         -9.5328    2.2089    0.6535 H         1 KGW         0.0579
     37 H5         -7.9364    1.2686   -2.5767 H         1 KGW         0.0579
     38 H6         -6.6497    2.4992   -2.3386 H         1 KGW         0.0579
     39 H7         -8.6244    2.9689   -4.0263 H         1 KGW         0.0532
     40 H8         -8.0345    4.2747   -2.9429 H         1 KGW         0.0532
     41 H9        -12.5484    4.1202   -1.9346 H         1 KGW         0.0410
     42 H10       -15.6449    5.1778   -1.6829 H         1 KGW         0.0573
     43 H11       -13.9344    5.3973   -1.1804 H         1 KGW         0.0573
     44 H12       -14.4350    3.8968   -2.0316 H         1 KGW         0.0573
     45 H13        -9.3635    4.7954   -4.7542 H         1 KGW         0.0398
     46 H14       -10.8747    6.2098   -6.1028 H         1 KGW         0.0478
     47 H15       -14.4139    6.4879   -5.4217 H         1 KGW         0.2154
     48 H16       -14.7821   10.0371   -8.1588 H         1 KGW         0.1143
     49 H17       -10.3770   10.7085   -8.0070 H         1 KGW         0.2234
     50 H18       -10.0895    9.2325   -4.9523 H         1 KGW         0.0553
     51 H19        -8.0064    8.2821   -4.0196 H         1 KGW         0.0624
     52 H20        -6.0819    7.8138   -5.5241 H         1 KGW         0.0536
     53 H21        -6.1926    8.3827   -7.9359 H         1 KGW         0.0640
     54 H22        -6.8844    7.8955   -9.6337 H         1 KGW         0.1837
     55 H23        -6.6643    8.1298  -11.9970 H         1 KGW         0.0483
     56 H24        -7.0213    9.8711  -11.7384 H         1 KGW         0.0483
     57 H25        -8.3660    8.7047  -11.9793 H         1 KGW         0.0483
@<TRIPOS>BOND
     1    1    2 1  
     2    1    6 1  
     3    2    3 1  
     4    3    4 1  
     5    4    5 1  
     6    5    6 1  
     7    6    7 1  
     8    7    8 ar 
     9    7   12 ar 
    10    8    9 ar 
    11    9   10 1  
    12    9   14 ar 
    13   10   11 1  
    14   12   13 ar 
    15   13   14 ar 
    16   14   15 1  
    17   15   16 1  
    18   16   17 ar 
    19   16   18 ar 
    20   17   20 ar 
    21   18   19 ar 
    22   19   31 ar 
    23   20   21 1  
    24   20   31 ar 
    25   21   22 1  
    26   22   23 ar 
    27   22   27 ar 
    28   23   24 ar 
    29   24   25 ar 
    30   25   26 ar 
    31   26   27 ar 
    32   27   28 1  
    33   28   29 2  
    34   28   30 am 
    35   30   32 1  
    36    1   33 1  
    37    1   34 1  
    38    2   35 1  
    39    2   36 1  
    40    4   37 1  
    41    4   38 1  
    42    5   39 1  
    43    5   40 1  
    44    8   41 1  
    45   11   42 1  
    46   11   43 1  
    47   11   44 1  
    48   12   45 1  
    49   13   46 1  
    50   15   47 1  
    51   19   48 1  
    52   21   49 1  
    53   23   50 1  
    54   24   51 1  
    55   25   52 1  
    56   26   53 1  
    57   30   54 1  
    58   32   55 1  
    59   32   56 1  
    60   32   57 1  
@<TRIPOS>SUBSTRUCTURE
     1 KGW         1

