### 
### Created by X-TOOL on Mon Sep 10 21:13:12 2018
### 

@<TRIPOS>MOLECULE
4bs0_ligand
   16    17     1     0     0
SMALL
GAST_HUCK


@<TRIPOS>ATOM
      1 O21        22.9000   -2.6910  -18.3860 O.2       1 6NT         0.1770
      2 NO1        23.8030   -2.1460  -19.2090 N.2       1 6NT         0.3111
      3 O11        24.9800   -1.9180  -18.7730 O.2       1 6NT         0.1770
      4 C5         23.4390   -1.6670  -20.5130 C.ar      1 6NT         0.1918
      5 C6         24.3930   -0.9750  -21.2370 C.ar      1 6NT        -0.0290
      6 C7         24.0540   -0.4500  -22.4260 C.ar      1 6NT        -0.0439
      7 C7A        22.6840   -0.5410  -22.8580 C.ar      1 6NT         0.0807
      8 N1         22.0250   -0.1900  -24.0010 N.2       1 6NT        -0.1957
      9 C3A        21.7870   -1.2790  -22.0980 C.ar      1 6NT         0.1196
     10 C4         22.1280   -1.8600  -20.8720 C.ar      1 6NT         0.0118
     11 N3         20.5650   -1.2470  -22.7830 N.pl3     1 6NT        -0.1718
     12 N2         20.7440   -0.5990  -23.9130 N.2       1 6NT        -0.0740
     13 H1         25.3991   -0.8581  -20.8507 H         1 6NT         0.0604
     14 H2         24.7983    0.0332  -23.0486 H         1 6NT         0.0606
     15 H3         21.4222   -2.4117  -20.2617 H         1 6NT         0.0651
     16 H4         19.6793   -1.6599  -22.4575 H         1 6NT         0.2592
@<TRIPOS>BOND
     1    1    2 2  
     2    2    3 2  
     3    2    4 1  
     4    4    5 ar 
     5    4   10 ar 
     6    5    6 ar 
     7    6    7 ar 
     8    7    8 1  
     9    7    9 ar 
    10    8   12 2  
    11    9   10 ar 
    12    9   11 1  
    13   11   12 1  
    14    5   13 1  
    15    6   14 1  
    16   10   15 1  
    17   11   16 1  
@<TRIPOS>SUBSTRUCTURE
     1 6NT         1

