### 
### Created by X-TOOL on Mon Sep 10 21:13:13 2018
### 

@<TRIPOS>MOLECULE
4bs4_ligand
   36    38     1     0     0
SMALL
GAST_HUCK


@<TRIPOS>ATOM
      1 CAS       -38.1700  -11.0450    5.7030 C.3       1 A64        -0.0520
      2 CAP       -39.4980  -10.9430    7.8020 C.ar      1 A64        -0.0353
      3 CAO       -38.6960  -10.1090    8.5790 C.ar      1 A64        -0.0540
      4 CAN       -38.6250  -10.2950    9.9630 C.ar      1 A64        -0.0504
      5 CAL       -40.2130  -11.9680    8.4280 C.ar      1 A64        -0.0540
      6 CAM       -40.1600  -12.1560    9.8020 C.ar      1 A64        -0.0504
      7 CAK       -39.3250  -11.3300   10.5820 C.ar      1 A64         0.0249
      8 CAI       -39.3130  -11.5760   12.0380 C.2       1 A64         0.1400
      9 OAJ       -40.0750  -12.6350   12.4750 O.3       1 A64        -0.2367
     10 CAF       -40.1940  -12.9900   13.7870 C.ar      1 A64         0.1450
     11 CAA       -41.0260  -14.0130   14.2050 C.ar      1 A64        -0.0194
     12 CAB       -41.1250  -14.3250   15.5680 C.ar      1 A64        -0.0640
     13 CAC       -40.4060  -13.5970   16.5320 C.ar      1 A64        -0.0657
     14 CAD       -39.5770  -12.5420   16.1390 C.ar      1 A64        -0.0507
     15 CAE       -39.4800  -12.2050   14.8040 C.ar      1 A64         0.0592
     16 CAG       -38.5810  -11.1250   14.2900 C.2       1 A64         0.1105
     17 OAQ       -37.8650  -10.5000   15.0840 O.2       1 A64        -0.4164
     18 CAH       -38.5420  -10.8360   12.9210 C.2       1 A64         0.0087
     19 C1        -39.5640  -10.7880    6.3130 C.3       1 A64        -0.0106
     20 C         -40.0560   -9.4030    5.9410 C.3       1 A64        -0.0520
     21 H1        -38.2213  -10.9306    4.6102 H         1 A64         0.0256
     22 H2        -37.8443  -12.0663    5.9498 H         1 A64         0.0256
     23 H3        -37.4508  -10.3213    6.1140 H         1 A64         0.0256
     24 H4        -38.1265   -9.3150    8.1097 H         1 A64         0.0572
     25 H5        -38.0181   -9.6261   10.5624 H         1 A64         0.0649
     26 H6        -40.8232  -12.6317    7.8261 H         1 A64         0.0572
     27 H7        -40.7552  -12.9309   10.2713 H         1 A64         0.0649
     28 H8        -41.6020  -14.5739   13.4779 H         1 A64         0.0575
     29 H9        -41.7659  -15.1403   15.8836 H         1 A64         0.0628
     30 H10       -40.4944  -13.8539   17.5814 H         1 A64         0.0551
     31 H11       -39.0117  -11.9899   16.8811 H         1 A64         0.0640
     32 H12       -37.9077  -10.0320   12.5506 H         1 A64         0.0397
     33 H13       -40.2692  -11.5304    5.9111 H         1 A64         0.0468
     34 H14       -41.0494   -9.2358    6.3829 H         1 A64         0.0256
     35 H15       -40.1230   -9.3194    4.8462 H         1 A64         0.0256
     36 H16       -39.3527   -8.6489    6.3240 H         1 A64         0.0256
@<TRIPOS>BOND
     1   19    1 1  
     2    2    3 ar 
     3    2    5 ar 
     4    2   19 1  
     5    3    4 ar 
     6    4    7 ar 
     7    5    6 ar 
     8    6    7 ar 
     9    7    8 1  
    10    8    9 1  
    11    8   18 2  
    12    9   10 1  
    13   10   11 ar 
    14   10   15 ar 
    15   11   12 ar 
    16   12   13 ar 
    17   13   14 ar 
    18   14   15 ar 
    19   15   16 1  
    20   16   17 2  
    21   16   18 1  
    22   19   20 1  
    23    1   21 1  
    24    1   22 1  
    25    1   23 1  
    26    3   24 1  
    27    4   25 1  
    28    5   26 1  
    29    6   27 1  
    30   11   28 1  
    31   12   29 1  
    32   13   30 1  
    33   14   31 1  
    34   18   32 1  
    35   19   33 1  
    36   20   34 1  
    37   20   35 1  
    38   20   36 1  
@<TRIPOS>SUBSTRUCTURE
     1 A64         1

