### 
### Created by X-TOOL on Mon Sep 10 21:13:13 2018
### 

@<TRIPOS>MOLECULE
4bt9_ligand
  108   113     1     0     0
SMALL
GAST_HUCK


@<TRIPOS>ATOM
      1 N          77.7600   25.9090  -19.1310 N.4       1 PRO         0.2461
      2 CA         78.9090   25.0140  -18.9610 C.3       1 PRO         0.0671
      3 C          79.3680   24.9220  -17.5070 C.2       1 PRO         0.2293
      4 O          79.4710   25.9390  -16.8200 O.2       1 PRO        -0.3905
      5 CB         79.9950   25.6700  -19.8190 C.3       1 PRO         0.0127
      6 CG         79.5960   27.1030  -19.9100 C.3       1 PRO        -0.0053
      7 CD         78.0950   27.0850  -19.9520 C.3       1 PRO        -0.0313
      8 N          79.6650   23.7000  -17.0490 N.am      1 PRO        -0.2471
      9 CA         79.9770   23.4070  -15.6430 C.3       1 PRO         0.1339
     10 C          81.2860   24.0370  -15.1660 C.2       1 PRO         0.2039
     11 O          82.1160   24.4180  -15.9880 O.2       1 PRO        -0.3944
     12 CB         80.1040   21.8860  -15.6370 C.3       1 PRO        -0.0104
     13 CG         80.5270   21.5410  -17.0390 C.3       1 PRO        -0.0281
     14 CD         79.8000   22.5110  -17.9130 C.3       1 PRO         0.0371
     15 N          81.4650   24.1360  -13.8510 N.am      1 GLY        -0.2664
     16 CA         82.6910   24.6740  -13.2900 C.3       1 GLY         0.1203
     17 C          83.5550   23.6200  -12.6240 C.2       1 GLY         0.2032
     18 O          83.0520   22.5930  -12.1750 O.2       1 GLY        -0.3945
     19 N          84.8710   23.8670  -12.5590 N.am      1 PRO        -0.2501
     20 CA         85.7830   22.9040  -11.9300 C.3       1 PRO         0.1340
     21 C          85.4750   22.7670  -10.4380 C.2       1 PRO         0.2066
     22 O          84.9320   23.7050   -9.8540 O.2       1 PRO        -0.3942
     23 CB         87.1640   23.5330  -12.1430 C.3       1 PRO        -0.0104
     24 CG         86.8960   25.0000  -12.3550 C.3       1 PRO        -0.0281
     25 CD         85.5550   25.0990  -12.9940 C.3       1 PRO         0.0369
     26 N          85.7910   21.6040   -9.8400 N.am      1 PRO        -0.2498
     27 CA         85.4510   21.3210   -8.4360 C.3       1 PRO         0.1338
     28 C          85.9630   22.3680   -7.4420 C.2       1 PRO         0.2039
     29 O          87.0960   22.8450   -7.5560 O.2       1 PRO        -0.3944
     30 CB         86.1440   19.9780   -8.1800 C.3       1 PRO        -0.0104
     31 CG         86.1620   19.3140   -9.5360 C.3       1 PRO        -0.0281
     32 CD         86.4290   20.4460  -10.4970 C.3       1 PRO         0.0369
     33 N          85.1240   22.7270   -6.4800 N.am      1 GLY        -0.2664
     34 CA         85.5570   23.5900   -5.3960 C.3       1 GLY         0.1203
     35 C          86.0810   22.7240   -4.2700 C.2       1 GLY         0.2032
     36 O          85.9590   21.5010   -4.3340 O.2       1 GLY        -0.3945
     37 N          86.6770   23.3480   -3.2400 N.am      1 PRO        -0.2501
     38 CA         87.1810   22.5860   -2.0890 C.3       1 PRO         0.1340
     39 C          86.0640   21.7900   -1.4080 C.2       1 PRO         0.2066
     40 O          84.9220   22.2520   -1.3570 O.2       1 PRO        -0.3942
     41 CB         87.7060   23.6820   -1.1500 C.3       1 PRO        -0.0104
     42 CG         88.0770   24.8230   -2.0750 C.3       1 PRO        -0.0281
     43 CD         87.0070   24.7850   -3.1470 C.3       1 PRO         0.0369
     44 N          86.3860   20.5860   -0.9080 N.am      1 PRO        -0.2498
     45 CA         85.3830   19.7740   -0.2110 C.3       1 PRO         0.1337
     46 C          85.1880   20.2450    1.2260 C.2       1 PRO         0.2033
     47 O          85.8130   21.2270    1.6370 O.2       1 PRO        -0.3944
     48 CB         85.9970   18.3700   -0.2300 C.3       1 PRO        -0.0104
     49 CG         87.4810   18.6000   -0.3120 C.3       1 PRO        -0.0281
     50 CD         87.6550   19.8610   -1.1210 C.3       1 PRO         0.0369
     51 N          84.3270   19.5640    1.9760 N.am      1 GLY        -0.2722
     52 CA         84.1630   19.8610    3.3900 C.3       1 GLY         0.0833
     53 C          82.8580   20.5440    3.7580 C.2       1 GLY         0.0570
     54 O          81.7740   20.0720    3.4100 O.co2     1 GLY        -0.5669
     55 OXT        82.8470   21.5790    4.4300 O.co2     1 GLY        -0.5669
     56 H1         77.4540   26.2222  -18.2231 H         1 PRO         0.2035
     57 H2         77.0145   25.4002  -19.5798 H         1 PRO         0.2035
     58 H3         78.6707   24.0053  -19.3294 H         1 PRO         0.1099
     59 H4         80.0274   25.2128  -20.8189 H         1 PRO         0.0347
     60 H5         80.9798   25.5720  -19.3389 H         1 PRO         0.0347
     61 H6         80.0031   27.5607  -20.8237 H         1 PRO         0.0320
     62 H7         79.9517   27.6602  -19.0309 H         1 PRO         0.0320
     63 H8         77.6754   28.0043  -19.5174 H         1 PRO         0.0814
     64 H9         77.7289   26.9662  -20.9824 H         1 PRO         0.0814
     65 H10        79.1577   23.7410  -14.9895 H         1 PRO         0.0802
     66 H11        79.1397   21.4157  -15.3944 H         1 PRO         0.0313
     67 H12        80.8633   21.5615  -14.9103 H         1 PRO         0.0313
     68 H13        80.2403   20.5082  -17.2861 H         1 PRO         0.0287
     69 H14        81.6148   21.6572  -17.1541 H         1 PRO         0.0287
     70 H15        80.3831   22.7429  -18.8165 H         1 PRO         0.0524
     71 H16        78.8140   22.1193  -18.2034 H         1 PRO         0.0524
     72 H17        80.7380   23.8327  -13.2350 H         1 GLY         0.1881
     73 H18        82.4283   25.4354  -12.5408 H         1 GLY         0.0763
     74 H19        83.2708   25.1410  -14.0997 H         1 GLY         0.0763
     75 H20        85.7166   21.9188  -12.4147 H         1 PRO         0.0802
     76 H21        87.6548   23.0982  -13.0262 H         1 PRO         0.0313
     77 H22        87.7991   23.3801  -11.2580 H         1 PRO         0.0313
     78 H23        87.6629   25.4348  -13.0128 H         1 PRO         0.0287
     79 H24        86.8970   25.5293  -11.3907 H         1 PRO         0.0287
     80 H25        85.0174   25.9918  -12.6420 H         1 PRO         0.0524
     81 H26        85.6439   25.1327  -14.0899 H         1 PRO         0.0524
     82 H27        84.3607   21.2297   -8.3226 H         1 PRO         0.0802
     83 H28        85.5748   19.3755   -7.4568 H         1 PRO         0.0313
     84 H29        87.1669   20.1306   -7.8055 H         1 PRO         0.0313
     85 H30        85.1933   18.8395   -9.7513 H         1 PRO         0.0287
     86 H31        86.9603   18.5592   -9.5905 H         1 PRO         0.0287
     87 H32        87.5094   20.6098  -10.6230 H         1 PRO         0.0524
     88 H33        85.9715   20.2473  -11.4774 H         1 PRO         0.0524
     89 H34        84.1797   22.3986   -6.5015 H         1 GLY         0.1881
     90 H35        84.7074   24.1898   -5.0377 H         1 GLY         0.0763
     91 H36        86.3546   24.2592   -5.7509 H         1 GLY         0.0763
     92 H37        87.9874   21.9021   -2.3924 H         1 PRO         0.0802
     93 H38        88.5871   23.3293   -0.5939 H         1 PRO         0.0313
     94 H39        86.9253   23.9939   -0.4406 H         1 PRO         0.0313
     95 H40        89.0742   24.6647   -2.5115 H         1 PRO         0.0287
     96 H41        88.0598   25.7832   -1.5386 H         1 PRO         0.0287
     97 H42        86.1273   25.3737   -2.8478 H         1 PRO         0.0524
     98 H43        87.3937   25.1642   -4.1044 H         1 PRO         0.0524
     99 H44        84.4195   19.7955   -0.7412 H         1 PRO         0.0802
    100 H45        85.6438   17.8045   -1.1049 H         1 PRO         0.0313
    101 H46        85.7401   17.8224    0.6887 H         1 PRO         0.0313
    102 H47        87.9733   17.7528   -0.8119 H         1 PRO         0.0287
    103 H48        87.9053   18.7287    0.6947 H         1 PRO         0.0287
    104 H49        88.5096   20.4484   -0.7543 H         1 PRO         0.0524
    105 H50        87.8004   19.6277   -2.1861 H         1 PRO         0.0524
    106 H51        83.7829   18.8351    1.5606 H         1 GLY         0.1873
    107 H52        84.9899   20.5176    3.6983 H         1 GLY         0.0689
    108 H53        84.2202   18.9136    3.9460 H         1 GLY         0.0689
@<TRIPOS>BOND
     1    1    2 1  
     2    1    7 1  
     3    2    3 1  
     4    2    5 1  
     5    3    4 2  
     6    3    8 am 
     7    5    6 1  
     8    6    7 1  
     9    8    9 1  
    10    8   14 1  
    11    9   10 1  
    12    9   12 1  
    13   10   11 2  
    14   10   15 am 
    15   12   13 1  
    16   13   14 1  
    17   15   16 1  
    18   16   17 1  
    19   17   18 2  
    20   17   19 am 
    21   19   20 1  
    22   19   25 1  
    23   20   21 1  
    24   20   23 1  
    25   21   22 2  
    26   21   26 am 
    27   23   24 1  
    28   24   25 1  
    29   26   27 1  
    30   26   32 1  
    31   27   28 1  
    32   27   30 1  
    33   28   29 2  
    34   28   33 am 
    35   30   31 1  
    36   31   32 1  
    37   33   34 1  
    38   34   35 1  
    39   35   36 2  
    40   35   37 am 
    41   37   38 1  
    42   37   43 1  
    43   38   39 1  
    44   38   41 1  
    45   39   40 2  
    46   39   44 am 
    47   41   42 1  
    48   42   43 1  
    49   44   45 1  
    50   44   50 1  
    51   45   46 1  
    52   45   48 1  
    53   46   47 2  
    54   46   51 am 
    55   48   49 1  
    56   49   50 1  
    57   51   52 1  
    58   52   53 1  
    59   53   54 ar 
    60   53   55 ar 
    61    1   56 1  
    62    1   57 1  
    63    2   58 1  
    64    5   59 1  
    65    5   60 1  
    66    6   61 1  
    67    6   62 1  
    68    7   63 1  
    69    7   64 1  
    70    9   65 1  
    71   12   66 1  
    72   12   67 1  
    73   13   68 1  
    74   13   69 1  
    75   14   70 1  
    76   14   71 1  
    77   15   72 1  
    78   16   73 1  
    79   16   74 1  
    80   20   75 1  
    81   23   76 1  
    82   23   77 1  
    83   24   78 1  
    84   24   79 1  
    85   25   80 1  
    86   25   81 1  
    87   27   82 1  
    88   30   83 1  
    89   30   84 1  
    90   31   85 1  
    91   31   86 1  
    92   32   87 1  
    93   32   88 1  
    94   33   89 1  
    95   34   90 1  
    96   34   91 1  
    97   38   92 1  
    98   41   93 1  
    99   41   94 1  
   100   42   95 1  
   101   42   96 1  
   102   43   97 1  
   103   43   98 1  
   104   45   99 1  
   105   48  100 1  
   106   48  101 1  
   107   49  102 1  
   108   49  103 1  
   109   50  104 1  
   110   50  105 1  
   111   51  106 1  
   112   52  107 1  
   113   52  108 1  
@<TRIPOS>SUBSTRUCTURE
     1 PRO         1

