### 
### Created by X-TOOL on Mon Sep 10 21:13:13 2018
### 

@<TRIPOS>MOLECULE
4btb_ligand
  129   137     1     0     0
SMALL
GAST_HUCK


@<TRIPOS>ATOM
      1 N          84.5970   53.8960   59.5350 N.4       1 PRO         0.2461
      2 CA         83.8740   54.5350   58.4350 C.3       1 PRO         0.0671
      3 C          82.7600   55.4210   58.9910 C.2       1 PRO         0.2293
      4 O          82.4330   55.3060   60.1750 O.2       1 PRO        -0.3905
      5 CB         83.2900   53.3370   57.6850 C.3       1 PRO         0.0127
      6 CG         83.0150   52.3480   58.7600 C.3       1 PRO        -0.0053
      7 CD         84.0810   52.5420   59.8110 C.3       1 PRO        -0.0313
      8 N          82.1820   56.2990   58.1540 N.am      1 PRO        -0.2471
      9 CA         81.1050   57.1690   58.6320 C.3       1 PRO         0.1341
     10 C          79.8540   56.3500   58.8830 C.2       1 PRO         0.2066
     11 O          79.8550   55.1560   58.5870 O.2       1 PRO        -0.3942
     12 CB         80.8640   58.0910   57.4360 C.3       1 PRO        -0.0104
     13 CG         81.2410   57.2620   56.2640 C.3       1 PRO        -0.0281
     14 CD         82.4400   56.4960   56.7160 C.3       1 PRO         0.0371
     15 N          78.7930   56.9760   59.4170 N.am      1 PRO        -0.2498
     16 CA         77.5250   56.2460   59.4450 C.3       1 PRO         0.1340
     17 C          77.0200   56.0380   58.0290 C.2       1 PRO         0.2066
     18 O          77.5320   56.6700   57.1040 O.2       1 PRO        -0.3942
     19 CB         76.5810   57.1980   60.1980 C.3       1 PRO        -0.0104
     20 CG         77.2230   58.5420   60.1030 C.3       1 PRO        -0.0281
     21 CD         78.6950   58.2880   60.0790 C.3       1 PRO         0.0369
     22 N          76.0330   55.1470   57.8570 N.am      1 PRO        -0.2498
     23 CA         75.3490   55.0410   56.5640 C.3       1 PRO         0.1340
     24 C          74.7000   56.3710   56.2010 C.2       1 PRO         0.2066
     25 O          74.3430   57.1290   57.0970 O.2       1 PRO        -0.3942
     26 CB         74.2620   53.9890   56.8300 C.3       1 PRO        -0.0104
     27 CG         74.8200   53.1490   57.9590 C.3       1 PRO        -0.0281
     28 CD         75.5960   54.1140   58.8170 C.3       1 PRO         0.0369
     29 N          74.5320   56.6480   54.8980 N.am      1 PRO        -0.2498
     30 CA         73.8860   57.8800   54.4280 C.3       1 PRO         0.1340
     31 C          72.4820   58.0780   55.0040 C.2       1 PRO         0.2066
     32 O          71.8850   57.1070   55.4730 O.2       1 PRO        -0.3942
     33 CB         73.8090   57.6780   52.9060 C.3       1 PRO        -0.0104
     34 CG         74.0420   56.2080   52.6820 C.3       1 PRO        -0.0281
     35 CD         74.9490   55.7820   53.7820 C.3       1 PRO         0.0369
     36 N          71.9680   59.3240   54.9790 N.am      1 PRO        -0.2498
     37 CA         70.6210   59.6280   55.4770 C.3       1 PRO         0.1340
     38 C          69.5730   58.6710   54.9400 C.2       1 PRO         0.2066
     39 O          69.4440   58.5190   53.7290 O.2       1 PRO        -0.3942
     40 CB         70.3740   61.0410   54.9600 C.3       1 PRO        -0.0104
     41 CG         71.7390   61.6570   54.9230 C.3       1 PRO        -0.0281
     42 CD         72.6800   60.5400   54.5430 C.3       1 PRO         0.0369
     43 N          68.8520   57.9950   55.8420 N.am      1 PRO        -0.2498
     44 CA         67.8080   57.0860   55.3810 C.3       1 PRO         0.1340
     45 C          66.4910   57.8420   55.2150 C.2       1 PRO         0.2066
     46 O          66.3040   58.9150   55.7940 O.2       1 PRO        -0.3942
     47 CB         67.7160   56.0750   56.5250 C.3       1 PRO        -0.0104
     48 CG         68.0030   56.9050   57.7460 C.3       1 PRO        -0.0281
     49 CD         69.0400   57.9290   57.3040 C.3       1 PRO         0.0369
     50 N          65.5720   57.2750   54.4300 N.am      1 PRO        -0.2498
     51 CA         64.2450   57.8650   54.2900 C.3       1 PRO         0.1339
     52 C          63.4790   57.7420   55.6000 C.2       1 PRO         0.2060
     53 O          63.4140   56.6460   56.1630 O.2       1 PRO        -0.3942
     54 CB         63.6030   56.9940   53.2060 C.3       1 PRO        -0.0104
     55 CG         64.2840   55.6870   53.3150 C.3       1 PRO        -0.0281
     56 CD         65.7000   56.0070   53.6910 C.3       1 PRO         0.0369
     57 N          62.9280   58.8600   56.1040 N.am      1 PRO        -0.2556
     58 CA         62.1260   58.7910   57.3280 C.3       1 PRO         0.0972
     59 C          60.8930   57.9320   57.0890 C.2       1 PRO         0.0603
     60 O          60.4170   57.8610   55.9520 O.co2     1 PRO        -0.5666
     61 CB         61.7060   60.2490   57.5610 C.3       1 PRO        -0.0159
     62 CG         62.7080   61.0570   56.8370 C.3       1 PRO        -0.0288
     63 CD         63.1310   60.2440   55.6490 C.3       1 PRO         0.0362
     64 OXT        60.3530   57.3050   58.0060 O.co2     1 PRO        -0.5666
     65 H1         84.4954   54.4599   60.3643 H         1 PRO         0.2035
     66 H2         85.5727   53.8305   59.2906 H         1 PRO         0.2035
     67 H3         84.5445   55.1266   57.7943 H         1 PRO         0.1099
     68 H4         84.0142   52.9371   56.9601 H         1 PRO         0.0347
     69 H5         82.3633   53.6155   57.1619 H         1 PRO         0.0347
     70 H6         83.0625   51.3260   58.3561 H         1 PRO         0.0320
     71 H7         82.0194   52.5254   59.1927 H         1 PRO         0.0320
     72 H8         83.6512   52.4839   60.8219 H         1 PRO         0.0814
     73 H9         84.8767   51.7896   59.7070 H         1 PRO         0.0814
     74 H10        81.3945   57.7261   59.5352 H         1 PRO         0.0802
     75 H11        81.4967   58.9886   57.5001 H         1 PRO         0.0313
     76 H12        79.8071   58.3906   57.3796 H         1 PRO         0.0313
     77 H13        81.4889   57.8983   55.4016 H         1 PRO         0.0287
     78 H14        80.4231   56.5785   55.9923 H         1 PRO         0.0287
     79 H15        82.5145   55.5320   56.1916 H         1 PRO         0.0524
     80 H16        83.3623   57.0734   56.5548 H         1 PRO         0.0524
     81 H17        77.6244   55.2802   59.9620 H         1 PRO         0.0802
     82 H18        76.4822   56.8912   61.2497 H         1 PRO         0.0313
     83 H19        75.5880   57.2106   59.7249 H         1 PRO         0.0313
     84 H20        76.9545   59.1574   60.9743 H         1 PRO         0.0287
     85 H21        76.9073   59.0533   59.1816 H         1 PRO         0.0287
     86 H22        79.2206   59.0627   59.5015 H         1 PRO         0.0524
     87 H23        79.1062   58.2483   61.0985 H         1 PRO         0.0524
     88 H24        76.0369   54.7223   55.7670 H         1 PRO         0.0802
     89 H25        74.0890   53.3730   55.9352 H         1 PRO         0.0313
     90 H26        73.3200   54.4702   57.1316 H         1 PRO         0.0313
     91 H27        75.4817   52.3633   57.5656 H         1 PRO         0.0287
     92 H28        74.0055   52.6873   58.5364 H         1 PRO         0.0287
     93 H29        74.9559   54.5484   59.5990 H         1 PRO         0.0524
     94 H30        76.4604   53.6190   59.2837 H         1 PRO         0.0524
     95 H31        74.5031   58.7554   54.6784 H         1 PRO         0.0802
     96 H32        74.5847   58.2714   52.3999 H         1 PRO         0.0313
     97 H33        72.8183   57.9718   52.5290 H         1 PRO         0.0313
     98 H34        74.5160   56.0376   51.7041 H         1 PRO         0.0287
     99 H35        73.0920   55.6556   52.7303 H         1 PRO         0.0287
    100 H36        74.8028   54.7199   54.0279 H         1 PRO         0.0524
    101 H37        76.0025   55.9555   53.5173 H         1 PRO         0.0524
    102 H38        70.6010   59.6026   56.5765 H         1 PRO         0.0802
    103 H39        69.7127   61.5966   55.6411 H         1 PRO         0.0313
    104 H40        69.9284   61.0172   53.9546 H         1 PRO         0.0313
    105 H41        72.0039   62.0625   55.9106 H         1 PRO         0.0287
    106 H42        71.7766   62.4618   54.1741 H         1 PRO         0.0287
    107 H43        72.8539   60.5253   53.4569 H         1 PRO         0.0524
    108 H44        73.6418   60.6413   55.0671 H         1 PRO         0.0524
    109 H45        68.0837   56.5984   54.4343 H         1 PRO         0.0802
    110 H46        68.4639   55.2771   56.4066 H         1 PRO         0.0313
    111 H47        66.7111   55.6308   56.5781 H         1 PRO         0.0313
    112 H48        68.4039   56.2753   58.5539 H         1 PRO         0.0287
    113 H49        67.0886   57.4084   58.0929 H         1 PRO         0.0287
    114 H50        68.8509   58.9073   57.7700 H         1 PRO         0.0524
    115 H51        70.0569   57.5934   57.5556 H         1 PRO         0.0524
    116 H52        64.2995   58.9194   53.9815 H         1 PRO         0.0802
    117 H53        63.7652   57.4329   52.2105 H         1 PRO         0.0313
    118 H54        62.5236   56.8841   53.3869 H         1 PRO         0.0313
    119 H55        64.2521   55.1547   52.3529 H         1 PRO         0.0287
    120 H56        63.8096   55.0693   54.0918 H         1 PRO         0.0287
    121 H57        66.1264   55.2193   54.3295 H         1 PRO         0.0524
    122 H58        66.3271   56.1332   52.7961 H         1 PRO         0.0524
    123 H59        62.7092   58.3968   58.1733 H         1 PRO         0.0728
    124 H60        61.7194   60.4882   58.6346 H         1 PRO         0.0306
    125 H61        60.6989   60.4302   57.1575 H         1 PRO         0.0306
    126 H62        63.5727   61.2609   57.4856 H         1 PRO         0.0286
    127 H63        62.2639   62.0081   56.5082 H         1 PRO         0.0286
    128 H64        62.5039   60.4681   54.7735 H         1 PRO         0.0524
    129 H65        64.1867   60.4274   55.4005 H         1 PRO         0.0524
@<TRIPOS>BOND
     1    1    2 1  
     2    1    7 1  
     3    2    3 1  
     4    2    5 1  
     5    3    4 2  
     6    3    8 am 
     7    5    6 1  
     8    6    7 1  
     9    8    9 1  
    10    8   14 1  
    11    9   10 1  
    12    9   12 1  
    13   10   11 2  
    14   10   15 am 
    15   12   13 1  
    16   13   14 1  
    17   15   16 1  
    18   15   21 1  
    19   16   17 1  
    20   16   19 1  
    21   17   18 2  
    22   17   22 am 
    23   19   20 1  
    24   20   21 1  
    25   22   23 1  
    26   22   28 1  
    27   23   24 1  
    28   23   26 1  
    29   24   25 2  
    30   24   29 am 
    31   26   27 1  
    32   27   28 1  
    33   29   30 1  
    34   29   35 1  
    35   30   31 1  
    36   30   33 1  
    37   31   32 2  
    38   31   36 am 
    39   33   34 1  
    40   34   35 1  
    41   36   37 1  
    42   36   42 1  
    43   37   38 1  
    44   37   40 1  
    45   38   39 2  
    46   38   43 am 
    47   40   41 1  
    48   41   42 1  
    49   43   44 1  
    50   43   49 1  
    51   44   45 1  
    52   44   47 1  
    53   45   46 2  
    54   45   50 am 
    55   47   48 1  
    56   48   49 1  
    57   50   51 1  
    58   50   56 1  
    59   51   52 1  
    60   51   54 1  
    61   52   53 2  
    62   52   57 am 
    63   54   55 1  
    64   55   56 1  
    65   57   58 1  
    66   57   63 1  
    67   58   59 1  
    68   58   61 1  
    69   59   60 ar 
    70   59   64 ar 
    71   61   62 1  
    72   62   63 1  
    73    1   65 1  
    74    1   66 1  
    75    2   67 1  
    76    5   68 1  
    77    5   69 1  
    78    6   70 1  
    79    6   71 1  
    80    7   72 1  
    81    7   73 1  
    82    9   74 1  
    83   12   75 1  
    84   12   76 1  
    85   13   77 1  
    86   13   78 1  
    87   14   79 1  
    88   14   80 1  
    89   16   81 1  
    90   19   82 1  
    91   19   83 1  
    92   20   84 1  
    93   20   85 1  
    94   21   86 1  
    95   21   87 1  
    96   23   88 1  
    97   26   89 1  
    98   26   90 1  
    99   27   91 1  
   100   27   92 1  
   101   28   93 1  
   102   28   94 1  
   103   30   95 1  
   104   33   96 1  
   105   33   97 1  
   106   34   98 1  
   107   34   99 1  
   108   35  100 1  
   109   35  101 1  
   110   37  102 1  
   111   40  103 1  
   112   40  104 1  
   113   41  105 1  
   114   41  106 1  
   115   42  107 1  
   116   42  108 1  
   117   44  109 1  
   118   47  110 1  
   119   47  111 1  
   120   48  112 1  
   121   48  113 1  
   122   49  114 1  
   123   49  115 1  
   124   51  116 1  
   125   54  117 1  
   126   54  118 1  
   127   55  119 1  
   128   55  120 1  
   129   56  121 1  
   130   56  122 1  
   131   58  123 1  
   132   61  124 1  
   133   61  125 1  
   134   62  126 1  
   135   62  127 1  
   136   63  128 1  
   137   63  129 1  
@<TRIPOS>SUBSTRUCTURE
     1 PRO         1

