### 
### Created by X-TOOL on Mon Sep 10 21:13:13 2018
### 

@<TRIPOS>MOLECULE
4bti_ligand
   75    78     1     0     0
SMALL
GAST_HUCK


@<TRIPOS>ATOM
      1 C36        31.6740  -24.1750  -41.4650 C.2       1 7R9        -0.0542
      2 C35        30.5710  -23.4020  -41.5740 C.2       1 7R9        -0.0524
      3 C34        30.7990  -22.0940  -41.4080 C.2       1 7R9         0.1023
      4 CL         29.6070  -20.8510  -41.4840 Cl        1 7R9        -0.0499
      5 S33        32.4200  -21.8450  -41.1130 S.3       1 7R9        -0.0137
      6 C32        32.7920  -23.4910  -41.1990 C.2       1 7R9         0.0995
      7 C31        34.1970  -24.0580  -41.0310 C.2       1 7R9         0.2077
      8 O42        35.1650  -23.3020  -41.0940 O.2       1 7R9        -0.3910
      9 N30        34.3160  -25.3710  -40.8070 N.am      1 7R9        -0.2836
     10 C22        35.6540  -25.9920  -40.6820 C.3       1 7R9         0.0666
     11 C19        36.1370  -26.1060  -39.2240 C.3       1 7R9         0.1460
     12 C20        36.0960  -24.7410  -38.5320 C.2       1 7R9         0.2024
     13 O41        35.0740  -24.3410  -37.9750 O.2       1 7R9        -0.3947
     14 N21        37.1800  -23.9670  -38.5460 N.am      1 7R9        -0.2660
     15 C23        38.4560  -24.3290  -39.1820 C.3       1 7R9         0.0767
     16 C26        37.2580  -22.6360  -37.9230 C.3       1 7R9         0.0393
     17 C25        38.6810  -22.1690  -38.2310 C.3       1 7R9         0.0126
     18 C24        39.4540  -23.4690  -38.4190 C.3       1 7R9         0.0013
     19 N27        40.6590  -23.2470  -39.2370 N.4       1 7R9         0.2345
     20 C29        41.4430  -22.1190  -38.7100 C.3       1 7R9        -0.0430
     21 C28        41.5040  -24.4560  -39.2310 C.3       1 7R9        -0.0430
     22 N18        35.2790  -27.0710  -38.5200 N.am      1 7R9        -0.2252
     23 S17        36.1160  -28.0130  -37.4920 S.o2      1 7R9         0.0649
     24 O38        35.1510  -28.9650  -36.8520 O.2       1 7R9        -0.1522
     25 O39        37.1540  -28.7870  -38.2410 O.2       1 7R9        -0.1522
     26 C9         36.9040  -27.0130  -36.2840 C.ar      1 7R9         0.1239
     27 C8         36.1660  -26.3960  -35.2740 C.ar      1 7R9         0.1451
     28 O13        34.8090  -26.5620  -35.2290 O.3       1 7R9        -0.2615
     29 C14        34.3360  -27.4150  -34.1780 C.3       1 7R9         0.3639
     30 F16        33.0070  -27.3320  -34.1820 F         1 7R9        -0.1742
     31 F15        34.5880  -28.7120  -34.4080 F         1 7R9        -0.1742
     32 C10        38.2860  -26.8330  -36.3500 C.ar      1 7R9        -0.0595
     33 C11        38.9380  -26.0420  -35.4050 C.ar      1 7R9        -0.0850
     34 C12        38.2030  -25.4240  -34.3970 C.ar      1 7R9        -0.0489
     35 C7         36.8230  -25.5990  -34.3320 C.ar      1 7R9         0.1013
     36 N3         36.1120  -24.9580  -33.3060 N.am      1 7R9        -0.2225
     37 C2         35.3110  -23.7610  -33.6530 C.3       1 7R9         0.0536
     38 C1         35.1470  -22.8500  -32.4480 C.3       1 7R9        -0.0257
     39 C6         34.5120  -23.6350  -31.3100 C.3       1 7R9        -0.0334
     40 C5         35.4270  -24.7750  -30.8400 C.3       1 7R9         0.0429
     41 C4         36.1730  -25.4510  -31.9920 C.2       1 7R9         0.2033
     42 O40        36.8550  -26.4410  -31.7450 O.2       1 7R9        -0.3861
     43 H1         31.6543  -25.2574  -41.5831 H         1 7R9         0.0517
     44 H2         29.5818  -23.8085  -41.7793 H         1 7R9         0.0447
     45 H3         33.4959  -25.9370  -40.7234 H         1 7R9         0.1839
     46 H4         36.3766  -25.3810  -41.2427 H         1 7R9         0.0563
     47 H5         35.6126  -27.0018  -41.1163 H         1 7R9         0.0563
     48 H6         37.1736  -26.4738  -39.2162 H         1 7R9         0.0774
     49 H7         38.4522  -24.0793  -40.2533 H         1 7R9         0.0578
     50 H8         38.6745  -25.3997  -39.0558 H         1 7R9         0.0578
     51 H9         37.0941  -22.7018  -36.8373 H         1 7R9         0.0524
     52 H10        36.5177  -21.9530  -38.3649 H         1 7R9         0.0524
     53 H11        39.0923  -21.5854  -37.3942 H         1 7R9         0.0340
     54 H12        38.7050  -21.5621  -39.1481 H         1 7R9         0.0340
     55 H13        39.7296  -23.9207  -37.4546 H         1 7R9         0.0872
     56 H14        40.3784  -23.0417  -40.1831 H         1 7R9         0.2031
     57 H15        42.3367  -21.9704  -39.3339 H         1 7R9         0.0778
     58 H16        41.7496  -22.3368  -37.6763 H         1 7R9         0.0778
     59 H17        40.8289  -21.2065  -38.7258 H         1 7R9         0.0778
     60 H18        40.9285  -25.3075  -39.6233 H         1 7R9         0.0778
     61 H19        41.8253  -24.6737  -38.2018 H         1 7R9         0.0778
     62 H20        42.3882  -24.2885  -39.8635 H         1 7R9         0.0778
     63 H21        34.2910  -27.1402  -38.6581 H         1 7R9         0.1705
     64 H22        34.7636  -27.1018  -33.2141 H         1 7R9         0.1414
     65 H23        38.8553  -27.3102  -37.1395 H         1 7R9         0.0479
     66 H24        40.0126  -25.9088  -35.4549 H         1 7R9         0.0485
     67 H25        38.7055  -24.8058  -33.6619 H         1 7R9         0.0466
     68 H26        34.3175  -24.0808  -34.0004 H         1 7R9         0.0581
     69 H27        35.8198  -23.2077  -34.4561 H         1 7R9         0.0581
     70 H28        34.5009  -22.0005  -32.7143 H         1 7R9         0.0291
     71 H29        36.1323  -22.4765  -32.1323 H         1 7R9         0.0291
     72 H30        33.5586  -24.0605  -31.6564 H         1 7R9         0.0290
     73 H31        34.3249  -22.9547  -30.4661 H         1 7R9         0.0290
     74 H32        34.8126  -25.5303  -30.3282 H         1 7R9         0.0507
     75 H33        36.1658  -24.3648  -30.1358 H         1 7R9         0.0507
@<TRIPOS>BOND
     1    1    2 1  
     2    1    6 2  
     3    2    3 2  
     4    3    4 1  
     5    3    5 1  
     6    5    6 1  
     7    6    7 1  
     8    7    8 2  
     9    7    9 am 
    10    9   10 1  
    11   10   11 1  
    12   11   12 1  
    13   11   22 1  
    14   12   13 2  
    15   12   14 am 
    16   14   15 1  
    17   14   16 1  
    18   15   18 1  
    19   16   17 1  
    20   17   18 1  
    21   18   19 1  
    22   19   20 1  
    23   19   21 1  
    24   22   23 am 
    25   23   24 2  
    26   23   25 2  
    27   23   26 1  
    28   26   27 ar 
    29   26   32 ar 
    30   27   28 1  
    31   27   35 ar 
    32   28   29 1  
    33   29   30 1  
    34   29   31 1  
    35   32   33 ar 
    36   33   34 ar 
    37   34   35 ar 
    38   35   36 1  
    39   36   37 1  
    40   36   41 am 
    41   37   38 1  
    42   38   39 1  
    43   39   40 1  
    44   40   41 1  
    45   41   42 2  
    46    1   43 1  
    47    2   44 1  
    48    9   45 1  
    49   10   46 1  
    50   10   47 1  
    51   11   48 1  
    52   15   49 1  
    53   15   50 1  
    54   16   51 1  
    55   16   52 1  
    56   17   53 1  
    57   17   54 1  
    58   18   55 1  
    59   19   56 1  
    60   20   57 1  
    61   20   58 1  
    62   20   59 1  
    63   21   60 1  
    64   21   61 1  
    65   21   62 1  
    66   22   63 1  
    67   29   64 1  
    68   32   65 1  
    69   33   66 1  
    70   34   67 1  
    71   37   68 1  
    72   37   69 1  
    73   38   70 1  
    74   38   71 1  
    75   39   72 1  
    76   39   73 1  
    77   40   74 1  
    78   40   75 1  
@<TRIPOS>SUBSTRUCTURE
     1 7R9         1

