### 
### Created by X-TOOL on Mon Sep 10 21:13:14 2018
### 

@<TRIPOS>MOLECULE
4btk_ligand
   37    39     1     0     0
SMALL
GAST_HUCK


@<TRIPOS>ATOM
      1 N1         64.9060   19.2270   25.5250 N.ar      1 DTQ        -0.2606
      2 C2         66.2050   19.1560   25.2280 C.ar      1 DTQ         0.0529
      3 N3         66.9080   19.9880   24.4600 N.ar      1 DTQ        -0.3051
      4 C4         66.2410   21.0060   23.9200 C.ar      1 DTQ         0.0267
      5 C5         64.8900   21.1870   24.1810 C.ar      1 DTQ         0.0395
      6 C6         64.2450   20.2590   24.9870 C.ar      1 DTQ         0.1507
      7 C7         66.9010   21.9020   23.1050 C.ar      1 DTQ        -0.0167
      8 C8         66.2580   22.9880   22.5480 C.ar      1 DTQ         0.1323
      9 C9         64.9070   23.1510   22.8090 C.ar      1 DTQ         0.1320
     10 C10        64.2200   22.2520   23.6100 C.ar      1 DTQ        -0.0171
     11 N12        62.8680   20.4170   25.2580 N.pl3     1 DTQ        -0.2510
     12 C14        62.0970   19.5370   26.0450 C.ar      1 DTQ         0.0587
     13 C15        61.0730   20.0890   26.7790 C.ar      1 DTQ        -0.0098
     14 C16        60.2820   19.2820   27.5620 C.ar      1 DTQ         0.0787
     15 C17        60.4590   17.9150   27.6330 C.ar      1 DTQ        -0.0443
     16 C18        61.4850   17.3590   26.8910 C.ar      1 DTQ        -0.0792
     17 C19        62.2840   18.1660   26.1040 C.ar      1 DTQ        -0.0481
     18 O21        59.2700   19.8870   28.2490 O.3       1 DTQ        -0.3359
     19 O26        66.9030   23.9280   21.7190 O.3       1 DTQ        -0.3161
     20 C27        68.3220   23.8160   21.6770 C.3       1 DTQ         0.0601
     21 O31        64.2260   24.2010   22.2030 O.3       1 DTQ        -0.3198
     22 C32        63.4820   24.9220   23.1960 C.3       1 DTQ         0.0583
     23 H1         66.7514   18.3260   25.6613 H         1 DTQ         0.1018
     24 H2         67.9536   21.7486   22.8965 H         1 DTQ         0.0496
     25 H3         63.1589   22.3843   23.7881 H         1 DTQ         0.0547
     26 H4         62.3921   21.2348   24.8510 H         1 DTQ         0.2211
     27 H5         60.8903   21.1568   26.7402 H         1 DTQ         0.0460
     28 H6         59.8154   17.2980   28.2496 H         1 DTQ         0.0453
     29 H7         61.6624   16.2902   26.9268 H         1 DTQ         0.0562
     30 H8         63.0768   17.7149   25.5183 H         1 DTQ         0.0452
     31 H9         58.4367   19.5363   27.9571 H         1 DTQ         0.2478
     32 H10        68.7310   24.5874   21.0080 H         1 DTQ         0.0579
     33 H11        68.6003   22.8202   21.3017 H         1 DTQ         0.0579
     34 H12        68.7308   23.9540   22.6888 H         1 DTQ         0.0579
     35 H13        62.9426   25.7531   22.7182 H         1 DTQ         0.0575
     36 H14        64.1725   25.3206   23.9539 H         1 DTQ         0.0575
     37 H15        62.7606   24.2451   23.6770 H         1 DTQ         0.0575
@<TRIPOS>BOND
     1    1    2 ar 
     2    1    6 ar 
     3    2    3 ar 
     4    3    4 ar 
     5    4    5 ar 
     6    4    7 ar 
     7    5    6 ar 
     8    5   10 ar 
     9    6   11 1  
    10    7    8 ar 
    11    8    9 ar 
    12    8   19 1  
    13    9   10 ar 
    14    9   21 1  
    15   11   12 1  
    16   12   13 ar 
    17   12   17 ar 
    18   13   14 ar 
    19   14   15 ar 
    20   14   18 1  
    21   15   16 ar 
    22   16   17 ar 
    23   19   20 1  
    24   21   22 1  
    25    2   23 1  
    26    7   24 1  
    27   10   25 1  
    28   11   26 1  
    29   13   27 1  
    30   15   28 1  
    31   16   29 1  
    32   17   30 1  
    33   18   31 1  
    34   20   32 1  
    35   20   33 1  
    36   20   34 1  
    37   22   35 1  
    38   22   36 1  
    39   22   37 1  
@<TRIPOS>SUBSTRUCTURE
     1 DTQ         1

