### 
### Created by X-TOOL on Mon Sep 10 21:13:14 2018
### 

@<TRIPOS>MOLECULE
4btl_ligand
   51    52     1     0     0
SMALL
GAST_HUCK


@<TRIPOS>ATOM
      1 CL         32.5090   24.1390   10.4940 Cl        1 5GZ        -0.0008
      2 O01        27.6230   18.9600   11.7650 O.2       1 5GZ        -0.1414
      3 S02        29.0210   18.8920   12.0200 S.o2      1 5GZ         0.0993
      4 C03        29.7950   19.9150   10.8990 C.ar      1 5GZ         0.1768
      5 C04        31.1690   19.9960   10.7220 C.ar      1 5GZ         0.0403
      6 C05        31.7980   20.8300    9.8280 C.ar      1 5GZ         0.0799
      7 C06        29.0680   20.7930   10.1010 C.ar      1 5GZ         0.0403
      8 C07        29.6580   21.6690    9.1800 C.ar      1 5GZ         0.0799
      9 C08        31.0500   21.6870    9.0470 C.ar      1 5GZ         0.2971
     10 O09        31.6560   22.5160    8.1580 O.3       1 5GZ        -0.0700
     11 C10        32.9970   22.8220    8.2350 C.ar      1 5GZ         0.3514
     12 C11        33.8910   22.4360    7.2430 C.ar      1 5GZ         0.2296
     13 N12        33.4870   21.5470    6.1480 N.2       1 5GZ        -0.1739
     14 O13        34.1560   21.5860    5.1280 O.2       1 5GZ        -0.4747
     15 O14        32.5380   20.7950    6.3200 O.2       1 5GZ        -0.4747
     16 C15        35.2420   22.7900    7.2880 C.ar      1 5GZ         0.0514
     17 C16        35.7170   23.5610    8.3410 C.ar      1 5GZ         0.0183
     18 C17        34.8480   23.9760    9.3410 C.ar      1 5GZ         0.0388
     19 C18        33.5130   23.6140    9.2690 C.ar      1 5GZ         0.2025
     20 N20        29.2340   19.5020   13.5480 N.am      1 5GZ        -0.2351
     21 C21        28.5180   20.7410   14.0000 C.3       1 5GZ         0.0673
     22 C22        27.1060   20.5910   14.6690 C.3       1 5GZ        -0.0147
     23 N23        26.3510   19.3280   14.2170 N.4       1 5GZ         0.2360
     24 C24        26.1760   18.4170   15.4010 C.3       1 5GZ        -0.0348
     25 C25        27.3040   17.4330   15.6260 C.3       1 5GZ        -0.0245
     26 C26        24.9900   19.7340   13.7320 C.3       1 5GZ        -0.0348
     27 C27        25.0380   20.6600   12.5260 C.3       1 5GZ        -0.0245
     28 O28        29.6280   17.6160   11.9700 O.2       1 5GZ        -0.1414
     29 H1         31.7925   19.3542   11.3339 H         1 5GZ         0.0869
     30 H2         32.8781   20.8143    9.7370 H         1 5GZ         0.1080
     31 H3         27.9883   20.7997   10.1968 H         1 5GZ         0.0869
     32 H4         29.0417   22.3259    8.5769 H         1 5GZ         0.1080
     33 H5         35.9164   22.4642    6.5044 H         1 5GZ         0.0956
     34 H6         36.7642   23.8382    8.3820 H         1 5GZ         0.1252
     35 H7         35.2099   24.5760   10.1681 H         1 5GZ         0.0892
     36 H8         29.8518   19.0348   14.1805 H         1 5GZ         0.1682
     37 H9         28.3913   21.3831   13.1159 H         1 5GZ         0.0529
     38 H10        29.1701   21.2448   14.7287 H         1 5GZ         0.0529
     39 H11        26.5007   21.4718   14.4088 H         1 5GZ         0.0830
     40 H12        27.2391   20.5468   15.7600 H         1 5GZ         0.0830
     41 H13        26.8604   18.8586   13.4848 H         1 5GZ         0.2034
     42 H14        25.2481   17.8443   15.2562 H         1 5GZ         0.0812
     43 H15        26.0844   19.0421   16.3014 H         1 5GZ         0.0812
     44 H16        27.0821   16.8167   16.5097 H         1 5GZ         0.0281
     45 H17        28.2430   17.9825   15.7885 H         1 5GZ         0.0281
     46 H18        27.4066   16.7847   14.7433 H         1 5GZ         0.0281
     47 H19        24.4668   20.2511   14.5498 H         1 5GZ         0.0812
     48 H20        24.4321   18.8273   13.4552 H         1 5GZ         0.0812
     49 H21        24.0132   20.9190   12.2216 H         1 5GZ         0.0281
     50 H22        25.5504   20.1534   11.6949 H         1 5GZ         0.0281
     51 H23        25.5850   21.5772   12.7895 H         1 5GZ         0.0281
@<TRIPOS>BOND
     1   19    1 1  
     2    3    2 2  
     3    4    3 1  
     4    3   20 am 
     5    3   28 2  
     6    5    4 ar 
     7    7    4 ar 
     8    6    5 ar 
     9    9    6 ar 
    10    8    7 ar 
    11    9    8 ar 
    12   10    9 1  
    13   11   10 1  
    14   11   12 ar 
    15   11   19 ar 
    16   12   13 1  
    17   12   16 ar 
    18   13   14 2  
    19   13   15 2  
    20   16   17 ar 
    21   17   18 ar 
    22   18   19 ar 
    23   20   21 1  
    24   21   22 1  
    25   22   23 1  
    26   23   24 1  
    27   23   26 1  
    28   24   25 1  
    29   26   27 1  
    30    5   29 1  
    31    6   30 1  
    32    7   31 1  
    33    8   32 1  
    34   16   33 1  
    35   17   34 1  
    36   18   35 1  
    37   20   36 1  
    38   21   37 1  
    39   21   38 1  
    40   22   39 1  
    41   22   40 1  
    42   23   41 1  
    43   24   42 1  
    44   24   43 1  
    45   25   44 1  
    46   25   45 1  
    47   25   46 1  
    48   26   47 1  
    49   26   48 1  
    50   27   49 1  
    51   27   50 1  
    52   27   51 1  
@<TRIPOS>SUBSTRUCTURE
     1 5GZ         1

