### 
### Created by X-TOOL on Mon Sep 10 21:13:14 2018
### 

@<TRIPOS>MOLECULE
4btt_ligand
   75    79     1     0     0
SMALL
GAST_HUCK


@<TRIPOS>ATOM
      1 C34        33.3960  -21.6360  -42.1050 C.2       1 VYR        -0.0635
      2 C35        32.2110  -21.0200  -42.2490 C.2       1 VYR        -0.0591
      3 C36        31.2480  -21.7990  -42.7340 C.2       1 VYR         0.0959
      4 CL         29.6400  -21.2610  -43.0580 Cl        1 VYR        -0.0551
      5 S37        31.8540  -23.3520  -42.9360 S.3       1 VYR        -0.0237
      6 C33        33.4000  -22.9390  -42.4040 C.2       1 VYR         0.0719
      7 C31        34.4740  -23.8120  -42.3030 C.2       1 VYR         0.1596
      8 C32        34.5350  -25.0090  -41.7280 C.2       1 VYR        -0.0231
      9 O30        35.7110  -23.4640  -42.7430 O.3       1 VYR        -0.1787
     10 N29        36.5410  -24.5460  -42.4280 N.2       1 VYR        -0.1592
     11 C28        35.7890  -25.4610  -41.8220 C.2       1 VYR         0.0301
     12 C27        36.3020  -26.8080  -41.3070 C.3       1 VYR         0.0229
     13 C17        36.6740  -26.8250  -39.8090 C.3       1 VYR         0.1350
     14 C18        36.8040  -25.4240  -39.1520 C.2       1 VYR         0.2020
     15 O43        35.7860  -24.8770  -38.7210 O.2       1 VYR        -0.3946
     16 N19        38.0060  -24.8310  -38.9490 N.am      1 VYR        -0.2714
     17 C20        38.0890  -23.5040  -38.2570 C.3       1 VYR         0.0363
     18 C21        38.7470  -22.4460  -39.1630 C.3       1 VYR        -0.0061
     19 C22        39.9010  -23.0020  -40.0580 C.3       1 VYR         0.0620
     20 O25        41.1790  -22.4120  -39.7530 O.3       1 VYR        -0.3796
     21 C26        41.5610  -21.4900  -40.7900 C.3       1 VYR         0.0368
     22 C23        40.0030  -24.5190  -40.4190 C.3       1 VYR        -0.0061
     23 C24        39.2980  -25.4410  -39.4050 C.3       1 VYR         0.0363
     24 N16        35.7080  -27.6590  -39.0690 N.am      1 VYR        -0.2249
     25 S15        36.4250  -28.5700  -37.9000 S.o2      1 VYR         0.0645
     26 O40        35.4060  -29.4990  -37.3080 O.2       1 VYR        -0.1516
     27 O41        37.5060  -29.4180  -38.5100 O.2       1 VYR        -0.1516
     28 C9         37.1180  -27.5180  -36.6360 C.ar      1 VYR         0.0967
     29 C8         36.3280  -26.6760  -35.8110 C.ar      1 VYR         0.0052
     30 C13        34.7880  -26.6300  -35.9380 C.3       1 VYR        -0.0241
     31 C14        34.1040  -27.5360  -34.9140 C.3       1 VYR        -0.0574
     32 C10        38.5130  -27.5250  -36.5210 C.ar      1 VYR        -0.0574
     33 C11        39.1650  -26.7260  -35.5870 C.ar      1 VYR        -0.0807
     34 C12        38.4070  -25.9020  -34.7600 C.ar      1 VYR        -0.0472
     35 C7         37.0110  -25.8650  -34.8700 C.ar      1 VYR         0.0736
     36 N3         36.3250  -25.0110  -33.9700 N.am      1 VYR        -0.2188
     37 C2         35.9780  -23.6170  -34.4070 C.3       1 VYR         0.0778
     38 C1         35.0550  -22.8720  -33.4180 C.3       1 VYR         0.0758
     39 O6         34.4950  -23.6230  -32.3010 O.3       1 VYR        -0.3565
     40 C5         35.3920  -24.6150  -31.7570 C.3       1 VYR         0.1424
     41 C4         36.0570  -25.4580  -32.6450 C.2       1 VYR         0.2304
     42 O39        36.3460  -26.5990  -32.2830 O.2       1 VYR        -0.3830
     43 H1         34.2893  -21.1116  -41.7688 H         1 VYR         0.0451
     44 H2         32.0525  -19.9739  -41.9911 H         1 VYR         0.0439
     45 H3         33.7032  -25.5329  -41.2594 H         1 VYR         0.0372
     46 H4         37.1977  -27.0778  -41.8858 H         1 VYR         0.0455
     47 H5         35.5171  -27.5604  -41.4739 H         1 VYR         0.0455
     48 H6         37.6609  -27.3043  -39.7297 H         1 VYR         0.0774
     49 H7         38.6869  -23.6137  -37.3402 H         1 VYR         0.0523
     50 H8         37.0738  -23.1713  -37.9951 H         1 VYR         0.0523
     51 H9         39.1581  -21.6510  -38.5236 H         1 VYR         0.0310
     52 H10        37.9725  -22.0241  -39.8204 H         1 VYR         0.0310
     53 H11        39.6496  -22.5627  -41.0346 H         1 VYR         0.0597
     54 H12        42.5376  -21.0469  -40.5452 H         1 VYR         0.0524
     55 H13        40.8064  -20.6935  -40.8687 H         1 VYR         0.0524
     56 H14        41.6310  -22.0248  -41.7487 H         1 VYR         0.0524
     57 H15        41.0667  -24.7962  -40.4607 H         1 VYR         0.0310
     58 H16        39.5448  -24.6734  -41.4070 H         1 VYR         0.0310
     59 H17        39.0921  -26.4113  -39.8805 H         1 VYR         0.0523
     60 H18        39.9543  -25.5909  -38.5351 H         1 VYR         0.0523
     61 H19        34.7258  -27.6698  -39.2568 H         1 VYR         0.1706
     62 H20        34.5046  -26.9585  -36.9488 H         1 VYR         0.0395
     63 H21        34.4489  -25.5956  -35.7801 H         1 VYR         0.0395
     64 H22        33.0130  -27.4729  -35.0395 H         1 VYR         0.0249
     65 H23        34.3755  -27.2120  -33.8985 H         1 VYR         0.0249
     66 H24        34.4312  -28.5750  -35.0672 H         1 VYR         0.0249
     67 H25        39.0967  -28.1654  -37.1723 H         1 VYR         0.0489
     68 H26        40.2457  -26.7449  -35.5047 H         1 VYR         0.0521
     69 H27        38.9028  -25.2816  -34.0222 H         1 VYR         0.0480
     70 H28        35.4704  -23.6739  -35.3812 H         1 VYR         0.0606
     71 H29        36.9105  -23.0431  -34.5124 H         1 VYR         0.0606
     72 H30        34.2105  -22.4716  -33.9981 H         1 VYR         0.0587
     73 H31        35.6356  -22.0398  -32.9933 H         1 VYR         0.0587
     74 H32        34.8027  -25.2523  -31.0814 H         1 VYR         0.0809
     75 H33        36.1594  -24.0791  -31.1791 H         1 VYR         0.0809
@<TRIPOS>BOND
     1    1    2 1  
     2    1    6 2  
     3    2    3 2  
     4    3    4 1  
     5    3    5 1  
     6    5    6 1  
     7    6    7 1  
     8    7    8 2  
     9    7    9 1  
    10    8   11 1  
    11    9   10 1  
    12   10   11 2  
    13   11   12 1  
    14   12   13 1  
    15   13   14 1  
    16   13   24 1  
    17   14   15 2  
    18   14   16 am 
    19   16   17 1  
    20   16   23 1  
    21   17   18 1  
    22   18   19 1  
    23   19   20 1  
    24   19   22 1  
    25   20   21 1  
    26   22   23 1  
    27   24   25 am 
    28   25   26 2  
    29   25   27 2  
    30   25   28 1  
    31   28   29 ar 
    32   28   32 ar 
    33   29   30 1  
    34   29   35 ar 
    35   30   31 1  
    36   32   33 ar 
    37   33   34 ar 
    38   34   35 ar 
    39   35   36 1  
    40   36   37 1  
    41   36   41 am 
    42   37   38 1  
    43   38   39 1  
    44   39   40 1  
    45   40   41 1  
    46   41   42 2  
    47    1   43 1  
    48    2   44 1  
    49    8   45 1  
    50   12   46 1  
    51   12   47 1  
    52   13   48 1  
    53   17   49 1  
    54   17   50 1  
    55   18   51 1  
    56   18   52 1  
    57   19   53 1  
    58   21   54 1  
    59   21   55 1  
    60   21   56 1  
    61   22   57 1  
    62   22   58 1  
    63   23   59 1  
    64   23   60 1  
    65   24   61 1  
    66   30   62 1  
    67   30   63 1  
    68   31   64 1  
    69   31   65 1  
    70   31   66 1  
    71   32   67 1  
    72   33   68 1  
    73   34   69 1  
    74   37   70 1  
    75   37   71 1  
    76   38   72 1  
    77   38   73 1  
    78   40   74 1  
    79   40   75 1  
@<TRIPOS>SUBSTRUCTURE
     1 VYR         1

