### 
### Created by X-TOOL on Mon Sep 10 21:13:13 2018
### 

@<TRIPOS>MOLECULE
4btu_ligand
   68    71     1     0     0
SMALL
GAST_HUCK


@<TRIPOS>ATOM
      1 C33        -9.2630  -10.7040  -16.7700 C.2       1 6XS        -0.0542
      2 C32        -8.0750  -11.3270  -16.5970 C.2       1 6XS        -0.0524
      3 C31        -7.0160  -10.5090  -16.6430 C.2       1 6XS         0.1023
      4 CL3        -5.3610  -10.9810  -16.4570 Cl        1 6XS        -0.0499
      5 S30        -7.5470   -8.9430  -16.9110 S.3       1 6XS        -0.0137
      6 C29        -9.1660   -9.3820  -16.9630 C.2       1 6XS         0.0995
      7 C28       -10.3360   -8.4190  -17.1810 C.2       1 6XS         0.2077
      8 O39       -10.1740   -7.2030  -17.0990 O.2       1 6XS        -0.3910
      9 N27       -11.5060   -8.9950  -17.4490 N.am      1 6XS        -0.2836
     10 C26       -12.7320   -8.2080  -17.6570 C.3       1 6XS         0.0666
     11 C17       -12.8320   -7.7080  -19.1020 C.3       1 6XS         0.1462
     12 C18       -11.5140   -7.0690  -19.5410 C.2       1 6XS         0.2026
     13 O38       -10.6250   -7.7450  -20.0580 O.2       1 6XS        -0.3947
     14 N19       -11.3420   -5.7630  -19.3670 N.am      1 6XS        -0.2614
     15 C20       -12.4130   -4.9490  -18.7610 C.3       1 6XS         0.0741
     16 C21       -12.6670   -3.7360  -19.6550 C.3       1 6XS        -0.0112
     17 N22       -11.4040   -3.0180  -19.8900 N.4       1 6XS         0.2359
     18 C25       -11.6840   -1.8140  -20.6830 C.3       1 6XS        -0.0430
     19 C23       -10.4500   -3.8680  -20.6230 C.3       1 6XS        -0.0112
     20 C24       -10.0920   -5.1010  -19.7910 C.3       1 6XS         0.0741
     21 N16       -13.1570   -8.8260  -19.9970 N.am      1 6XS        -0.2238
     22 S15       -14.2420   -8.3260  -21.0970 S.o2      1 6XS         0.0668
     23 O36       -14.7750   -9.5120  -21.8470 O.2       1 6XS        -0.1504
     24 O37       -15.3700   -7.6260  -20.3980 O.2       1 6XS        -0.1504
     25 C9        -13.4780   -7.2160  -22.2150 C.ar      1 6XS         0.1074
     26 C8        -12.7530   -7.7050  -23.2950 C.ar      1 6XS         0.0817
     27 CL4       -12.6100   -9.4130  -23.5270 Cl        1 6XS        -0.0845
     28 C10       -13.5950   -5.8440  -22.0220 C.ar      1 6XS        -0.0165
     29 C11       -12.9890   -4.9620  -22.9090 C.ar      1 6XS         0.1213
     30 F13       -13.1030   -3.6330  -22.7240 F         1 6XS        -0.1872
     31 C12       -12.2650   -5.4510  -23.9890 C.ar      1 6XS        -0.0073
     32 C7        -12.1440   -6.8220  -24.1810 C.ar      1 6XS         0.0831
     33 N3        -11.4160   -7.3060  -25.2750 N.am      1 6XS        -0.2199
     34 C2        -10.5500   -8.4950  -25.1000 C.3       1 6XS         0.0558
     35 C1         -9.4930   -8.5560  -26.2000 C.3       1 6XS        -0.0253
     36 C6        -10.1530   -8.4870  -27.5710 C.3       1 6XS        -0.0333
     37 C5        -10.8000   -7.1180  -27.7680 C.3       1 6XS         0.0435
     38 C4        -11.5510   -6.6540  -26.5150 C.2       1 6XS         0.2063
     39 O35       -12.2900   -5.6740  -26.5940 O.2       1 6XS        -0.3845
     40 H1        -10.2157  -11.2314  -16.7538 H         1 6XS         0.0517
     41 H2         -7.9875  -12.4002  -16.4345 H         1 6XS         0.0447
     42 H3        -11.5531   -9.9920  -17.5108 H         1 6XS         0.1839
     43 H4        -12.7223   -7.3427  -16.9780 H         1 6XS         0.0563
     44 H5        -13.6052   -8.8388  -17.4346 H         1 6XS         0.0563
     45 H6        -13.6315   -6.9550  -19.1631 H         1 6XS         0.0774
     46 H7        -12.1027   -4.6136  -17.7604 H         1 6XS         0.0575
     47 H8        -13.3321   -5.5477  -18.6785 H         1 6XS         0.0575
     48 H9        -13.3838   -3.0626  -19.1623 H         1 6XS         0.0834
     49 H10       -13.0810   -4.0716  -20.6173 H         1 6XS         0.0834
     50 H11       -11.0011   -2.7539  -19.0046 H         1 6XS         0.2032
     51 H12       -10.7462   -1.2686  -20.8651 H         1 6XS         0.0778
     52 H13       -12.3834   -1.1672  -20.1331 H         1 6XS         0.0778
     53 H14       -12.1319   -2.1043  -21.6448 H         1 6XS         0.0778
     54 H15        -9.5360   -3.2923  -20.8309 H         1 6XS         0.0834
     55 H16       -10.9046   -4.1895  -21.5717 H         1 6XS         0.0834
     56 H17        -9.4921   -5.7956  -20.3973 H         1 6XS         0.0575
     57 H18        -9.5156   -4.7956  -18.9053 H         1 6XS         0.0575
     58 H19       -12.7721   -9.7471  -19.9385 H         1 6XS         0.1706
     59 H20       -14.1593   -5.4619  -21.1790 H         1 6XS         0.0496
     60 H21       -11.7944   -4.7631  -24.6821 H         1 6XS         0.0486
     61 H22       -11.1694   -9.4030  -25.1431 H         1 6XS         0.0587
     62 H23       -10.0507   -8.4378  -24.1216 H         1 6XS         0.0587
     63 H24        -8.9333   -9.4990  -26.1137 H         1 6XS         0.0291
     64 H25        -8.8019   -7.7077  -26.0868 H         1 6XS         0.0291
     65 H26       -10.9236   -9.2685  -27.6446 H         1 6XS         0.0291
     66 H27        -9.3931   -8.6467  -28.3501 H         1 6XS         0.0291
     67 H28       -11.5099   -7.1776  -28.6061 H         1 6XS         0.0508
     68 H29       -10.0150   -6.3845  -28.0038 H         1 6XS         0.0508
@<TRIPOS>BOND
     1    1    2 1  
     2    1    6 2  
     3    2    3 2  
     4    3    4 1  
     5    3    5 1  
     6    5    6 1  
     7    6    7 1  
     8    7    8 2  
     9    7    9 am 
    10    9   10 1  
    11   10   11 1  
    12   11   12 1  
    13   11   21 1  
    14   12   13 2  
    15   12   14 am 
    16   14   15 1  
    17   14   20 1  
    18   15   16 1  
    19   16   17 1  
    20   17   18 1  
    21   17   19 1  
    22   19   20 1  
    23   21   22 am 
    24   22   23 2  
    25   22   24 2  
    26   22   25 1  
    27   25   26 ar 
    28   25   28 ar 
    29   26   27 1  
    30   26   32 ar 
    31   28   29 ar 
    32   29   30 1  
    33   29   31 ar 
    34   31   32 ar 
    35   32   33 1  
    36   33   34 1  
    37   33   38 am 
    38   34   35 1  
    39   35   36 1  
    40   36   37 1  
    41   37   38 1  
    42   38   39 2  
    43    1   40 1  
    44    2   41 1  
    45    9   42 1  
    46   10   43 1  
    47   10   44 1  
    48   11   45 1  
    49   15   46 1  
    50   15   47 1  
    51   16   48 1  
    52   16   49 1  
    53   17   50 1  
    54   18   51 1  
    55   18   52 1  
    56   18   53 1  
    57   19   54 1  
    58   19   55 1  
    59   20   56 1  
    60   20   57 1  
    61   21   58 1  
    62   28   59 1  
    63   31   60 1  
    64   34   61 1  
    65   34   62 1  
    66   35   63 1  
    67   35   64 1  
    68   36   65 1  
    69   36   66 1  
    70   37   67 1  
    71   37   68 1  
@<TRIPOS>SUBSTRUCTURE
     1 6XS         1

