### 
### Created by X-TOOL on Mon Sep 10 21:13:15 2018
### 

@<TRIPOS>MOLECULE
4btw_ligand
   45    48     1     0     0
SMALL
GAST_HUCK


@<TRIPOS>ATOM
      1 CAL        16.4310  143.6570   32.3770 C.3       1 JW7        -0.0498
      2 CAJ        15.5740  142.4800   31.9260 C.3       1 JW7        -0.0528
      3 CAI        14.3160  142.3480   32.7920 C.3       1 JW7        -0.0530
      4 CAK        14.6010  142.4030   34.3040 C.3       1 JW7        -0.0528
      5 CAM        15.6060  143.4790   34.7360 C.3       1 JW7        -0.0498
      6 CAX        16.8360  143.4340   33.8360 C.3       1 JW7        -0.0307
      7 NAQ        17.8410  144.4040   34.2340 N.2       1 JW7        -0.4342
      8 CAT        19.1730  144.1620   34.1080 C.2       1 JW7         0.0017
      9 CAH        19.6390  143.0170   33.4430 C.2       1 JW7         0.0213
     10 CAW        20.9850  142.7230   33.3330 C.2       1 JW7         0.2671
     11 OAA        21.2820  141.5750   32.6600 O.3       1 JW7        -0.2749
     12 NAY        21.8860  143.5650   33.8850 N.pl3     1 JW7        -0.0786
     13 CAS        23.2230  143.4340   33.8700 C.ar      1 JW7         0.1268
     14 CAE        23.8710  142.4040   33.2420 C.ar      1 JW7        -0.0248
     15 CAC        25.2500  142.3110   33.2560 C.ar      1 JW7        -0.0662
     16 CAB        26.0190  143.2590   33.8890 C.ar      1 JW7        -0.0691
     17 CAD        25.3820  144.2990   34.5150 C.ar      1 JW7        -0.0662
     18 CAF        24.0020  144.3860   34.4990 C.ar      1 JW7        -0.0248
     19 NAP        21.4120  144.7070   34.5410 N.2       1 JW7        -0.1197
     20 CAV        20.1090  145.0260   34.6630 C.2       1 JW7         0.1292
     21 CAU        19.7830  146.1960   35.3530 C.2       1 JW7         0.1282
     22 NAN        20.6450  147.0680   35.9150 N.2       1 JW7        -0.2775
     23 CAG        19.9640  148.0830   36.5040 C.2       1 JW7         0.1268
     24 NAR        18.6680  147.8750   36.3160 N.pl3     1 JW7        -0.1898
     25 NAO        18.5670  146.6810   35.5880 N.2       1 JW7        -0.1813
     26 H1         15.8546  144.5899   32.2907 H         1 JW7         0.0268
     27 H2         17.3312  143.7226   31.7483 H         1 JW7         0.0268
     28 H3         16.1637  141.5549   32.0062 H         1 JW7         0.0265
     29 H4         15.2744  142.6343   30.8789 H         1 JW7         0.0265
     30 H5         13.8357  141.3852   32.5634 H         1 JW7         0.0265
     31 H6         13.6304  143.1696   32.5371 H         1 JW7         0.0265
     32 H7         14.9959  141.4238   34.6126 H         1 JW7         0.0265
     33 H8         13.6507  142.5955   34.8235 H         1 JW7         0.0265
     34 H9         15.9097  143.2969   35.7774 H         1 JW7         0.0268
     35 H10        15.1345  144.4699   34.6594 H         1 JW7         0.0268
     36 H11        17.2812  142.4318   33.9212 H         1 JW7         0.0304
     37 H12        18.9145  142.3364   32.9981 H         1 JW7         0.0364
     38 H13        21.7529  140.9843   33.2361 H         1 JW7         0.2684
     39 H14        23.2919  141.6478   32.7245 H         1 JW7         0.0583
     40 H15        25.7332  141.4771   32.7598 H         1 JW7         0.0599
     41 H16        27.1005  143.1859   33.8929 H         1 JW7         0.0554
     42 H17        25.9637  145.0579   35.0257 H         1 JW7         0.0599
     43 H18        23.5194  145.2220   34.9923 H         1 JW7         0.0583
     44 H19        20.4053  148.9229   37.0385 H         1 JW7         0.1372
     45 H20        17.8922  148.4703   36.6394 H         1 JW7         0.2647
@<TRIPOS>BOND
     1    1    2 1  
     2    1    6 1  
     3    2    3 1  
     4    3    4 1  
     5    4    5 1  
     6    5    6 1  
     7    6    7 1  
     8    7    8 2  
     9    8    9 1  
    10    8   20 1  
    11    9   10 2  
    12   10   11 1  
    13   10   12 1  
    14   12   13 1  
    15   12   19 1  
    16   13   14 ar 
    17   13   18 ar 
    18   14   15 ar 
    19   15   16 ar 
    20   16   17 ar 
    21   17   18 ar 
    22   19   20 2  
    23   20   21 1  
    24   21   22 1  
    25   21   25 2  
    26   22   23 2  
    27   23   24 1  
    28   24   25 1  
    29    1   26 1  
    30    1   27 1  
    31    2   28 1  
    32    2   29 1  
    33    3   30 1  
    34    3   31 1  
    35    4   32 1  
    36    4   33 1  
    37    5   34 1  
    38    5   35 1  
    39    6   36 1  
    40    9   37 1  
    41   11   38 1  
    42   14   39 1  
    43   15   40 1  
    44   16   41 1  
    45   17   42 1  
    46   18   43 1  
    47   23   44 1  
    48   24   45 1  
@<TRIPOS>SUBSTRUCTURE
     1 JW7         1

