### 
### Created by X-TOOL on Mon Sep 10 21:13:13 2018
### 

@<TRIPOS>MOLECULE
4btx_ligand
   38    40     1     0     0
SMALL
GAST_HUCK


@<TRIPOS>ATOM
      1 CAG        89.8970   52.7340   32.7770 C.ar      1 WF8        -0.0257
      2 CAE        88.5260   52.8740   32.7340 C.ar      1 WF8        -0.0690
      3 CAD        87.8110   52.8290   33.9360 C.ar      1 WF8        -0.0718
      4 CAF        88.4620   52.6430   35.1630 C.ar      1 WF8        -0.0690
      5 CAH        89.8500   52.5030   35.2010 C.ar      1 WF8        -0.0257
      6 CAP        90.5680   52.5800   34.0080 C.ar      1 WF8         0.1286
      7 NAV        91.9000   52.4020   33.9770 N.am      1 WF8        -0.0909
      8 NAM        92.3060   51.3460   34.5480 N.2       1 WF8        -0.1152
      9 CAT        92.7560   53.2300   33.3110 C.2       1 WF8         0.2303
     10 OAC        92.3660   54.2670   32.7360 O.2       1 WF8        -0.4132
     11 CAJ        94.1210   52.8770   33.3060 C.2       1 WF8         0.0191
     12 CAR        94.5450   51.7160   33.9760 C.2       1 WF8         0.0768
     13 NAN        95.8160   51.2920   33.9860 N.pl3     1 WF8        -0.3115
     14 CAU        97.0630   52.0860   34.1290 C.3       1 WF8         0.0330
     15 CAB        97.5200   52.4860   32.7180 C.3       1 WF8        -0.0422
     16 CAA        96.9200   53.2860   35.0810 C.3       1 WF8        -0.0422
     17 CAS        93.5800   50.9030   34.6080 C.2       1 WF8         0.1681
     18 CAQ        93.7860   49.7350   35.2880 C.2       1 WF8         0.1719
     19 NAK        92.8160   48.8730   35.5800 N.pl3     1 WF8        -0.2317
     20 CAI        93.3980   47.8900   36.2550 C.2       1 WF8         0.1159
     21 NAO        94.6800   48.1750   36.3490 N.2       1 WF8        -0.2576
     22 NAL        94.9080   49.2300   35.8010 N.2       1 WF8        -0.2575
     23 H1         90.4657   52.7424   31.8542 H         1 WF8         0.0561
     24 H2         88.0132   53.0158   31.7896 H         1 WF8         0.0591
     25 H3         86.7329   52.9401   33.9177 H         1 WF8         0.0532
     26 H4         87.8879   52.6079   36.0818 H         1 WF8         0.0591
     27 H5         90.3615   52.3372   36.1422 H         1 WF8         0.0561
     28 H6         94.8447   53.5018   32.7847 H         1 WF8         0.0330
     29 H7         95.9461   50.2758   33.8799 H         1 WF8         0.1823
     30 H8         97.8329   51.4294   34.5604 H         1 WF8         0.0551
     31 H9         98.4448   53.0777   32.7861 H         1 WF8         0.0252
     32 H10        96.7352   53.0866   32.2349 H         1 WF8         0.0252
     33 H11        97.7073   51.5802   32.1227 H         1 WF8         0.0252
     34 H12        97.8772   53.8250   35.1379 H         1 WF8         0.0252
     35 H13        96.6407   52.9280   36.0829 H         1 WF8         0.0252
     36 H14        96.1399   53.9631   34.7029 H         1 WF8         0.0252
     37 H15        91.8191   48.9522   35.3332 H         1 WF8         0.2440
     38 H16        92.9045   47.0070   36.6584 H         1 WF8         0.1302
@<TRIPOS>BOND
     1    1    2 ar 
     2    1    6 ar 
     3    2    3 ar 
     4    3    4 ar 
     5    4    5 ar 
     6    5    6 ar 
     7    6    7 1  
     8    7    8 1  
     9    7    9 am 
    10    8   17 2  
    11    9   10 2  
    12    9   11 1  
    13   11   12 2  
    14   12   13 1  
    15   12   17 1  
    16   13   14 1  
    17   14   15 1  
    18   14   16 1  
    19   17   18 1  
    20   18   19 1  
    21   18   22 2  
    22   19   20 1  
    23   20   21 2  
    24   21   22 1  
    25    1   23 1  
    26    2   24 1  
    27    3   25 1  
    28    4   26 1  
    29    5   27 1  
    30   11   28 1  
    31   13   29 1  
    32   14   30 1  
    33   15   31 1  
    34   15   32 1  
    35   15   33 1  
    36   16   34 1  
    37   16   35 1  
    38   16   36 1  
    39   19   37 1  
    40   20   38 1  
@<TRIPOS>SUBSTRUCTURE
     1 WF8         1

