### 
### Created by X-TOOL on Mon Sep 10 21:13:14 2018
### 

@<TRIPOS>MOLECULE
4bty_ligand
   57    61     1     0     0
SMALL
GAST_HUCK


@<TRIPOS>ATOM
      1 CAP       100.3370   55.9690   33.3670 C.3       1 JWF         0.0666
      2 CAN       101.2870   56.6980   32.4910 C.3       1 JWF        -0.0120
      3 NBE       100.5740   57.0000   31.2070 N.4       1 JWF         0.2359
      4 CAA       101.2670   58.0610   30.4280 C.3       1 JWF        -0.0430
      5 CAO       100.4430   55.8300   30.3400 C.3       1 JWF        -0.0120
      6 CAQ       100.4050   54.5590   31.2150 C.3       1 JWF         0.0666
      7 NBF        99.7900   54.8110   32.5690 N.pl3     1 JWF        -0.3002
      8 CAY        98.7870   54.0190   33.0760 C.ar      1 JWF         0.0377
      9 CAI        98.4550   54.0570   34.4470 C.ar      1 JWF        -0.0468
     10 CAG        97.4310   53.2700   34.9860 C.ar      1 JWF        -0.0623
     11 CAH        98.0320   53.1330   32.2760 C.ar      1 JWF        -0.0468
     12 CAF        97.0080   52.3400   32.8050 C.ar      1 JWF        -0.0623
     13 CAX        96.6920   52.4170   34.1630 C.ar      1 JWF        -0.0027
     14 NAU        95.7290   51.6560   34.7200 N.2       1 JWF        -0.3213
     15 CBA        94.4340   51.8670   34.4720 C.2       1 JWF         0.0694
     16 CAM        93.9860   53.0420   33.8950 C.3       1 JWF         0.1110
     17 CBD        92.6380   53.2370   33.6900 C.2       1 JWF         0.2800
     18 OAB        92.2840   54.3050   33.1760 O.2       1 JWF        -0.3612
     19 NBG        91.7890   52.2580   34.0400 N.am      1 JWF        -0.0746
     20 CAZ        90.4640   52.4170   33.8610 C.ar      1 JWF         0.1288
     21 CAJ        89.8790   52.7380   32.6150 C.ar      1 JWF        -0.0264
     22 CAD        88.4980   52.9300   32.4910 C.ar      1 JWF        -0.0560
     23 CAW        87.6960   52.7760   33.6350 C.ar      1 JWF         0.0289
     24 CLAC       85.9320   53.0170   33.6050 Cl        1 JWF        -0.0806
     25 CAE        88.2970   52.4340   34.8480 C.ar      1 JWF        -0.0560
     26 CAK        89.6630   52.2740   34.9780 C.ar      1 JWF        -0.0264
     27 NAT        92.1900   51.2560   34.5520 N.2       1 JWF        -0.1081
     28 CBC        93.4730   50.9180   34.8150 C.2       1 JWF         0.1698
     29 CBB        93.6490   49.7120   35.4080 C.2       1 JWF         0.1723
     30 NAR        92.6230   48.9050   35.6880 N.pl3     1 JWF        -0.2319
     31 CAL        93.1740   47.8630   36.2890 C.2       1 JWF         0.1156
     32 NAV        94.4810   48.0820   36.3560 N.2       1 JWF        -0.2580
     33 NAS        94.7510   49.1220   35.8680 N.2       1 JWF        -0.2582
     34 H1         99.5176   56.6366   33.6718 H         1 JWF         0.0566
     35 H2        100.8588   55.5970   34.2611 H         1 JWF         0.0566
     36 H3        102.1701   56.0730   32.2923 H         1 JWF         0.0834
     37 H4        101.6017   57.6342   32.9751 H         1 JWF         0.0834
     38 H5         99.6496   57.3259   31.4422 H         1 JWF         0.2032
     39 H6        100.7141   58.2523   29.4965 H         1 JWF         0.0778
     40 H7        102.2883   57.7311   30.1870 H         1 JWF         0.0778
     41 H8        101.3110   58.9842   31.0244 H         1 JWF         0.0778
     42 H9        101.3020   55.7805   29.6547 H         1 JWF         0.0834
     43 H10        99.5130   55.9047   29.7574 H         1 JWF         0.0834
     44 H11       101.4339   54.1966   31.3564 H         1 JWF         0.0566
     45 H12        99.8135   53.7904   30.6960 H         1 JWF         0.0566
     46 H13        99.0108   54.7167   35.1035 H         1 JWF         0.0510
     47 H14        97.2105   53.3226   36.0460 H         1 JWF         0.0552
     48 H15        98.2533   53.0652   31.2170 H         1 JWF         0.0510
     49 H16        96.4587   51.6644   32.1593 H         1 JWF         0.0552
     50 H17        94.4713   53.1180   32.9108 H         1 JWF         0.0757
     51 H18        94.3317   53.8642   34.5388 H         1 JWF         0.0757
     52 H19        90.5110   52.8373   31.7399 H         1 JWF         0.0554
     53 H20        88.0576   53.1912   31.5356 H         1 JWF         0.0595
     54 H21        87.6689   52.2887   35.7194 H         1 JWF         0.0595
     55 H22        90.1001   52.0397   35.9419 H         1 JWF         0.0554
     56 H23        91.6256   49.0591   35.4822 H         1 JWF         0.2438
     57 H24        92.6495   46.9843   36.6614 H         1 JWF         0.1301
@<TRIPOS>BOND
     1    1    2 1  
     2    1    7 1  
     3    2    3 1  
     4    3    4 1  
     5    3    5 1  
     6    5    6 1  
     7    6    7 1  
     8    7    8 1  
     9    8    9 ar 
    10    8   11 ar 
    11    9   10 ar 
    12   10   13 ar 
    13   11   12 ar 
    14   12   13 ar 
    15   13   14 1  
    16   14   15 2  
    17   15   16 1  
    18   15   28 1  
    19   16   17 1  
    20   17   18 2  
    21   17   19 am 
    22   19   20 1  
    23   19   27 1  
    24   20   21 ar 
    25   20   26 ar 
    26   21   22 ar 
    27   22   23 ar 
    28   23   24 1  
    29   23   25 ar 
    30   25   26 ar 
    31   27   28 2  
    32   28   29 1  
    33   29   30 1  
    34   29   33 2  
    35   30   31 1  
    36   31   32 2  
    37   32   33 1  
    38    1   34 1  
    39    1   35 1  
    40    2   36 1  
    41    2   37 1  
    42    3   38 1  
    43    4   39 1  
    44    4   40 1  
    45    4   41 1  
    46    5   42 1  
    47    5   43 1  
    48    6   44 1  
    49    6   45 1  
    50    9   46 1  
    51   10   47 1  
    52   11   48 1  
    53   12   49 1  
    54   16   50 1  
    55   16   51 1  
    56   21   52 1  
    57   22   53 1  
    58   25   54 1  
    59   26   55 1  
    60   30   56 1  
    61   31   57 1  
@<TRIPOS>SUBSTRUCTURE
     1 JWF         1

