### 
### Created by X-TOOL on Mon Sep 10 21:13:14 2018
### 

@<TRIPOS>MOLECULE
4bup_ligand
   50    52     1     0     0
SMALL
GAST_HUCK


@<TRIPOS>ATOM
      1 N           7.6930   49.4820   10.6770 N.4       1 SAM         0.2328
      2 CA          6.3230   49.2840   10.2050 C.3       1 SAM         0.0327
      3 C           5.4110   50.1840   11.0220 C.2       1 SAM         0.0846
      4 O           5.7610   50.5370   12.1530 O.co2     1 SAM        -0.5643
      5 OXT         4.3200   50.5570   10.5740 O.co2     1 SAM        -0.5643
      6 CB          5.8890   47.8320   10.3690 C.3       1 SAM         0.0473
      7 CG          6.0820   46.9700    9.1210 C.3       1 SAM         0.1163
      8 SD          4.9270   47.4570    7.8060 S.3       1 SAM        -0.0103
      9 CE          4.2350   45.8580    7.2730 C.3       1 SAM         0.0995
     10 C5'         6.0920   47.7040    6.4320 C.3       1 SAM         0.1381
     11 C4'         6.6430   49.1270    6.3380 C.3       1 SAM         0.1350
     12 O4'         7.6480   49.3400    7.3140 O.3       1 SAM        -0.3344
     13 C3'         7.2910   49.4570    4.9960 C.3       1 SAM         0.1168
     14 O3'         6.3970   49.9800    4.0590 O.3       1 SAM        -0.3863
     15 C2'         8.2640   50.5260    5.4030 C.3       1 SAM         0.1386
     16 O2'         7.5710   51.7060    5.6980 O.3       1 SAM        -0.3836
     17 C1'         8.7690   49.9450    6.7050 C.3       1 SAM         0.2011
     18 N9          9.7050   48.8580    6.3840 N.pl3     1 SAM        -0.1919
     19 C8          9.6900   47.5930    6.9150 C.2       1 SAM         0.1123
     20 N7         10.6990   46.8650    6.3620 N.2       1 SAM        -0.2958
     21 C5         11.3510   47.6460    5.4730 C.ar      1 SAM         0.1045
     22 C6         12.4380   47.4210    4.6380 C.ar      1 SAM         0.1298
     23 N6         13.0720   46.2570    4.5960 N.pl3     1 SAM        -0.3152
     24 N1         12.8690   48.4350    3.8170 N.ar      1 SAM        -0.2698
     25 C2         12.2450   49.6680    3.8290 C.ar      1 SAM         0.0533
     26 N3         11.1760   49.8850    4.6550 N.ar      1 SAM        -0.2714
     27 C4         10.7290   48.9020    5.4690 C.ar      1 SAM         0.1613
     28 H1          8.3186   48.8940   10.1488 H         1 SAM         0.2010
     29 H2          7.7499   49.2408   11.6541 H         1 SAM         0.2010
     30 H3          7.9548   50.4475   10.5534 H         1 SAM         0.2010
     31 H4          6.2600   49.5595    9.1419 H         1 SAM         0.1026
     32 H5          4.8214   47.8199   10.6337 H         1 SAM         0.0385
     33 H6          6.4748   47.3882   11.1875 H         1 SAM         0.0385
     34 H7          5.9062   45.9159    9.3815 H         1 SAM         0.0843
     35 H8          7.1129   47.0907    8.7567 H         1 SAM         0.0843
     36 H9          3.5081   46.0244    6.4643 H         1 SAM         0.0803
     37 H10         3.7328   45.3740    8.1236 H         1 SAM         0.0803
     38 H11         5.0463   45.2103    6.9092 H         1 SAM         0.0803
     39 H12         5.5727   47.4704    5.4908 H         1 SAM         0.0867
     40 H13         6.9374   47.0130    6.5657 H         1 SAM         0.0867
     41 H14         5.8095   49.8238    6.5104 H         1 SAM         0.0671
     42 H15         7.7968   48.5771    4.5718 H         1 SAM         0.0649
     43 H16         6.0186   50.7829    4.3978 H         1 SAM         0.2100
     44 H17         9.0572   50.6959    4.6600 H         1 SAM         0.0676
     45 H18         7.0919   51.9913    4.9288 H         1 SAM         0.2101
     46 H19         9.2322   50.7094    7.3462 H         1 SAM         0.0996
     47 H20         8.9838   47.2292    7.6599 H         1 SAM         0.1349
     48 H21        13.8744   46.1301    3.9627 H         1 SAM         0.1820
     49 H22        12.7621   45.4798    5.1966 H         1 SAM         0.1820
     50 H23        12.6023   50.4629    3.1843 H         1 SAM         0.0996
@<TRIPOS>BOND
     1    1    2 1  
     2    2    3 1  
     3    2    6 1  
     4    3    4 ar 
     5    3    5 ar 
     6    6    7 1  
     7    7    8 1  
     8    8    9 1  
     9    8   10 1  
    10   10   11 1  
    11   11   12 1  
    12   11   13 1  
    13   12   17 1  
    14   13   14 1  
    15   13   15 1  
    16   15   16 1  
    17   15   17 1  
    18   17   18 1  
    19   18   19 1  
    20   18   27 1  
    21   19   20 2  
    22   20   21 1  
    23   21   22 ar 
    24   21   27 ar 
    25   22   23 1  
    26   22   24 ar 
    27   24   25 ar 
    28   25   26 ar 
    29   26   27 ar 
    30    1   28 1  
    31    1   29 1  
    32    1   30 1  
    33    2   31 1  
    34    6   32 1  
    35    6   33 1  
    36    7   34 1  
    37    7   35 1  
    38    9   36 1  
    39    9   37 1  
    40    9   38 1  
    41   10   39 1  
    42   10   40 1  
    43   11   41 1  
    44   13   42 1  
    45   14   43 1  
    46   15   44 1  
    47   16   45 1  
    48   17   46 1  
    49   19   47 1  
    50   23   48 1  
    51   23   49 1  
    52   25   50 1  
@<TRIPOS>SUBSTRUCTURE
     1 SAM         1

