### 
### Created by X-TOOL on Mon Sep 10 21:13:19 2018
### 

@<TRIPOS>MOLECULE
4buq_ligand
   45    45     1     0     0
SMALL
GAST_HUCK


@<TRIPOS>ATOM
      1 O6         21.5880   -4.6460    5.2170 O.3       1 KGM        -0.3924
      2 C6         21.9480   -5.2020    6.5060 C.3       1 KGM         0.0730
      3 C5         20.7850   -6.0600    7.0150 C.3       1 KGM         0.1130
      4 C10        20.1990   -5.8900   13.5660 C.3       1 KGM        -0.0530
      5 O5         19.6130   -5.2220    7.1330 O.3       1 KGM        -0.3405
      6 C4         20.4940   -7.1770    6.0630 C.3       1 KGM         0.1119
      7 O4         21.6730   -8.0430    5.9980 O.3       1 KGM        -0.3865
      8 C3         19.3210   -7.9820    6.5990 C.3       1 KGM         0.1141
      9 O3         19.0330   -9.0150    5.6520 O.3       1 KGM        -0.3864
     10 C2         18.0940   -7.0760    6.7340 C.3       1 KGM         0.1341
     11 O2         17.7700   -6.5580    5.4730 O.3       1 KGM        -0.3841
     12 C1         18.4280   -5.9240    7.6330 C.3       1 KGM         0.1879
     13 O1         18.7600   -6.4330    8.9360 O.3       1 KGM        -0.3487
     14 C7         19.0290   -5.4320    9.9330 C.3       1 KGM         0.0508
     15 C8         19.4450   -6.1850   11.2030 C.3       1 KGM        -0.0294
     16 C9         19.7640   -5.1740   12.2920 C.3       1 KGM        -0.0510
     17 C13        21.3020   -4.5610   17.0320 C.3       1 KGM        -0.0653
     18 C12        20.9730   -5.5570   15.9150 C.3       1 KGM        -0.0559
     19 C11        20.5220   -4.8420   14.6400 C.3       1 KGM        -0.0533
     20 H          22.3036   -4.1118    4.8928 H         1 KGM         0.2095
     21 H          22.1457   -4.3872    7.2181 H         1 KGM         0.0584
     22 H          22.8488   -5.8246    6.4017 H         1 KGM         0.0584
     23 H          21.0429   -6.4788    7.9989 H         1 KGM         0.0647
     24 H          21.0934   -6.4968   13.3615 H         1 KGM         0.0265
     25 H          19.3864   -6.5420   13.9190 H         1 KGM         0.0265
     26 H          20.2574   -6.7780    5.0656 H         1 KGM         0.0647
     27 H          22.4182   -7.5391    5.6925 H         1 KGM         0.2100
     28 H          19.5747   -8.4187    7.5762 H         1 KGM         0.0648
     29 H          18.3013   -9.5343    5.9642 H         1 KGM         0.2100
     30 H          17.2466   -7.6459    7.1428 H         1 KGM         0.0671
     31 H          17.5774   -7.2732    4.8780 H         1 KGM         0.2101
     32 H          17.5728   -5.2348    7.6935 H         1 KGM         0.0937
     33 H          18.1261   -4.8336   10.1243 H         1 KGM         0.0561
     34 H          19.8427   -4.7715    9.5989 H         1 KGM         0.0561
     35 H          20.3352   -6.7967   10.9948 H         1 KGM         0.0287
     36 H          18.6218   -6.8358   11.5329 H         1 KGM         0.0287
     37 H          20.5763   -4.5160   11.9498 H         1 KGM         0.0266
     38 H          18.8679   -4.5716   12.5019 H         1 KGM         0.0266
     39 H          21.6215   -5.1098   17.9302 H         1 KGM         0.0230
     40 H          20.4083   -3.9639   17.2658 H         1 KGM         0.0230
     41 H          22.1124   -3.8944   16.7020 H         1 KGM         0.0230
     42 H          20.1661   -6.2224   16.2559 H         1 KGM         0.0263
     43 H          21.8702   -6.1530   15.6920 H         1 KGM         0.0263
     44 H          19.6245   -4.2422   14.8516 H         1 KGM         0.0265
     45 H          21.3272   -4.1835   14.2822 H         1 KGM         0.0265
@<TRIPOS>BOND
     1    2    1 1  
     2    3    2 1  
     3    5    3 1  
     4    3    6 1  
     5    4   16 1  
     6   19    4 1  
     7   12    5 1  
     8    6    7 1  
     9    8    6 1  
    10    8    9 1  
    11   10    8 1  
    12   10   11 1  
    13   12   10 1  
    14   13   12 1  
    15   14   13 1  
    16   15   14 1  
    17   16   15 1  
    18   18   17 1  
    19   18   19 1  
    20    1   20 1  
    21    2   21 1  
    22    2   22 1  
    23    3   23 1  
    24    4   24 1  
    25    4   25 1  
    26    6   26 1  
    27    7   27 1  
    28    8   28 1  
    29    9   29 1  
    30   10   30 1  
    31   11   31 1  
    32   12   32 1  
    33   14   33 1  
    34   14   34 1  
    35   15   35 1  
    36   15   36 1  
    37   16   37 1  
    38   16   38 1  
    39   17   39 1  
    40   17   40 1  
    41   17   41 1  
    42   18   42 1  
    43   18   43 1  
    44   19   44 1  
    45   19   45 1  
@<TRIPOS>SUBSTRUCTURE
     1 KGM         1

