### 
### Created by X-TOOL on Mon Sep 10 21:13:13 2018
### 

@<TRIPOS>MOLECULE
4bvb_ligand
   30    32     1     0     0
SMALL
GAST_HUCK


@<TRIPOS>ATOM
      1 NAQ         5.3730  -15.6230    0.9110 N.am      1 OCZ        -0.2990
      2 OAP         6.9950  -16.2250    2.3200 O.2       1 OCZ        -0.3940
      3 CAO         6.4230  -15.3480    1.6730 C.2       1 OCZ         0.1896
      4 NAG         9.3650  -13.9460    2.3000 N.pl3     1 OCZ        -0.2794
      5 CAJ         6.6770  -12.5900    4.4030 C.3       1 OCZ        -0.0415
      6 CAD        11.3910  -13.5720    3.6200 C.ar      1 OCZ        -0.0475
      7 CAC        11.9350  -13.0100    4.7490 C.ar      1 OCZ        -0.0662
      8 CAE        10.0730  -13.4840    3.3650 C.ar      1 OCZ         0.0565
      9 CL         11.8330  -11.6950    7.1870 Cl        1 OCZ        -0.0834
     10 CAF         9.2160  -12.9580    4.2830 C.ar      1 OCZ        -0.0306
     11 CAA         9.6980  -12.3980    5.4180 C.ar      1 OCZ        -0.0656
     12 CAH         7.9540  -13.0920    3.8180 C.2       1 OCZ        -0.0453
     13 CAI         8.0450  -13.6990    2.5690 C.2       1 OCZ         0.0600
     14 CAB        11.0860  -12.4180    5.6910 C.ar      1 OCZ         0.0188
     15 CAM         5.4040  -13.0460    3.5050 C.3       1 OCZ        -0.0464
     16 CAK         6.8870  -13.9510    1.7020 C.3       1 OCZ         0.0997
     17 CAL         5.7450  -12.8840    2.0340 C.3       1 OCZ        -0.0213
     18 H1          4.9251  -14.8931    0.3946 H         1 OCZ         0.1816
     19 H2          5.0292  -16.5602    0.8528 H         1 OCZ         0.1816
     20 H3          9.7471  -14.3945    1.4552 H         1 OCZ         0.2219
     21 H4          6.7098  -11.4914    4.4480 H         1 OCZ         0.0322
     22 H5          6.5634  -12.9954    5.4192 H         1 OCZ         0.0322
     23 H6         12.0347  -14.0955    2.9224 H         1 OCZ         0.0532
     24 H7         13.0071  -13.0248    4.9082 H         1 OCZ         0.0509
     25 H8          9.0168  -11.9321    6.1208 H         1 OCZ         0.0518
     26 H9          4.5356  -12.4177    3.7524 H         1 OCZ         0.0279
     27 H10         5.1657  -14.0995    3.7132 H         1 OCZ         0.0279
     28 H11         7.2203  -13.7374    0.6757 H         1 OCZ         0.0712
     29 H12         6.1116  -11.8651    1.8407 H         1 OCZ         0.0315
     30 H13         4.8557  -13.0772    1.4160 H         1 OCZ         0.0315
@<TRIPOS>BOND
     1    3    1 am 
     2    3    2 2  
     3   16    3 1  
     4    4    8 1  
     5   13    4 1  
     6   12    5 1  
     7    5   15 1  
     8    6    7 ar 
     9    8    6 ar 
    10   14    7 ar 
    11   10    8 ar 
    12   14    9 1  
    13   10   11 ar 
    14   12   10 1  
    15   11   14 ar 
    16   13   12 2  
    17   13   16 1  
    18   15   17 1  
    19   16   17 1  
    20    1   18 1  
    21    1   19 1  
    22    4   20 1  
    23    5   21 1  
    24    5   22 1  
    25    6   23 1  
    26    7   24 1  
    27   11   25 1  
    28   15   26 1  
    29   15   27 1  
    30   16   28 1  
    31   17   29 1  
    32   17   30 1  
@<TRIPOS>SUBSTRUCTURE
     1 OCZ         1

