### 
### Created by X-TOOL on Mon Sep 10 21:13:14 2018
### 

@<TRIPOS>MOLECULE
4bw1_ligand
   55    58     1     0     0
SMALL
GAST_HUCK


@<TRIPOS>ATOM
      1 C01        11.0650    5.4420   12.6420 C.3       1 S5B        -0.0266
      2 C02        12.0390    6.4310   12.1030 C.2       1 S5B         0.0250
      3 N01        11.8000    7.7050   12.2460 N.2       1 S5B        -0.1661
      4 O01        12.8910    8.3840   11.6410 O.3       1 S5B        -0.1716
      5 C03        13.7380    7.4650   11.1630 C.2       1 S5B         0.1494
      6 C04        14.9550    7.9800   10.4910 C.3       1 S5B         0.0144
      7 C05        13.2570    6.2240   11.4210 C.2       1 S5B         0.0245
      8 C06        13.8950    4.9390   11.0480 C.ar      1 S5B        -0.0359
      9 C07        14.2150    4.6710    9.7200 C.ar      1 S5B        -0.0585
     10 C08        14.8090    3.5000    9.3640 C.ar      1 S5B        -0.0484
     11 C09        15.1140    2.5060   10.3300 C.ar      1 S5B         0.0366
     12 C10        15.7460    1.2510   10.0220 C.ar      1 S5B         0.1145
     13 N02        16.0920    0.8420    8.7350 N.pl3     1 S5B        -0.2371
     14 C11        16.4570    1.6510    7.6270 C.ar      1 S5B         0.0961
     15 C12        17.7140    2.2530    7.6410 C.ar      1 S5B        -0.0053
     16 C13        18.1260    3.0450    6.5830 C.ar      1 S5B        -0.0431
     17 C14        17.3030    3.2470    5.4990 C.ar      1 S5B        -0.0443
     18 C15        16.0510    2.6590    5.4490 C.ar      1 S5B        -0.0494
     19 C16        15.5900    1.8600    6.4920 C.ar      1 S5B        -0.0278
     20 C17        14.1800    1.2270    6.3630 C.3       1 S5B        -0.0570
     21 C18        13.2460    2.1340    5.5560 C.3       1 S5B        -0.0926
     22 C19        14.2660   -0.1010    5.6190 C.3       1 S5B        -0.0926
     23 C20        13.4660    0.9710    7.6970 C.3       1 S5B        -0.0926
     24 C21        15.9750    0.3620   11.1150 C.ar      1 S5B         0.0603
     25 C22        15.6040    0.7630   12.3940 C.ar      1 S5B         0.0051
     26 N1         15.0320    1.8960   12.7090 N.ar      1 S5B        -0.3180
     27 C23        14.7850    2.7770   11.6890 C.ar      1 S5B         0.0275
     28 C24        14.1730    4.0070   12.0180 C.ar      1 S5B        -0.0502
     29 C1         16.6300   -0.9710   10.9810 C.2       1 S5B         0.0601
     30 O02        17.1640   -1.2000    9.8170 O.co2     1 S5B        -0.5650
     31 O1         16.6840   -1.7670   11.9120 O.co2     1 S5B        -0.5650
     32 H1         11.4237    4.4232   12.4337 H         1 S5B         0.0380
     33 H2         10.0867    5.5916   12.1618 H         1 S5B         0.0380
     34 H3         10.9651    5.5805   13.7287 H         1 S5B         0.0380
     35 H4         15.5676    7.1349   10.1438 H         1 S5B         0.0474
     36 H5         15.5364    8.5872   11.2004 H         1 S5B         0.0474
     37 H6         14.6640    8.5999    9.6302 H         1 S5B         0.0474
     38 H7         13.9873    5.4070    8.9575 H         1 S5B         0.0583
     39 H8         15.0539    3.3228    8.3230 H         1 S5B         0.0655
     40 H9         16.0815   -0.1742    8.5670 H         1 S5B         0.2342
     41 H10        18.3742    2.0998    8.4870 H         1 S5B         0.0625
     42 H11        19.1050    3.5098    6.6087 H         1 S5B         0.0812
     43 H12        17.6376    3.8711    4.6783 H         1 S5B         0.0620
     44 H13        15.4190    2.8232    4.5837 H         1 S5B         0.0789
     45 H14        12.2546    1.6637    5.4790 H         1 S5B         0.0110
     46 H15        13.6603    2.2831    4.5480 H         1 S5B         0.0110
     47 H16        13.1522    3.1065    6.0615 H         1 S5B         0.0110
     48 H17        14.9302   -0.7858    6.1667 H         1 S5B         0.0110
     49 H18        14.6675    0.0697    4.6092 H         1 S5B         0.0110
     50 H19        13.2624   -0.5452    5.5443 H         1 S5B         0.0110
     51 H20        13.3886    1.9139    8.2583 H         1 S5B         0.0110
     52 H21        14.0397    0.2400    8.2856 H         1 S5B         0.0110
     53 H22        12.4579    0.5758    7.5034 H         1 S5B         0.0110
     54 H23        15.8078    0.0727   13.2045 H         1 S5B         0.0833
     55 H24        13.9192    4.2183   13.0505 H         1 S5B         0.0523
@<TRIPOS>BOND
     1    1    2 1  
     2    2    3 2  
     3    2    7 1  
     4    3    4 1  
     5    4    5 1  
     6    5    6 1  
     7    5    7 2  
     8    7    8 1  
     9    8    9 ar 
    10    8   28 ar 
    11    9   10 ar 
    12   10   11 ar 
    13   11   12 ar 
    14   11   27 ar 
    15   12   13 1  
    16   12   24 ar 
    17   13   14 1  
    18   14   15 ar 
    19   14   19 ar 
    20   15   16 ar 
    21   16   17 ar 
    22   17   18 ar 
    23   18   19 ar 
    24   19   20 1  
    25   20   21 1  
    26   20   22 1  
    27   20   23 1  
    28   24   25 ar 
    29   24   29 1  
    30   25   26 ar 
    31   26   27 ar 
    32   27   28 ar 
    33   29   30 ar 
    34   29   31 ar 
    35    1   32 1  
    36    1   33 1  
    37    1   34 1  
    38    6   35 1  
    39    6   36 1  
    40    6   37 1  
    41    9   38 1  
    42   10   39 1  
    43   13   40 1  
    44   15   41 1  
    45   16   42 1  
    46   17   43 1  
    47   18   44 1  
    48   21   45 1  
    49   21   46 1  
    50   21   47 1  
    51   22   48 1  
    52   22   49 1  
    53   22   50 1  
    54   23   51 1  
    55   23   52 1  
    56   23   53 1  
    57   25   54 1  
    58   28   55 1  
@<TRIPOS>SUBSTRUCTURE
     1 S5B         1

