### 
### Created by X-TOOL on Mon Sep 10 21:13:13 2018
### 

@<TRIPOS>MOLECULE
4bw2_ligand
   54    57     1     0     0
SMALL
GAST_HUCK


@<TRIPOS>ATOM
      1 C01        11.4140    5.6450   12.6060 C.3       1 UTH        -0.0256
      2 C02        12.3490    6.6330   11.9990 C.2       1 UTH         0.0298
      3 N01        12.1260    7.9090   12.1630 N.2       1 UTH        -0.1630
      4 O01        13.1700    8.5850   11.4770 O.3       1 UTH        -0.1665
      5 C03        13.9700    7.6640   10.9260 C.2       1 UTH         0.1574
      6 C04        15.1320    8.1760   10.1600 C.3       1 UTH         0.0177
      7 C05        13.5040    6.4240   11.2170 C.2       1 UTH         0.0448
      8 C06        14.0590    5.1180   10.8010 C.ar      1 UTH         0.0283
      9 C07        14.3530    4.8670    9.4670 C.ar      1 UTH        -0.0340
     10 C08        14.8540    3.6550    9.1230 C.ar      1 UTH        -0.0319
     11 C09        15.0610    2.6670   10.1100 C.ar      1 UTH         0.0618
     12 C10        15.5980    1.3650    9.8230 C.ar      1 UTH         0.1209
     13 N02        15.9190    0.8990    8.5440 N.pl3     1 UTH        -0.2357
     14 C11        16.2890    1.6630    7.3760 C.ar      1 UTH         0.0967
     15 C12        17.5690    2.2130    7.3440 C.ar      1 UTH        -0.0051
     16 C13        17.9910    2.9520    6.2520 C.ar      1 UTH        -0.0429
     17 C14        17.1540    3.1540    5.1790 C.ar      1 UTH        -0.0441
     18 C15        15.8780    2.6200    5.1730 C.ar      1 UTH        -0.0493
     19 C16        15.4040    1.8760    6.2490 C.ar      1 UTH        -0.0274
     20 C17        13.9680    1.2950    6.1670 C.3       1 UTH        -0.0567
     21 C18        13.1340    2.0010    5.0800 C.3       1 UTH        -0.0924
     22 C19        13.1660    1.4280    7.4640 C.3       1 UTH        -0.0924
     23 C20        14.0170   -0.1790    5.7880 C.3       1 UTH        -0.0924
     24 C21        15.7240    0.5090   10.9520 C.ar      1 UTH         0.0634
     25 C22        15.3700    0.9720   12.2140 C.ar      1 UTH         0.0090
     26 N1         14.8780    2.1510   12.4910 N.ar      1 UTH        -0.3005
     27 C23        14.7290    3.0130   11.4440 C.ar      1 UTH         0.0901
     28 C1         16.2880   -0.8680   10.8760 C.2       1 UTH         0.0609
     29 O02        16.6760   -1.2260    9.6910 O.co2     1 UTH        -0.5649
     30 O1         16.4470   -1.5570   11.8760 O.co2     1 UTH        -0.5649
     31 N51        14.2230    4.2340   11.7880 N.ar      1 UTH        -0.2989
     32 H1         11.7528    4.6258   12.3686 H         1 UTH         0.0383
     33 H2         10.4033    5.7993   12.2002 H         1 UTH         0.0383
     34 H3         11.3955    5.7802   13.6975 H         1 UTH         0.0383
     35 H4         15.7088    7.3294    9.7593 H         1 UTH         0.0488
     36 H5         15.7731    8.7753   10.8232 H         1 UTH         0.0488
     37 H6         14.7761    8.8030    9.3292 H         1 UTH         0.0488
     38 H7         14.1847    5.6276    8.7132 H         1 UTH         0.0640
     39 H8         15.0962    3.4441    8.0877 H         1 UTH         0.0780
     40 H9         15.8873   -0.1229    8.4189 H         1 UTH         0.2348
     41 H10        18.2402    2.0609    8.1815 H         1 UTH         0.0626
     42 H11        18.9891    3.3749    6.2423 H         1 UTH         0.0813
     43 H12        17.4972    3.7363    4.3315 H         1 UTH         0.0621
     44 H13        15.2361    2.7840    4.3150 H         1 UTH         0.0790
     45 H14        12.1249    1.5642    5.0507 H         1 UTH         0.0110
     46 H15        13.6193    1.8687    4.1018 H         1 UTH         0.0110
     47 H16        13.0625    3.0739    5.3117 H         1 UTH         0.0110
     48 H17        13.7124    0.9402    8.2846 H         1 UTH         0.0110
     49 H18        12.1849    0.9464    7.3395 H         1 UTH         0.0110
     50 H19        13.0244    2.4930    7.7000 H         1 UTH         0.0110
     51 H20        14.5897   -0.2992    4.8566 H         1 UTH         0.0110
     52 H21        12.9935   -0.5538    5.6400 H         1 UTH         0.0110
     53 H22        14.5032   -0.7488    6.5935 H         1 UTH         0.0110
     54 H23        15.5155    0.2922   13.0457 H         1 UTH         0.0857
@<TRIPOS>BOND
     1    1    2 1  
     2    2    3 2  
     3    2    7 1  
     4    3    4 1  
     5    4    5 1  
     6    5    6 1  
     7    5    7 2  
     8    7    8 1  
     9    8    9 ar 
    10    8   31 ar 
    11    9   10 ar 
    12   10   11 ar 
    13   11   12 ar 
    14   11   27 ar 
    15   12   13 1  
    16   12   24 ar 
    17   13   14 1  
    18   14   15 ar 
    19   14   19 ar 
    20   15   16 ar 
    21   16   17 ar 
    22   17   18 ar 
    23   18   19 ar 
    24   19   20 1  
    25   20   21 1  
    26   20   22 1  
    27   20   23 1  
    28   24   25 ar 
    29   24   28 1  
    30   25   26 ar 
    31   26   27 ar 
    32   27   31 ar 
    33   28   29 ar 
    34   28   30 ar 
    35    1   32 1  
    36    1   33 1  
    37    1   34 1  
    38    6   35 1  
    39    6   36 1  
    40    6   37 1  
    41    9   38 1  
    42   10   39 1  
    43   13   40 1  
    44   15   41 1  
    45   16   42 1  
    46   17   43 1  
    47   18   44 1  
    48   21   45 1  
    49   21   46 1  
    50   21   47 1  
    51   22   48 1  
    52   22   49 1  
    53   22   50 1  
    54   23   51 1  
    55   23   52 1  
    56   23   53 1  
    57   25   54 1  
@<TRIPOS>SUBSTRUCTURE
     1 UTH         1

