### 
### Created by X-TOOL on Mon Sep 10 21:13:15 2018
### 

@<TRIPOS>MOLECULE
4bw3_ligand
   58    61     1     0     0
SMALL
GAST_HUCK


@<TRIPOS>ATOM
      1 C01         9.9490    5.0650   12.2350 C.3       1 9BM        -0.0267
      2 C02        10.9040    6.0860   11.7150 C.2       1 9BM         0.0251
      3 N01        10.5820    7.3480   11.7790 N.2       1 9BM        -0.1663
      4 O01        11.6720    8.0620   11.2160 O.3       1 9BM        -0.1722
      5 C03        12.6050    7.1750   10.8450 C.2       1 9BM         0.1489
      6 C04        13.8330    7.7350   10.2290 C.3       1 9BM         0.0140
      7 C05        12.1760    5.9190   11.1230 C.2       1 9BM         0.0310
      8 C06        12.8920    4.6530   10.8520 C.ar      1 9BM         0.0290
      9 C07        13.2560    4.3230    9.5370 C.ar      1 9BM         0.1705
     10 C09        14.2120    2.3740   10.1070 C.ar      1 9BM         0.0872
     11 C10        14.9140    1.1830    9.7550 C.ar      1 9BM         0.1224
     12 N02        15.2200    0.8880    8.4320 N.pl3     1 9BM        -0.2379
     13 C11        15.4610    1.7800    7.3520 C.ar      1 9BM         0.0956
     14 C12        16.6500    2.5100    7.3350 C.ar      1 9BM        -0.0055
     15 C13        16.9260    3.3740    6.2900 C.ar      1 9BM        -0.0432
     16 C14        16.0390    3.5150    5.2470 C.ar      1 9BM        -0.0444
     17 C15        14.8560    2.7950    5.2290 C.ar      1 9BM        -0.0496
     18 C16        14.5290    1.9230    6.2650 C.ar      1 9BM        -0.0281
     19 C17        13.1950    1.1370    6.1760 C.3       1 9BM        -0.0572
     20 C19        12.2090    1.8040    5.2010 C.3       1 9BM        -0.0927
     21 C18        13.4520   -0.2810    5.6690 C.3       1 9BM        -0.0927
     22 C20        12.4560    1.0290    7.5140 C.3       1 9BM        -0.0927
     23 C21        15.2290    0.2900   10.8000 C.ar      1 9BM         0.0611
     24 C22        14.8570    0.6380   12.1060 C.ar      1 9BM         0.0064
     25 N1         14.2210    1.7250   12.4690 N.ar      1 9BM        -0.3145
     26 C23        13.8860    2.6190   11.4830 C.ar      1 9BM         0.0436
     27 C24        13.2040    3.7930   11.8670 C.ar      1 9BM        -0.0339
     28 C1         15.9620   -0.9910   10.5830 C.2       1 9BM         0.0614
     29 C00        13.6420    5.3540    7.4310 C.3       1 9BM         0.0646
     30 O1         16.3740   -1.3060    9.4730 O.co2     1 9BM        -0.5643
     31 O02        16.1450   -1.7230   11.6440 O.co2     1 9BM        -0.5643
     32 O05        12.8790    5.2530    8.6370 O.3       1 9BM        -0.2985
     33 N07        13.8830    3.2620    9.1150 N.ar      1 9BM        -0.2700
     34 H1         10.3780    4.0608   12.1028 H         1 9BM         0.0380
     35 H2          9.0008    5.1344   11.6817 H         1 9BM         0.0380
     36 H3          9.7639    5.2468   13.3040 H         1 9BM         0.0380
     37 H4         14.5190    6.9155    9.9686 H         1 9BM         0.0473
     38 H5         14.3251    8.4123   10.9425 H         1 9BM         0.0473
     39 H6         13.5655    8.2923    9.3192 H         1 9BM         0.0473
     40 H7         15.2804   -0.1143    8.2026 H         1 9BM         0.2335
     41 H8         17.3617    2.3996    8.1452 H         1 9BM         0.0624
     42 H9         17.8479    3.9442    6.2928 H         1 9BM         0.0811
     43 H10        16.2680    4.1944    4.4339 H         1 9BM         0.0620
     44 H11        14.1734    2.9119    4.3951 H         1 9BM         0.0788
     45 H12        11.2776    1.2199    5.1646 H         1 9BM         0.0109
     46 H13        12.6564    1.8435    4.1969 H         1 9BM         0.0109
     47 H14        11.9880    2.8254    5.5445 H         1 9BM         0.0109
     48 H15        14.1555   -0.7900    6.3444 H         1 9BM         0.0109
     49 H16        13.8820   -0.2365    4.6575 H         1 9BM         0.0109
     50 H17        12.5037   -0.8376    5.6401 H         1 9BM         0.0109
     51 H18        12.2564    2.0376    7.9051 H         1 9BM         0.0109
     52 H19        13.0771    0.4736    8.2322 H         1 9BM         0.0109
     53 H20        11.5040    0.4984    7.3653 H         1 9BM         0.0109
     54 H21        15.1211   -0.0599   12.8923 H         1 9BM         0.0824
     55 H22        12.9447    3.9991   12.8991 H         1 9BM         0.0637
     56 H23        13.2220    6.1487    6.7969 H         1 9BM         0.0587
     57 H24        13.6039    4.3960    6.8917 H         1 9BM         0.0587
     58 H25        14.6867    5.5950    7.6771 H         1 9BM         0.0587
@<TRIPOS>BOND
     1    2    1 1  
     2    2    3 2  
     3    7    2 1  
     4    4    3 1  
     5    5    4 1  
     6    5    6 1  
     7    7    5 2  
     8    8    7 1  
     9    9    8 ar 
    10    8   27 ar 
    11    9   32 1  
    12   33    9 ar 
    13   10   11 ar 
    14   10   26 ar 
    15   10   33 ar 
    16   11   12 1  
    17   11   23 ar 
    18   12   13 1  
    19   13   14 ar 
    20   13   18 ar 
    21   14   15 ar 
    22   15   16 ar 
    23   16   17 ar 
    24   17   18 ar 
    25   18   19 1  
    26   19   20 1  
    27   19   21 1  
    28   19   22 1  
    29   23   24 ar 
    30   23   28 1  
    31   24   25 ar 
    32   25   26 ar 
    33   26   27 ar 
    34   28   30 ar 
    35   28   31 ar 
    36   32   29 1  
    37    1   34 1  
    38    1   35 1  
    39    1   36 1  
    40    6   37 1  
    41    6   38 1  
    42    6   39 1  
    43   12   40 1  
    44   14   41 1  
    45   15   42 1  
    46   16   43 1  
    47   17   44 1  
    48   20   45 1  
    49   20   46 1  
    50   20   47 1  
    51   21   48 1  
    52   21   49 1  
    53   21   50 1  
    54   22   51 1  
    55   22   52 1  
    56   22   53 1  
    57   24   54 1  
    58   27   55 1  
    59   29   56 1  
    60   29   57 1  
    61   29   58 1  
@<TRIPOS>SUBSTRUCTURE
     1 9BM         1

