### 
### Created by X-TOOL on Mon Sep 10 21:13:14 2018
### 

@<TRIPOS>MOLECULE
4bw4_ligand
   50    54     1     0     0
SMALL
GAST_HUCK


@<TRIPOS>ATOM
      1 C01        13.4400    4.6070    7.3460 C.3       1 9B6         0.0640
      2 O05        12.8670    4.7930    8.6480 O.3       1 9B6        -0.3011
      3 C06        13.1690    3.8840    9.6000 C.ar      1 9B6         0.1623
      4 N07        13.7890    2.7940    9.2490 N.ar      1 9B6        -0.2825
      5 C08        14.0430    1.9320   10.2860 C.ar      1 9B6         0.0702
      6 C09        14.7200    0.7010   10.0280 C.ar      1 9B6         0.1488
      7 N10        15.2250    0.1030    8.8820 N.am      1 9B6        -0.1484
      8 C11        15.1970    0.6720    7.5550 C.ar      1 9B6         0.1282
      9 C12        16.4000    1.1770    7.0710 C.ar      1 9B6        -0.0412
     10 C14        16.4410    1.7580    5.8160 C.ar      1 9B6        -0.0834
     11 C16        15.3000    1.8560    5.0540 C.ar      1 9B6        -0.0834
     12 C18        14.0940    1.3650    5.5260 C.ar      1 9B6        -0.0424
     13 C20        14.0340    0.7780    6.7850 C.ar      1 9B6         0.1300
     14 O21        12.8920    0.2510    7.3870 O.3       1 9B6        -0.2300
     15 C22        11.7500    0.3190    6.7040 C.3       1 9B6         0.5444
     16 F23        11.3750    1.5490    6.3840 F         1 9B6        -0.1402
     17 F24        10.7970   -0.1820    7.4640 F         1 9B6        -0.1402
     18 F25        11.7610   -0.4120    5.6050 F         1 9B6        -0.1402
     19 C26        15.7760   -1.0640    9.2160 C.2       1 9B6         0.3396
     20 O27        16.3160   -1.8240    8.4300 O.2       1 9B6        -0.3846
     21 N28        15.6220   -1.2340   10.5640 N.am      1 9B6        -0.2104
     22 C30        14.9590   -0.1480   11.1110 C.ar      1 9B6         0.1222
     23 C31        14.5290    0.2340   12.3780 C.ar      1 9B6         0.0141
     24 N33        13.9030    1.3520   12.6630 N.ar      1 9B6        -0.3307
     25 C34        13.6460    2.2240   11.6300 C.ar      1 9B6         0.0274
     26 C35        12.9760    3.4250   11.9420 C.ar      1 9B6        -0.0422
     27 C37        12.7430    4.2600   10.8860 C.ar      1 9B6         0.0219
     28 C38        12.0560    5.5540   11.0950 C.2       1 9B6         0.0264
     29 C39        10.7920    5.7940   11.6750 C.2       1 9B6         0.0236
     30 C40         9.7970    4.8340   12.2360 C.3       1 9B6        -0.0270
     31 N44        10.5180    7.0710   11.6790 N.2       1 9B6        -0.1673
     32 O45        11.6370    7.7160   11.0900 O.3       1 9B6        -0.1739
     33 C46        12.5350    6.7780   10.7640 C.2       1 9B6         0.1462
     34 C47        13.7910    7.2630   10.1370 C.3       1 9B6         0.0128
     35 H1         13.1083    5.4174    6.6803 H         1 9B6         0.0586
     36 H2         13.1138    3.6395    6.9366 H         1 9B6         0.0586
     37 H3         14.5372    4.6216    7.4227 H         1 9B6         0.0586
     38 H4         17.2992    1.1156    7.6733 H         1 9B6         0.0498
     39 H5         17.3797    2.1390    5.4302 H         1 9B6         0.0491
     40 H6         15.3451    2.3214    4.0760 H         1 9B6         0.0482
     41 H7         13.2006    1.4381    4.9164 H         1 9B6         0.0503
     42 H8         15.9420   -2.0282   11.0806 H         1 9B6         0.2267
     43 H9         14.7273   -0.4478   13.1971 H         1 9B6         0.0713
     44 H10        12.6666    3.6693   12.9518 H         1 9B6         0.0620
     45 H11         8.9202    5.3875   12.6032 H         1 9B6         0.0379
     46 H12        10.2534    4.2769   13.0674 H         1 9B6         0.0379
     47 H13         9.4838    4.1300   11.4510 H         1 9B6         0.0379
     48 H14        13.7600    8.3595   10.0545 H         1 9B6         0.0468
     49 H15        13.8941    6.8226    9.1343 H         1 9B6         0.0468
     50 H16        14.6492    6.9662   10.7579 H         1 9B6         0.0468
@<TRIPOS>BOND
     1    1    2 1  
     2    2    3 1  
     3    3    4 ar 
     4    3   27 ar 
     5    4    5 ar 
     6    5    6 ar 
     7    5   25 ar 
     8    6    7 1  
     9    6   22 ar 
    10    7    8 1  
    11    7   19 am 
    12    8    9 ar 
    13    8   13 ar 
    14    9   10 ar 
    15   10   11 ar 
    16   11   12 ar 
    17   12   13 ar 
    18   13   14 1  
    19   14   15 1  
    20   15   16 1  
    21   15   17 1  
    22   15   18 1  
    23   19   20 2  
    24   19   21 am 
    25   21   22 1  
    26   22   23 ar 
    27   23   24 ar 
    28   24   25 ar 
    29   25   26 ar 
    30   26   27 ar 
    31   27   28 1  
    32   28   29 1  
    33   28   33 2  
    34   29   30 1  
    35   29   31 2  
    36   31   32 1  
    37   32   33 1  
    38   33   34 1  
    39    1   35 1  
    40    1   36 1  
    41    1   37 1  
    42    9   38 1  
    43   10   39 1  
    44   11   40 1  
    45   12   41 1  
    46   21   42 1  
    47   23   43 1  
    48   26   44 1  
    49   30   45 1  
    50   30   46 1  
    51   30   47 1  
    52   34   48 1  
    53   34   49 1  
    54   34   50 1  
@<TRIPOS>SUBSTRUCTURE
     1 9B6         1

