### 
### Created by X-TOOL on Mon Sep 10 21:13:15 2018
### 

@<TRIPOS>MOLECULE
4bxn_ligand
   73    76     1     0     0
SMALL
GAST_HUCK


@<TRIPOS>ATOM
      1 CAW         7.7870   10.2580    5.1880 C.ar      1 6LX        -0.0485
      2 CAX         7.0260    9.3340    5.9370 C.ar      1 6LX        -0.0547
      3 CAY         5.7130    9.6430    6.3060 C.ar      1 6LX        -0.0414
      4 CAZ         4.8580    8.5990    7.1490 C.3       1 6LX        -0.0289
      5 CAO         5.1580   10.8610    5.9360 C.ar      1 6LX        -0.0547
      6 CAN         5.9210   11.7820    5.1880 C.ar      1 6LX        -0.0485
      7 CAM         7.2380   11.4700    4.8180 C.ar      1 6LX         0.0431
      8 CAL         8.0660   12.4540    4.0140 C.2       1 6LX         0.2042
      9 OAV         8.7200   13.3120    4.6290 O.2       1 6LX        -0.3875
     10 NAK         8.1110   12.4130    2.5350 N.am      1 6LX        -0.2596
     11 CAU         8.9500   13.4150    1.8020 C.3       1 6LX         0.0402
     12 CBC         8.3280   14.7810    1.4980 C.3       1 6LX         0.0079
     13 CBD         8.1780   15.7640    2.6220 C.3       1 6LX        -0.0335
     14 NBE         7.3300   15.3440    3.8030 N.4       1 6LX         0.2186
     15 CAJ         7.3230   11.3800    1.8360 C.3       1 6LX         0.0963
     16 CAB         7.9210   10.0300    1.9360 C.3       1 6LX        -0.0143
     17 CAA         7.7140    9.1690    0.6410 C.3       1 6LX        -0.0590
     18 CAC         9.4070    9.9510    2.4980 C.3       1 6LX        -0.0590
     19 CAI         7.0960   11.7690    0.3750 C.2       1 6LX         0.1004
     20 OAH         8.1560   11.9290   -0.3830 O.3       1 6LX        -0.2805
     21 CAG         8.0990   12.2800   -1.7230 C.ar      1 6LX         0.1156
     22 CAF         9.3170   12.4330   -2.4750 C.ar      1 6LX        -0.0224
     23 CAE         9.2610   12.7940   -3.8540 C.ar      1 6LX         0.0240
     24 CLA        10.7120   12.9770   -4.7540 Cl        1 6LX        -0.0800
     25 CAP         7.9990   13.0030   -4.4860 C.ar      1 6LX        -0.0662
     26 CAQ         6.8100   12.8530   -3.7510 C.ar      1 6LX        -0.0643
     27 CAR         6.8640   12.4860   -2.3490 C.ar      1 6LX         0.0235
     28 CAS         5.6300   12.3260   -1.5650 C.3       1 6LX         0.1029
     29 OBA         4.3880   12.5210   -2.1480 O.3       1 6LX        -0.3765
     30 CAT         5.7470   11.9570   -0.1670 C.2       1 6LX        -0.0109
     31 CBB         4.4520   11.7890    0.6550 C.3       1 6LX        -0.0030
     32 CBG         4.4320   10.4880    1.4590 C.ar      1 6LX        -0.0386
     33 CBF         5.0710   10.4840    2.6980 C.ar      1 6LX        -0.0595
     34 CBI         5.0940    9.2990    3.5090 C.ar      1 6LX        -0.0687
     35 CBJ         4.4720    8.1330    3.0610 C.ar      1 6LX        -0.0690
     36 CBK         3.8110    8.1210    1.7910 C.ar      1 6LX        -0.0687
     37 CBH         3.7910    9.2950    0.9910 C.ar      1 6LX        -0.0595
     38 H1          8.8043   10.0155    4.9028 H         1 6LX         0.0652
     39 H2          7.4602    8.3838    6.2264 H         1 6LX         0.0570
     40 H3          3.8583    9.0151    7.3424 H         1 6LX         0.0401
     41 H4          5.3631    8.3988    8.1054 H         1 6LX         0.0401
     42 H5          4.7614    7.6614    6.5820 H         1 6LX         0.0401
     43 H6          4.1407   11.1035    6.2213 H         1 6LX         0.0570
     44 H7          5.4888   12.7330    4.8984 H         1 6LX         0.0652
     45 H8          9.2355   12.9633    0.8406 H         1 6LX         0.0525
     46 H9          9.8520   13.5924    2.4061 H         1 6LX         0.0525
     47 H10         7.3228   14.5971    1.0908 H         1 6LX         0.0337
     48 H11         8.9532   15.2590    0.7295 H         1 6LX         0.0337
     49 H12         7.7322   16.6786    2.2038 H         1 6LX         0.0814
     50 H13         9.1857   15.9878    3.0019 H         1 6LX         0.0814
     51 H14         7.3097   16.0875    4.4834 H         1 6LX         0.1994
     52 H15         7.7237   14.5160    4.2218 H         1 6LX         0.1994
     53 H16         6.3917   15.1489    3.4905 H         1 6LX         0.1994
     54 H17         6.3387   11.3358    2.3251 H         1 6LX         0.0706
     55 H18         7.3171    9.5274    2.7058 H         1 6LX         0.0337
     56 H19         8.1793    8.1818    0.7788 H         1 6LX         0.0234
     57 H20         8.1800    9.6776   -0.2158 H         1 6LX         0.0234
     58 H21         6.6376    9.0438    0.4521 H         1 6LX         0.0234
     59 H22         9.4905   10.5719    3.4022 H         1 6LX         0.0234
     60 H23        10.1079   10.3192    1.7344 H         1 6LX         0.0234
     61 H24         9.6502    8.9073    2.7462 H         1 6LX         0.0234
     62 H25        10.2754   12.2741   -1.9940 H         1 6LX         0.0521
     63 H26         7.9570   13.2777   -5.5338 H         1 6LX         0.0510
     64 H27         5.8520   13.0118   -4.2327 H         1 6LX         0.0520
     65 H28         5.6615   13.3907   -1.2905 H         1 6LX         0.0803
     66 H29         4.3298   13.4105   -2.4766 H         1 6LX         0.2143
     67 H30         3.5944   11.7909   -0.0338 H         1 6LX         0.0508
     68 H31         4.3645   12.6355    1.3520 H         1 6LX         0.0508
     69 H32         5.5562   11.3859    3.0534 H         1 6LX         0.0556
     70 H33         5.5951    9.3104    4.4702 H         1 6LX         0.0599
     71 H34         4.4892    7.2385    3.6730 H         1 6LX         0.0557
     72 H35         3.3263    7.2171    1.4402 H         1 6LX         0.0599
     73 H36         3.2919    9.2882    0.0287 H         1 6LX         0.0556
@<TRIPOS>BOND
     1    1    2 ar 
     2    1    7 ar 
     3    2    3 ar 
     4    3    4 1  
     5    3    5 ar 
     6    5    6 ar 
     7    6    7 ar 
     8    7    8 1  
     9    8    9 2  
    10    8   10 am 
    11   10   11 1  
    12   10   15 1  
    13   11   12 1  
    14   12   13 1  
    15   13   14 1  
    16   15   16 1  
    17   15   19 1  
    18   16   17 1  
    19   16   18 1  
    20   19   20 1  
    21   19   30 2  
    22   20   21 1  
    23   21   22 ar 
    24   21   27 ar 
    25   22   23 ar 
    26   23   24 1  
    27   23   25 ar 
    28   25   26 ar 
    29   26   27 ar 
    30   27   28 1  
    31   28   29 1  
    32   28   30 1  
    33   30   31 1  
    34   31   32 1  
    35   32   33 ar 
    36   32   37 ar 
    37   33   34 ar 
    38   34   35 ar 
    39   35   36 ar 
    40   36   37 ar 
    41    1   38 1  
    42    2   39 1  
    43    4   40 1  
    44    4   41 1  
    45    4   42 1  
    46    5   43 1  
    47    6   44 1  
    48   11   45 1  
    49   11   46 1  
    50   12   47 1  
    51   12   48 1  
    52   13   49 1  
    53   13   50 1  
    54   14   51 1  
    55   14   52 1  
    56   14   53 1  
    57   15   54 1  
    58   16   55 1  
    59   17   56 1  
    60   17   57 1  
    61   17   58 1  
    62   18   59 1  
    63   18   60 1  
    64   18   61 1  
    65   22   62 1  
    66   25   63 1  
    67   26   64 1  
    68   28   65 1  
    69   29   66 1  
    70   31   67 1  
    71   31   68 1  
    72   33   69 1  
    73   34   70 1  
    74   35   71 1  
    75   36   72 1  
    76   37   73 1  
@<TRIPOS>SUBSTRUCTURE
     1 6LX         1

