### 
### Created by X-TOOL on Mon Sep 10 21:13:15 2018
### 

@<TRIPOS>MOLECULE
4byi_ligand
   49    52     1     0     0
SMALL
GAST_HUCK


@<TRIPOS>ATOM
      1 CL          5.0170  -28.3700   -8.7670 Cl        1 FH3        -0.0850
      2 C02         4.0520  -29.7170   -8.1660 C.ar      1 FH3         0.0674
      3 C03         3.3230  -30.5020   -9.0990 C.ar      1 FH3        -0.0078
      4 N04         2.5640  -31.5480   -8.6710 N.ar      1 FH3        -0.3047
      5 C05         2.4860  -31.8830   -7.3330 C.ar      1 FH3         0.1360
      6 N06         1.7910  -32.8910   -6.6870 N.pl3     1 FH3        -0.2454
      7 C07         2.0470  -32.7980   -5.3210 C.2       1 FH3         0.1220
      8 C08         1.4880  -33.7110   -4.1920 C.2       1 FH3         0.0574
      9 C09         1.8250  -33.6230   -2.8560 C.2       1 FH3         0.0724
     10 N10         1.1440  -34.5530   -2.2120 N.pl3     1 FH3        -0.2096
     11 C11         1.2120  -34.8040   -0.7730 C.3       1 FH3         0.0599
     12 N12         0.3750  -35.2440   -3.0650 N.2       1 FH3        -0.2202
     13 C13         0.5770  -34.7280   -4.3030 C.2       1 FH3         0.0259
     14 C14        -0.1080  -35.2250   -5.5700 C.3       1 FH3        -0.0249
     15 N15         2.8920  -31.7460   -5.1280 N.2       1 FH3        -0.3170
     16 C16         3.1880  -31.1510   -6.3620 C.ar      1 FH3         0.0715
     17 C17         3.9980  -30.0250   -6.7780 C.ar      1 FH3         0.0762
     18 N18         4.7600  -29.2310   -5.8260 N.pl3     1 FH3        -0.3017
     19 C19         6.1110  -28.8520   -5.5610 C.3       1 FH3         0.0341
     20 C20         6.1960  -28.6550   -4.1120 C.3       1 FH3         0.0012
     21 C21         6.5610  -29.9260   -3.4580 C.3       1 FH3         0.0356
     22 N22         7.3630  -29.8680   -2.2480 N.am      1 FH3        -0.2868
     23 C23         6.6970  -29.8160   -0.9050 C.2       1 FH3         0.1729
     24 C24         7.5220  -29.7600    0.3100 C.3       1 FH3         0.0256
     25 O25         5.5280  -29.8170   -0.8260 O.2       1 FH3        -0.3974
     26 C26         4.8740  -28.2590   -3.6770 C.3       1 FH3        -0.0262
     27 C27         3.9310  -28.7700   -4.7010 C.3       1 FH3         0.0298
     28 H1          3.3713  -30.2671  -10.1562 H         1 FH3         0.0707
     29 H2          1.1867  -33.5914   -7.1399 H         1 FH3         0.2309
     30 H3          2.5249  -32.9155   -2.4139 H         1 FH3         0.1098
     31 H4          0.5401  -35.6355   -0.5137 H         1 FH3         0.0604
     32 H5          0.9034  -33.8997   -0.2280 H         1 FH3         0.0604
     33 H6          2.2435  -35.0657   -0.4948 H         1 FH3         0.0604
     34 H7         -0.7844  -36.0555   -5.3194 H         1 FH3         0.0386
     35 H8          0.6517  -35.5739   -6.2849 H         1 FH3         0.0386
     36 H9         -0.6859  -34.4045   -6.0204 H         1 FH3         0.0386
     37 H10         6.3572  -27.9190   -6.0890 H         1 FH3         0.0524
     38 H11         6.8010  -29.6470   -5.8801 H         1 FH3         0.0524
     39 H12         6.9359  -27.8783   -3.8684 H         1 FH3         0.0340
     40 H13         7.1217  -30.5222   -4.1930 H         1 FH3         0.0523
     41 H14         5.6241  -30.4434   -3.2042 H         1 FH3         0.0523
     42 H15         8.3610  -29.8627   -2.3106 H         1 FH3         0.1851
     43 H16         6.8695  -29.7271    1.1950 H         1 FH3         0.0467
     44 H17         8.1513  -28.8582    0.2847 H         1 FH3         0.0467
     45 H18         8.1626  -30.6529    0.3598 H         1 FH3         0.0467
     46 H19         4.8069  -27.1631   -3.6100 H         1 FH3         0.0289
     47 H20         4.6472  -28.7009   -2.6955 H         1 FH3         0.0289
     48 H21         3.3414  -29.6048   -4.2941 H         1 FH3         0.0521
     49 H22         3.2533  -27.9683   -5.0296 H         1 FH3         0.0521
@<TRIPOS>BOND
     1    1    2 1  
     2    2    3 ar 
     3    2   17 ar 
     4    3    4 ar 
     5    4    5 ar 
     6    5    6 1  
     7    5   16 ar 
     8    6    7 1  
     9    7    8 1  
    10    7   15 2  
    11    8    9 2  
    12    8   13 1  
    13    9   10 1  
    14   10   11 1  
    15   10   12 1  
    16   12   13 2  
    17   13   14 1  
    18   15   16 1  
    19   16   17 ar 
    20   17   18 1  
    21   18   19 1  
    22   18   27 1  
    23   19   20 1  
    24   20   21 1  
    25   20   26 1  
    26   21   22 1  
    27   22   23 am 
    28   23   24 1  
    29   23   25 2  
    30   26   27 1  
    31    3   28 1  
    32    6   29 1  
    33    9   30 1  
    34   11   31 1  
    35   11   32 1  
    36   11   33 1  
    37   14   34 1  
    38   14   35 1  
    39   14   36 1  
    40   19   37 1  
    41   19   38 1  
    42   20   39 1  
    43   21   40 1  
    44   21   41 1  
    45   22   42 1  
    46   24   43 1  
    47   24   44 1  
    48   24   45 1  
    49   26   46 1  
    50   26   47 1  
    51   27   48 1  
    52   27   49 1  
@<TRIPOS>SUBSTRUCTURE
     1 FH3         1

