### 
### Created by X-TOOL on Mon Sep 10 21:13:15 2018
### 

@<TRIPOS>MOLECULE
4byj_ligand
   46    49     1     0     0
SMALL
GAST_HUCK


@<TRIPOS>ATOM
      1 CL          3.4990  -28.1820   -8.7240 Cl        1 FH5        -0.0850
      2 C02         2.5280  -29.4920   -8.1160 C.ar      1 FH5         0.0674
      3 C03         1.7230  -30.1970   -9.0230 C.ar      1 FH5        -0.0078
      4 N04         0.9500  -31.2210   -8.6070 N.ar      1 FH5        -0.3047
      5 C05         0.9270  -31.6120   -7.2800 C.ar      1 FH5         0.1360
      6 N06         0.2300  -32.6170   -6.6110 N.pl3     1 FH5        -0.2454
      7 C07         0.5720  -32.5760   -5.2890 C.2       1 FH5         0.1220
      8 C08         0.1060  -33.4360   -4.1820 C.2       1 FH5         0.0574
      9 C09         0.5860  -33.3630   -2.8920 C.2       1 FH5         0.0724
     10 N10        -0.0480  -34.2740   -2.1770 N.pl3     1 FH5        -0.2096
     11 C11         0.1610  -34.5120   -0.8100 C.3       1 FH5         0.0599
     12 N12        -0.9470  -34.9590   -2.9600 N.2       1 FH5        -0.2202
     13 C13        -0.8650  -34.4540   -4.2070 C.2       1 FH5         0.0259
     14 C14        -1.6850  -34.9190   -5.3920 C.3       1 FH5        -0.0249
     15 N15         1.4670  -31.5690   -5.1250 N.2       1 FH5        -0.3170
     16 C16         1.6940  -30.9600   -6.3480 C.ar      1 FH5         0.0715
     17 C17         2.5240  -29.8650   -6.7410 C.ar      1 FH5         0.0762
     18 N18         3.3200  -29.2400   -5.7170 N.pl3     1 FH5        -0.2998
     19 C19         3.1380  -27.8210   -5.4260 C.3       1 FH5         0.0524
     20 C20         4.5310  -27.4110   -5.0490 C.3       1 FH5         0.0639
     21 N21         4.5620  -26.1990   -4.2930 N.am      1 FH5        -0.2821
     22 C22         5.5470  -25.1920   -4.6580 C.2       1 FH5         0.1732
     23 C23         5.6230  -23.8940   -3.9060 C.3       1 FH5         0.0257
     24 O24         6.3210  -25.4030   -5.5860 O.2       1 FH5        -0.3974
     25 C25         5.0260  -28.5430   -4.2960 C.3       1 FH5        -0.0077
     26 C26         4.5110  -29.7050   -5.0350 C.3       1 FH5         0.0317
     27 H1          1.7222  -29.9157  -10.0699 H         1 FH5         0.0707
     28 H2         -0.4315  -33.2791   -7.0411 H         1 FH5         0.2309
     29 H3          1.3502  -32.6777   -2.5283 H         1 FH5         0.1098
     30 H4         -0.5001  -35.3244   -0.4740 H         1 FH5         0.0604
     31 H5         -0.0626  -33.5980   -0.2403 H         1 FH5         0.0604
     32 H6          1.2095  -34.8002   -0.6441 H         1 FH5         0.0604
     33 H7         -2.3545  -35.7333   -5.0777 H         1 FH5         0.0386
     34 H8         -1.0127  -35.2819   -6.1834 H         1 FH5         0.0386
     35 H9         -2.2836  -34.0797   -5.7757 H         1 FH5         0.0386
     36 H10         2.4353  -27.6686   -4.5936 H         1 FH5         0.0544
     37 H11         2.7832  -27.2718   -6.3106 H         1 FH5         0.0544
     38 H12         5.1381  -27.2672   -5.9549 H         1 FH5         0.0577
     39 H13         3.9262  -26.0474   -3.5362 H         1 FH5         0.1854
     40 H14         6.4250  -23.2714   -4.3293 H         1 FH5         0.0467
     41 H15         5.8366  -24.0962   -2.8461 H         1 FH5         0.0467
     42 H16         4.6631  -23.3637   -3.9919 H         1 FH5         0.0467
     43 H17         4.6381  -28.5294   -3.2668 H         1 FH5         0.0308
     44 H18         6.1257  -28.5485   -4.2734 H         1 FH5         0.0308
     45 H19         5.2566  -30.0577   -5.7628 H         1 FH5         0.0521
     46 H20         4.2615  -30.5210   -4.3408 H         1 FH5         0.0521
@<TRIPOS>BOND
     1    1    2 1  
     2    2    3 ar 
     3    2   17 ar 
     4    3    4 ar 
     5    4    5 ar 
     6    5    6 1  
     7    5   16 ar 
     8    6    7 1  
     9    7    8 1  
    10    7   15 2  
    11    8    9 2  
    12    8   13 1  
    13    9   10 1  
    14   10   11 1  
    15   10   12 1  
    16   12   13 2  
    17   13   14 1  
    18   15   16 1  
    19   16   17 ar 
    20   17   18 1  
    21   18   19 1  
    22   18   26 1  
    23   19   20 1  
    24   20   21 1  
    25   20   25 1  
    26   21   22 am 
    27   22   23 1  
    28   22   24 2  
    29   25   26 1  
    30    3   27 1  
    31    6   28 1  
    32    9   29 1  
    33   11   30 1  
    34   11   31 1  
    35   11   32 1  
    36   14   33 1  
    37   14   34 1  
    38   14   35 1  
    39   19   36 1  
    40   19   37 1  
    41   20   38 1  
    42   21   39 1  
    43   23   40 1  
    44   23   41 1  
    45   23   42 1  
    46   25   43 1  
    47   25   44 1  
    48   26   45 1  
    49   26   46 1  
@<TRIPOS>SUBSTRUCTURE
     1 FH5         1

