### 
### Created by X-TOOL on Mon Sep 10 21:13:13 2018
### 

@<TRIPOS>MOLECULE
4bzn_ligand
   47    49     1     0     0
SMALL
GAST_HUCK


@<TRIPOS>ATOM
      1 O13        20.4840  -34.0910    4.3330 O.2       1 UGX        -0.3970
      2 C12        21.6070  -33.6510    4.5630 C.2       1 UGX         0.1791
      3 N14        22.4980  -34.3270    5.2830 N.am      1 UGX        -0.2864
      4 C21        22.2780  -35.6190    5.9390 C.3       1 UGX         0.0358
      5 C15        23.2200  -36.7280    5.5050 C.3       1 UGX        -0.0176
      6 C24        24.6570  -36.2850    5.7730 C.3       1 UGX        -0.0582
      7 C23        23.0920  -37.0340    4.0210 C.3       1 UGX        -0.0582
      8 C22        22.9140  -37.9910    6.3290 C.3       1 UGX        -0.0582
      9 C11        22.0650  -32.3230    3.9980 C.3       1 UGX         0.0701
     10 C6         21.3270  -31.9170    2.7130 C.3       1 UGX         0.1026
     11 N5         21.6940  -32.7610    1.5210 N.pl3     1 UGX        -0.2573
     12 C1         22.0320  -34.0510    1.4890 C.2       1 UGX         0.0322
     13 C7         21.6450  -30.4280    2.4400 C.3       1 UGX         0.0630
     14 N8         21.2300  -30.0700    1.0810 N.am      1 UGX        -0.2840
     15 C9         21.3560  -30.8410   -0.0010 C.2       1 UGX         0.2171
     16 O10        21.2010  -30.4250   -1.1430 O.2       1 UGX        -0.3916
     17 C4         21.6940  -32.2660    0.2640 C.2       1 UGX         0.1271
     18 C2         22.0540  -33.2450   -0.6590 C.2       1 UGX        -0.0548
     19 C3         22.2430  -34.3400    0.1530 C.2       1 UGX        -0.0406
     20 C16        22.6920  -35.6830   -0.3510 C.2       1 UGX        -0.0543
     21 C18        22.6970  -36.7910    0.4810 C.2       1 UGX        -0.0095
     22 S20        23.3480  -38.1110   -0.4470 S.3       1 UGX        -0.0515
     23 C19        23.5760  -37.1440   -1.8740 C.2       1 UGX        -0.0092
     24 C17        23.1740  -35.8380   -1.6500 C.2       1 UGX        -0.0748
     25 H1         23.4032  -33.9149    5.3864 H         1 UGX         0.1851
     26 H2         21.2489  -35.9411    5.7218 H         1 UGX         0.0525
     27 H3         22.3963  -35.4757    7.0232 H         1 UGX         0.0525
     28 H4         25.3500  -37.0808    5.4624 H         1 UGX         0.0236
     29 H5         24.7851  -36.0859    6.8472 H         1 UGX         0.0236
     30 H6         24.8709  -35.3693    5.2023 H         1 UGX         0.0236
     31 H7         22.0636  -37.3563    3.8005 H         1 UGX         0.0236
     32 H8         23.7938  -37.8366    3.7502 H         1 UGX         0.0236
     33 H9         23.3259  -36.1305    3.4388 H         1 UGX         0.0236
     34 H10        23.0087  -37.7615    7.4006 H         1 UGX         0.0236
     35 H11        23.6255  -38.7856    6.0600 H         1 UGX         0.0236
     36 H12        21.8891  -38.3287    6.1155 H         1 UGX         0.0236
     37 H13        23.1400  -32.3914    3.7753 H         1 UGX         0.0535
     38 H14        21.8965  -31.5449    4.7570 H         1 UGX         0.0535
     39 H15        20.2459  -32.0267    2.8839 H         1 UGX         0.0706
     40 H16        22.1225  -34.7314    2.3344 H         1 UGX         0.0887
     41 H17        22.7269  -30.2606    2.5468 H         1 UGX         0.0552
     42 H18        21.1037  -29.8009    3.1636 H         1 UGX         0.0552
     43 H19        20.8160  -29.1688    0.9531 H         1 UGX         0.1838
     44 H20        22.1585  -33.1650   -1.7400 H         1 UGX         0.0374
     45 H21        22.3589  -36.8284    1.5155 H         1 UGX         0.0648
     46 H22        23.9797  -37.5147   -2.8150 H         1 UGX         0.0719
     47 H23        23.2272  -35.0397   -2.3888 H         1 UGX         0.0399
@<TRIPOS>BOND
     1    1    2 2  
     2    2    3 am 
     3    2    9 1  
     4    3    4 1  
     5    4    5 1  
     6    5    6 1  
     7    5    7 1  
     8    5    8 1  
     9    9   10 1  
    10   10   11 1  
    11   10   13 1  
    12   11   12 1  
    13   11   17 1  
    14   12   19 2  
    15   13   14 1  
    16   14   15 am 
    17   15   16 2  
    18   15   17 1  
    19   17   18 2  
    20   18   19 1  
    21   19   20 1  
    22   20   21 2  
    23   20   24 1  
    24   21   22 1  
    25   22   23 1  
    26   23   24 2  
    27    3   25 1  
    28    4   26 1  
    29    4   27 1  
    30    6   28 1  
    31    6   29 1  
    32    6   30 1  
    33    7   31 1  
    34    7   32 1  
    35    7   33 1  
    36    8   34 1  
    37    8   35 1  
    38    8   36 1  
    39    9   37 1  
    40    9   38 1  
    41   10   39 1  
    42   12   40 1  
    43   13   41 1  
    44   13   42 1  
    45   14   43 1  
    46   18   44 1  
    47   21   45 1  
    48   23   46 1  
    49   24   47 1  
@<TRIPOS>SUBSTRUCTURE
     1 UGX         1

