### 
### Created by X-TOOL on Mon Sep 10 21:13:13 2018
### 

@<TRIPOS>MOLECULE
4bzo_ligand
   53    56     1     0     0
SMALL
GAST_HUCK


@<TRIPOS>ATOM
      1 O21        20.8970  -34.3990    4.6090 O.2       1 676        -0.3968
      2 C19        22.0050  -33.8930    4.7990 C.2       1 676         0.1814
      3 N20        22.9420  -34.4680    5.5750 N.am      1 676        -0.2673
      4 C22        22.7330  -35.7070    6.3460 C.3       1 676         0.1150
      5 C24        23.2280  -36.9710    5.7190 C.ar      1 676        -0.0129
      6 C29        24.0800  -36.9720    4.6140 C.ar      1 676        -0.0580
      7 C28        24.5230  -38.1790    4.0710 C.ar      1 676        -0.0685
      8 C27        24.1340  -39.4110    4.6350 C.ar      1 676        -0.0687
      9 C26        23.2810  -39.4200    5.7470 C.ar      1 676        -0.0685
     10 C25        22.8340  -38.2020    6.2830 C.ar      1 676        -0.0580
     11 C23        23.5180  -35.5150    7.6650 C.3       1 676        -0.0020
     12 N30        22.9000  -34.4860    8.4980 N.4       1 676         0.2216
     13 C11        22.3760  -32.5930    4.0990 C.3       1 676         0.0706
     14 C6         21.6140  -32.3540    2.7750 C.3       1 676         0.1046
     15 N5         22.2320  -33.1060    1.6580 N.pl3     1 676        -0.2504
     16 C1         22.5140  -34.5090    1.6910 C.2       1 676         0.0447
     17 C7         21.8490  -30.8650    2.4880 C.3       1 676         0.0633
     18 N8         21.4830  -30.5400    1.1140 N.am      1 676        -0.2838
     19 C9         21.6390  -31.3240    0.0380 C.2       1 676         0.2181
     20 O10        21.4880  -30.9230   -1.1130 O.2       1 676        -0.3913
     21 C4         22.0020  -32.7410    0.2840 C.2       1 676         0.1312
     22 C2         22.3010  -33.8340   -0.5010 C.2       1 676        -0.0475
     23 C3         22.5970  -34.9080    0.3490 C.2       1 676        -0.0161
     24 C12        23.0220  -36.2680   -0.1150 C.ar      1 676        -0.0244
     25 C14        23.1080  -37.3610    0.7460 C.ar      1 676        -0.0001
     26 C16        23.5850  -38.5770    0.2380 C.ar      1 676         0.2048
     27 F18        23.6430  -39.6580    1.0360 F         1 676        -0.1561
     28 N17        24.0040  -38.6960   -1.0570 N.ar      1 676        -0.2745
     29 C15        23.9590  -37.6370   -1.8940 C.ar      1 676        -0.0020
     30 C13        23.4790  -36.4160   -1.4260 C.ar      1 676        -0.0431
     31 H1         23.8375  -34.0266    5.6323 H         1 676         0.1883
     32 H2         21.6576  -35.8183    6.5490 H         1 676         0.0773
     33 H3         24.3986  -36.0329    4.1762 H         1 676         0.0557
     34 H4         25.1744  -38.1690    3.2046 H         1 676         0.0599
     35 H5         24.4914  -40.3431    4.2124 H         1 676         0.0559
     36 H6         22.9692  -40.3592    6.1893 H         1 676         0.0599
     37 H7         22.1755  -38.2078    7.1441 H         1 676         0.0557
     38 H8         24.5496  -35.2149    7.4291 H         1 676         0.0860
     39 H9         23.5301  -36.4658    8.2179 H         1 676         0.0860
     40 H10        23.4292  -34.3804    9.3494 H         1 676         0.1997
     41 H11        21.9551  -34.7570    8.7211 H         1 676         0.1997
     42 H12        22.8894  -33.6107    7.9982 H         1 676         0.1997
     43 H13        23.4536  -32.6133    3.8794 H         1 676         0.0535
     44 H14        22.1563  -31.7579    4.7804 H         1 676         0.0535
     45 H15        20.5465  -32.6008    2.8724 H         1 676         0.0709
     46 H16        22.6381  -35.1353    2.5732 H         1 676         0.0979
     47 H17        22.9125  -30.6309    2.6432 H         1 676         0.0552
     48 H18        21.2370  -30.2637    3.1764 H         1 676         0.0552
     49 H19        21.0740  -29.6407    0.9589 H         1 676         0.1838
     50 H20        22.3062  -33.8585   -1.5897 H         1 676         0.0399
     51 H21        22.8125  -37.2724    1.7852 H         1 676         0.0623
     52 H22        24.2933  -37.7363   -2.9204 H         1 676         0.0780
     53 H23        23.4599  -35.5624   -2.0939 H         1 676         0.0606
@<TRIPOS>BOND
     1    1    2 2  
     2    2    3 am 
     3    2   13 1  
     4    3    4 1  
     5    4    5 1  
     6    4   11 1  
     7    5    6 ar 
     8    5   10 ar 
     9    6    7 ar 
    10    7    8 ar 
    11    8    9 ar 
    12    9   10 ar 
    13   11   12 1  
    14   13   14 1  
    15   14   15 1  
    16   14   17 1  
    17   15   16 1  
    18   15   21 1  
    19   16   23 2  
    20   17   18 1  
    21   18   19 am 
    22   19   20 2  
    23   19   21 1  
    24   21   22 2  
    25   22   23 1  
    26   23   24 1  
    27   24   25 ar 
    28   24   30 ar 
    29   25   26 ar 
    30   26   27 1  
    31   26   28 ar 
    32   28   29 ar 
    33   29   30 ar 
    34    3   31 1  
    35    4   32 1  
    36    6   33 1  
    37    7   34 1  
    38    8   35 1  
    39    9   36 1  
    40   10   37 1  
    41   11   38 1  
    42   11   39 1  
    43   12   40 1  
    44   12   41 1  
    45   12   42 1  
    46   13   43 1  
    47   13   44 1  
    48   14   45 1  
    49   16   46 1  
    50   17   47 1  
    51   17   48 1  
    52   18   49 1  
    53   22   50 1  
    54   25   51 1  
    55   29   52 1  
    56   30   53 1  
@<TRIPOS>SUBSTRUCTURE
     1 676         1

