### 
### Created by X-TOOL on Mon Sep 10 21:13:12 2018
### 

@<TRIPOS>MOLECULE
4c0r_ligand
   58    57     1     0     0
SMALL
GAST_HUCK


@<TRIPOS>ATOM
      1 CD1         8.7040   -8.8810   21.4750 C.3       1 GDS        -0.0428
      2 N2          7.4860   -9.4780   22.0390 N.4       1 GDS         0.2446
      3 CA2         6.3160   -8.6860   21.9210 C.3       1 GDS         0.0764
      4 C2          5.5220   -8.7470   20.6640 C.2       1 GDS         0.2269
      5 O2          4.7740   -7.8020   20.3360 O.2       1 GDS        -0.3907
      6 CB2         5.8230   -7.7570   22.9630 C.3       1 GDS         0.0643
      7 SG2         6.7310   -7.8610   24.4900 S.3       1 GDS        -0.0848
      8 N3          5.6550   -9.9350   19.8470 N.am      1 GDS        -0.2694
      9 CA3         4.9680  -10.0050   18.5580 C.3       1 GDS         0.0834
     10 C3          6.0900   -9.7960   17.5440 C.2       1 GDS         0.0570
     11 OE3         6.0980  -10.4240   16.4390 O.co2     1 GDS        -0.5669
     12 OE4         7.0540   -9.0070   17.7660 O.co2     1 GDS        -0.5669
     13 N4          5.6520   -7.4850   27.5260 N.am      1 GDS        -0.2722
     14 CA4         5.1540   -8.8330   27.6640 C.3       1 GDS         0.0833
     15 C4          6.1450   -9.6800   28.3830 C.2       1 GDS         0.0570
     16 OE5         7.0340   -9.1690   29.1310 O.co2     1 GDS        -0.5669
     17 OE6         6.0170  -10.9300   28.2620 O.co2     1 GDS        -0.5669
     18 C5          4.8740   -6.5430   26.7840 C.2       1 GDS         0.2040
     19 O5          3.7870   -6.8780   26.3160 O.2       1 GDS        -0.3944
     20 CA5         5.5330   -5.2520   26.5910 C.3       1 GDS         0.1405
     21 N5          6.3160   -4.7230   27.6300 N.am      1 GDS        -0.2648
     22 CB5         5.9860   -5.0080   25.1890 C.3       1 GDS         0.0443
     23 SG5         7.4660   -6.0060   24.8680 S.3       1 GDS        -0.0880
     24 CA6         7.5140   -4.0580   32.1500 C.3       1 GDS         0.0304
     25 C6          8.8260   -3.3980   31.7570 C.2       1 GDS         0.0846
     26 OE7         9.7590   -4.1250   31.3190 O.co2     1 GDS        -0.5643
     27 OE8         8.9760   -2.1560   31.8490 O.co2     1 GDS        -0.5643
     28 N6          6.6980   -3.0400   32.8380 N.4       1 GDS         0.2328
     29 CB6         6.8200   -4.6270   30.9660 C.3       1 GDS         0.0193
     30 CG6         6.8710   -3.6120   29.8020 C.3       1 GDS         0.0441
     31 CD6         5.8570   -4.0720   28.7760 C.2       1 GDS         0.1785
     32 O6          4.6320   -3.8970   28.8480 O.2       1 GDS        -0.3969
     33 H1          9.5496   -9.5701   21.6167 H         1 GDS         0.0777
     34 H2          8.9165   -7.9301   21.9854 H         1 GDS         0.0777
     35 H3          8.5580   -8.6958   20.4006 H         1 GDS         0.0777
     36 H4          7.6481   -9.6509   23.0187 H         1 GDS         0.2032
     37 H5          7.3196  -10.3527   21.5664 H         1 GDS         0.2032
     38 H6          5.7265   -9.5025   22.3635 H         1 GDS         0.1107
     39 H7          4.7680   -7.9913   23.1681 H         1 GDS         0.0466
     40 H8          5.9025   -6.7291   22.5795 H         1 GDS         0.0466
     41 H9          6.2130  -10.7026   20.1622 H         1 GDS         0.1874
     42 H10         4.2092   -9.2131   18.4734 H         1 GDS         0.0689
     43 H11         4.4909  -10.9864   18.4196 H         1 GDS         0.0689
     44 H12         6.5216   -7.2163   27.9402 H         1 GDS         0.1873
     45 H13         4.9720   -9.2564   26.6652 H         1 GDS         0.0689
     46 H14         4.2122   -8.8153   28.2320 H         1 GDS         0.0689
     47 H15         4.6674   -4.5756   26.6473 H         1 GDS         0.0808
     48 H16         7.3068   -4.8234   27.5391 H         1 GDS         0.1883
     49 H17         6.2239   -3.9421   25.0580 H         1 GDS         0.0432
     50 H18         5.1882   -5.2946   24.4880 H         1 GDS         0.0432
     51 H19         7.7220   -4.8798   32.8510 H         1 GDS         0.1026
     52 H20         5.8172   -3.4454   33.1135 H         1 GDS         0.2010
     53 H21         6.5311   -2.2657   32.2146 H         1 GDS         0.2010
     54 H22         7.1880   -2.7132   33.6560 H         1 GDS         0.2010
     55 H23         5.7714   -4.8386   31.2222 H         1 GDS         0.0363
     56 H24         7.3184   -5.5592   30.6617 H         1 GDS         0.0363
     57 H25         7.8774   -3.5947   29.3584 H         1 GDS         0.0505
     58 H26         6.6129   -2.6062   30.1650 H         1 GDS         0.0505
@<TRIPOS>BOND
     1    2    1 1  
     2    3    2 1  
     3    3    4 1  
     4    6    3 1  
     5    4    5 2  
     6    4    8 am 
     7    7    6 1  
     8   23    7 1  
     9    8    9 1  
    10    9   10 1  
    11   10   11 ar 
    12   10   12 ar 
    13   13   14 1  
    14   18   13 am 
    15   14   15 1  
    16   15   16 ar 
    17   15   17 ar 
    18   18   19 2  
    19   20   18 1  
    20   21   20 1  
    21   20   22 1  
    22   31   21 am 
    23   22   23 1  
    24   24   25 1  
    25   24   28 1  
    26   29   24 1  
    27   25   26 ar 
    28   25   27 ar 
    29   30   29 1  
    30   30   31 1  
    31   31   32 2  
    32    1   33 1  
    33    1   34 1  
    34    1   35 1  
    35    2   36 1  
    36    2   37 1  
    37    3   38 1  
    38    6   39 1  
    39    6   40 1  
    40    8   41 1  
    41    9   42 1  
    42    9   43 1  
    43   13   44 1  
    44   14   45 1  
    45   14   46 1  
    46   20   47 1  
    47   21   48 1  
    48   22   49 1  
    49   22   50 1  
    50   24   51 1  
    51   28   52 1  
    52   28   53 1  
    53   28   54 1  
    54   29   55 1  
    55   29   56 1  
    56   30   57 1  
    57   30   58 1  
@<TRIPOS>SUBSTRUCTURE
     1 GDS         1

