### 
### Created by X-TOOL on Mon Sep 10 21:13:16 2018
### 

@<TRIPOS>MOLECULE
4c1c_ligand
   28    28     1     0     0
SMALL
GAST_HUCK


@<TRIPOS>ATOM
      1 O2         11.0160   10.7790   42.4500 O.co2     1 MCO        -0.5666
      2 C9         10.8000   11.7100   41.6010 C.2       1 MCO         0.0603
      3 O3         10.6250   11.4450   40.4150 O.co2     1 MCO        -0.5666
      4 C8         10.7640   13.1150   42.0260 C.3       1 MCO         0.0971
      5 C7          9.3700   13.4730   42.4670 C.3       1 MCO        -0.0159
      6 C6          9.3930   13.5990   43.9450 C.3       1 MCO        -0.0288
      7 C5         10.8230   13.4710   44.3720 C.3       1 MCO         0.0362
      8 N          11.6000   13.2790   43.1750 N.am      1 MCO        -0.2572
      9 C4         13.0410   13.2270   43.1310 C.2       1 MCO         0.1838
     10 O1         13.6020   13.0540   42.0940 O.2       1 MCO        -0.3964
     11 C2         13.8330   13.3490   44.3950 C.3       1 MCO         0.0548
     12 C3         14.4860   14.7100   44.5330 C.3       1 MCO        -0.0446
     13 C1         14.8900   12.2780   44.4120 C.3       1 MCO         0.0101
     14 S          14.1750   10.6200   44.2060 S.3       1 MCO        -0.1756
     15 H1         11.0937   13.7686   41.2050 H         1 MCO         0.0728
     16 H2          8.6659   12.6827   42.1676 H         1 MCO         0.0306
     17 H3          9.0649   14.4272   42.0127 H         1 MCO         0.0306
     18 H4          8.7893   12.8010   44.4018 H         1 MCO         0.0286
     19 H5          8.9946   14.5788   44.2471 H         1 MCO         0.0286
     20 H6         10.9419   12.6075   45.0429 H         1 MCO         0.0524
     21 H7         11.1465   14.3855   44.8906 H         1 MCO         0.0524
     22 H8         13.1557   13.1999   45.2488 H         1 MCO         0.0543
     23 H9         15.0543   14.7503   45.4739 H         1 MCO         0.0257
     24 H10        13.7103   15.4899   44.5395 H         1 MCO         0.0257
     25 H11        15.1673   14.8775   43.6858 H         1 MCO         0.0257
     26 H12        15.4228   12.3189   45.3735 H         1 MCO         0.0401
     27 H13        15.5988   12.4643   43.5918 H         1 MCO         0.0401
     28 H14        14.9124    9.9329   44.2228 H         1 MCO         0.1018
@<TRIPOS>BOND
     1    1    2 ar 
     2    2    3 ar 
     3    2    4 1  
     4    4    5 1  
     5    4    8 1  
     6    5    6 1  
     7    6    7 1  
     8    7    8 1  
     9    8    9 am 
    10    9   10 2  
    11    9   11 1  
    12   11   12 1  
    13   11   13 1  
    14   13   14 1  
    15    4   15 1  
    16    5   16 1  
    17    5   17 1  
    18    6   18 1  
    19    6   19 1  
    20    7   20 1  
    21    7   21 1  
    22   11   22 1  
    23   12   23 1  
    24   12   24 1  
    25   12   25 1  
    26   13   26 1  
    27   13   27 1  
    28   14   28 1  
@<TRIPOS>SUBSTRUCTURE
     1 MCO         1

