### 
### Created by X-TOOL on Mon Sep 10 21:13:16 2018
### 

@<TRIPOS>MOLECULE
4c1d_ligand
   28    28     1     0     0
SMALL
GAST_HUCK


@<TRIPOS>ATOM
      1 O1        -29.3350   10.0540   58.8960 O.2       1 X8Z        -0.3964
      2 C4        -28.3530    9.8690   59.5550 C.2       1 X8Z         0.1838
      3 C2        -27.1490   10.7640   59.4510 C.3       1 X8Z         0.0548
      4 C1        -27.0670   11.3980   58.0890 C.3       1 X8Z         0.0101
      5 S         -26.5970   10.2600   56.7780 S.3       1 X8Z        -0.1756
      6 C3        -27.3770   11.8710   60.4730 C.3       1 X8Z        -0.0446
      7 N         -28.3810    8.7960   60.4680 N.am      1 X8Z        -0.2572
      8 C8        -29.5230    8.0090   60.5840 C.3       1 X8Z         0.0971
      9 C9        -30.7700    8.8060   60.9490 C.2       1 X8Z         0.0603
     10 O3        -31.9090    8.4170   60.5560 O.co2     1 X8Z        -0.5666
     11 O2        -30.6910    9.8490   61.6530 O.co2     1 X8Z        -0.5666
     12 C5        -27.3210    8.4920   61.2810 C.3       1 X8Z         0.0362
     13 C6        -27.9020    7.6540   62.3890 C.3       1 X8Z        -0.0288
     14 C7        -29.1440    7.0110   61.7020 C.3       1 X8Z        -0.0159
     15 H1        -26.2271   10.2039   59.6663 H         1 X8Z         0.0543
     16 H2        -26.3222   12.2065   58.1283 H         1 X8Z         0.0401
     17 H3        -28.0531   11.8194   57.8439 H         1 X8Z         0.0401
     18 H4        -26.5636   10.7553   55.9007 H         1 X8Z         0.1018
     19 H5        -27.4408   11.4329   61.4800 H         1 X8Z         0.0257
     20 H6        -28.3154   12.3962   60.2415 H         1 X8Z         0.0257
     21 H7        -26.5394   12.5830   60.4354 H         1 X8Z         0.0257
     22 H8        -29.7132    7.4767   59.6403 H         1 X8Z         0.0728
     23 H9        -26.8704    9.4097   61.6870 H         1 X8Z         0.0524
     24 H10       -26.5597    7.9240   60.7263 H         1 X8Z         0.0524
     25 H11       -28.1985    8.2766   63.2459 H         1 X8Z         0.0286
     26 H12       -27.1893    6.8857   62.7232 H         1 X8Z         0.0286
     27 H13       -28.8892    6.0288   61.2774 H         1 X8Z         0.0306
     28 H14       -29.9703    6.8973   62.4191 H         1 X8Z         0.0306
@<TRIPOS>BOND
     1    1    2 2  
     2    2    3 1  
     3    2    7 am 
     4    3    4 1  
     5    3    6 1  
     6    4    5 1  
     7    7    8 1  
     8    7   12 1  
     9    8    9 1  
    10    8   14 1  
    11    9   10 ar 
    12    9   11 ar 
    13   12   13 1  
    14   13   14 1  
    15    3   15 1  
    16    4   16 1  
    17    4   17 1  
    18    5   18 1  
    19    6   19 1  
    20    6   20 1  
    21    6   21 1  
    22    8   22 1  
    23   12   23 1  
    24   12   24 1  
    25   13   25 1  
    26   13   26 1  
    27   14   27 1  
    28   14   28 1  
@<TRIPOS>SUBSTRUCTURE
     1 X8Z         1

