### 
### Created by X-TOOL on Mon Sep 10 21:13:16 2018
### 

@<TRIPOS>MOLECULE
4c1e_ligand
   28    28     1     0     0
SMALL
GAST_HUCK


@<TRIPOS>ATOM
      1 O2         75.7530    5.6130   56.4370 O.co2     1 MCO        -0.5666
      2 C9         75.2250    4.9570   57.3520 C.2       1 MCO         0.0603
      3 O3         74.6140    3.9540   57.0960 O.co2     1 MCO        -0.5666
      4 C8         75.2870    5.4580   58.7130 C.3       1 MCO         0.0971
      5 C7         76.0720    4.5180   59.5830 C.3       1 MCO        -0.0159
      6 C6         77.4600    4.9910   59.5200 C.3       1 MCO        -0.0288
      7 C5         77.3740    6.4510   59.1960 C.3       1 MCO         0.0362
      8 N          76.0350    6.6750   58.7390 N.am      1 MCO        -0.2572
      9 C4         75.5320    7.9470   58.3570 C.2       1 MCO         0.1838
     10 O1         74.4300    8.0340   57.9990 O.2       1 MCO        -0.3964
     11 C2         76.4800    9.0930   58.4050 C.3       1 MCO         0.0548
     12 C3         76.1050   10.0520   59.5210 C.3       1 MCO        -0.0446
     13 C1         76.4060    9.8270   57.0910 C.3       1 MCO         0.0101
     14 S          76.9360    8.8690   55.6150 S.3       1 MCO        -0.1756
     15 H1         74.2708    5.6059   59.1072 H         1 MCO         0.0728
     16 H2         75.9990    3.4891   59.2009 H         1 MCO         0.0306
     17 H3         75.7011    4.5520   60.6180 H         1 MCO         0.0306
     18 H4         78.0129    4.4553   58.7343 H         1 MCO         0.0286
     19 H5         77.9609    4.8414   60.4878 H         1 MCO         0.0286
     20 H6         78.0956    6.7108   58.4075 H         1 MCO         0.0524
     21 H7         77.5778    7.0544   60.0929 H         1 MCO         0.0524
     22 H8         77.5015    8.7196   58.5694 H         1 MCO         0.0543
     23 H9         76.8171   10.8902   59.5389 H         1 MCO         0.0257
     24 H10        76.1369    9.5232   60.4850 H         1 MCO         0.0257
     25 H11        75.0894   10.4374   59.3475 H         1 MCO         0.0257
     26 H12        77.0473   10.7177   57.1644 H         1 MCO         0.0401
     27 H13        75.3625   10.1382   56.9355 H         1 MCO         0.0401
     28 H14        76.8493    9.4456   54.7928 H         1 MCO         0.1018
@<TRIPOS>BOND
     1    1    2 ar 
     2    2    3 ar 
     3    2    4 1  
     4    4    5 1  
     5    4    8 1  
     6    5    6 1  
     7    6    7 1  
     8    7    8 1  
     9    8    9 am 
    10    9   10 2  
    11    9   11 1  
    12   11   12 1  
    13   11   13 1  
    14   13   14 1  
    15    4   15 1  
    16    5   16 1  
    17    5   17 1  
    18    6   18 1  
    19    6   19 1  
    20    7   20 1  
    21    7   21 1  
    22   11   22 1  
    23   12   23 1  
    24   12   24 1  
    25   12   25 1  
    26   13   26 1  
    27   13   27 1  
    28   14   28 1  
@<TRIPOS>SUBSTRUCTURE
     1 MCO         1

