### 
### Created by X-TOOL on Mon Sep 10 21:13:18 2018
### 

@<TRIPOS>MOLECULE
4c1f_ligand
   28    28     1     0     0
SMALL
GAST_HUCK


@<TRIPOS>ATOM
      1 O1         16.9480   14.4440   10.1350 O.2       1 X8Z        -0.3964
      2 C4         16.7600   13.7620    9.1490 C.2       1 X8Z         0.1838
      3 C2         15.3880   13.8090    8.5080 C.3       1 X8Z         0.0548
      4 C1         14.4000   13.0060    9.3240 C.3       1 X8Z         0.0101
      5 S          14.2200   11.4040    8.5900 S.3       1 X8Z        -0.1756
      6 C3         14.9390   15.2530    8.4570 C.3       1 X8Z        -0.0446
      7 N          17.8320   12.9670    8.6460 N.am      1 X8Z        -0.2572
      8 C8         17.7230   12.1660    7.5380 C.3       1 X8Z         0.0971
      9 C9         17.4140   10.7450    7.9440 C.2       1 X8Z         0.0603
     10 O3         16.9940    9.9200    7.0910 O.co2     1 X8Z        -0.5666
     11 O2         17.5690   10.3790    9.1390 O.co2     1 X8Z        -0.5666
     12 C5         19.0390   12.9880    9.2720 C.3       1 X8Z         0.0362
     13 C6         20.0330   12.5660    8.2240 C.3       1 X8Z        -0.0288
     14 C7         19.1370   12.3640    6.9470 C.3       1 X8Z        -0.0159
     15 H1         15.4411   13.3980    7.4891 H         1 X8Z         0.0543
     16 H2         13.4269   13.5187    9.3351 H         1 X8Z         0.0401
     17 H3         14.7708   12.9008   10.3542 H         1 X8Z         0.0401
     18 H4         13.5626   10.8612    9.1279 H         1 X8Z         0.1018
     19 H5         15.6563   15.8392    7.8638 H         1 X8Z         0.0257
     20 H6         14.8903   15.6582    9.4785 H         1 X8Z         0.0257
     21 H7         13.9441   15.3114    7.9915 H         1 X8Z         0.0257
     22 H8         16.9464   12.5208    6.8445 H         1 X8Z         0.0728
     23 H9         19.0476   12.2844   10.1175 H         1 X8Z         0.0524
     24 H10        19.2678   14.0007    9.6353 H         1 X8Z         0.0524
     25 H11        20.5331   11.6284    8.5083 H         1 X8Z         0.0286
     26 H12        20.7880   13.3484    8.0574 H         1 X8Z         0.0286
     27 H13        19.1723   13.2499    6.2959 H         1 X8Z         0.0306
     28 H14        19.4547   11.4778    6.3780 H         1 X8Z         0.0306
@<TRIPOS>BOND
     1    1    2 2  
     2    2    3 1  
     3    2    7 am 
     4    3    4 1  
     5    3    6 1  
     6    4    5 1  
     7    7    8 1  
     8    7   12 1  
     9    8    9 1  
    10    8   14 1  
    11    9   10 ar 
    12    9   11 ar 
    13   12   13 1  
    14   13   14 1  
    15    3   15 1  
    16    4   16 1  
    17    4   17 1  
    18    5   18 1  
    19    6   19 1  
    20    6   20 1  
    21    6   21 1  
    22    8   22 1  
    23   12   23 1  
    24   12   24 1  
    25   13   25 1  
    26   13   26 1  
    27   14   27 1  
    28   14   28 1  
@<TRIPOS>SUBSTRUCTURE
     1 X8Z         1

