### 
### Created by X-TOOL on Mon Sep 10 21:13:16 2018
### 

@<TRIPOS>MOLECULE
4c1g_ligand
   28    28     1     0     0
SMALL
GAST_HUCK


@<TRIPOS>ATOM
      1 O2         10.0620   -7.9830  -18.2640 O.co2     1 MCO        -0.5666
      2 C9         11.0630   -7.4990  -18.8780 C.2       1 MCO         0.0603
      3 O3         11.1250   -6.3260  -19.2530 O.co2     1 MCO        -0.5666
      4 C8         12.1810   -8.3770  -19.1430 C.3       1 MCO         0.0971
      5 C7         12.9800   -7.7270  -20.2260 C.3       1 MCO        -0.0159
      6 C6         13.7280   -6.6540  -19.5330 C.3       1 MCO        -0.0288
      7 C5         13.7780   -7.0700  -18.0970 C.3       1 MCO         0.0362
      8 N          13.0490   -8.3050  -18.0200 N.am      1 MCO        -0.2572
      9 C4         13.1840   -9.2850  -16.9560 C.2       1 MCO         0.1838
     10 O1         12.5340  -10.2890  -16.9800 O.2       1 MCO        -0.3964
     11 C2         14.1550   -9.0470  -15.8480 C.3       1 MCO         0.0548
     12 C3         15.3690   -9.9170  -16.1210 C.3       1 MCO        -0.0446
     13 C1         13.5440   -9.4400  -14.5360 C.3       1 MCO         0.0101
     14 S          11.9150   -8.6680  -14.3390 S.3       1 MCO        -0.1756
     15 H1         11.8659   -9.4027  -19.3851 H         1 MCO         0.0728
     16 H2         12.3197   -7.3057  -20.9984 H         1 MCO         0.0306
     17 H3         13.6706   -8.4482  -20.6875 H         1 MCO         0.0306
     18 H4         13.2058   -5.6915  -19.6371 H         1 MCO         0.0286
     19 H5         14.7445   -6.5660  -19.9440 H         1 MCO         0.0286
     20 H6         13.3061   -6.3068  -17.4608 H         1 MCO         0.0524
     21 H7         14.8200   -7.2202  -17.7781 H         1 MCO         0.0524
     22 H8         14.4448   -7.9863  -15.8192 H         1 MCO         0.0543
     23 H9         16.1121   -9.7702  -15.3233 H         1 MCO         0.0257
     24 H10        15.8102   -9.6375  -17.0891 H         1 MCO         0.0257
     25 H11        15.0643  -10.9736  -16.1483 H         1 MCO         0.0257
     26 H12        14.2016   -9.1120  -13.7175 H         1 MCO         0.0401
     27 H13        13.4330  -10.5338  -14.5013 H         1 MCO         0.0401
     28 H14        12.0140   -7.6653  -14.3679 H         1 MCO         0.1018
@<TRIPOS>BOND
     1    1    2 ar 
     2    2    3 ar 
     3    2    4 1  
     4    4    5 1  
     5    4    8 1  
     6    5    6 1  
     7    6    7 1  
     8    7    8 1  
     9    8    9 am 
    10    9   10 2  
    11    9   11 1  
    12   11   12 1  
    13   11   13 1  
    14   13   14 1  
    15    4   15 1  
    16    5   16 1  
    17    5   17 1  
    18    6   18 1  
    19    6   19 1  
    20    7   20 1  
    21    7   21 1  
    22   11   22 1  
    23   12   23 1  
    24   12   24 1  
    25   12   25 1  
    26   13   26 1  
    27   13   27 1  
    28   14   28 1  
@<TRIPOS>SUBSTRUCTURE
     1 MCO         1

