### 
### Created by X-TOOL on Mon Sep 10 21:13:16 2018
### 

@<TRIPOS>MOLECULE
4c1h_ligand
   28    28     1     0     0
SMALL
GAST_HUCK


@<TRIPOS>ATOM
      1 O1         13.5050   13.2500   42.0170 O.2       1 X8Z        -0.3964
      2 C4         12.9420   13.3410   43.0980 C.2       1 X8Z         0.1838
      3 C2         13.7400   13.2950   44.3750 C.3       1 X8Z         0.0548
      4 C1         14.7720   12.1880   44.3260 C.3       1 X8Z         0.0101
      5 S          14.0450   10.5750   44.1510 S.3       1 X8Z        -0.1756
      6 C3         14.4240   14.6360   44.5380 C.3       1 X8Z        -0.0446
      7 N          11.5330   13.4800   43.1450 N.am      1 X8Z        -0.2572
      8 C8         10.8580   13.5360   41.9390 C.3       1 X8Z         0.0971
      9 C9         11.1150   14.8230   41.1850 C.2       1 X8Z         0.0603
     10 O3         10.7820   14.9020   39.9730 O.co2     1 X8Z        -0.5666
     11 O2         11.6530   15.8120   41.7550 O.co2     1 X8Z        -0.5666
     12 C5         10.8140   13.5990   44.3030 C.3       1 X8Z         0.0362
     13 C6          9.3610   13.6370   43.8950 C.3       1 X8Z        -0.0288
     14 C7          9.3740   13.4140   42.3430 C.3       1 X8Z        -0.0159
     15 H1         13.0641   13.1183   45.2247 H         1 X8Z         0.0543
     16 H2         15.3563   12.2108   45.2577 H         1 X8Z         0.0401
     17 H3         15.4393   12.3673   43.4701 H         1 X8Z         0.0401
     18 H4         14.7746    9.8800   44.1240 H         1 X8Z         0.1018
     19 H5         13.6660   15.4324   44.5724 H         1 X8Z         0.0257
     20 H6         15.0992   14.8091   43.6871 H         1 X8Z         0.0257
     21 H7         15.0036   14.6408   45.4729 H         1 X8Z         0.0257
     22 H8         11.1528   12.6897   41.3012 H         1 X8Z         0.0728
     23 H9         11.0870   14.5264   44.8277 H         1 X8Z         0.0524
     24 H10        11.0032   12.7369   44.9595 H         1 X8Z         0.0524
     25 H11         8.9145   14.6113   44.1426 H         1 X8Z         0.0286
     26 H12         8.7968   12.8370   44.3965 H         1 X8Z         0.0286
     27 H13         8.9849   12.4163   42.0918 H         1 X8Z         0.0306
     28 H14         8.7702   14.1813   41.8364 H         1 X8Z         0.0306
@<TRIPOS>BOND
     1    1    2 2  
     2    2    3 1  
     3    2    7 am 
     4    3    4 1  
     5    3    6 1  
     6    4    5 1  
     7    7    8 1  
     8    7   12 1  
     9    8    9 1  
    10    8   14 1  
    11    9   10 ar 
    12    9   11 ar 
    13   12   13 1  
    14   13   14 1  
    15    3   15 1  
    16    4   16 1  
    17    4   17 1  
    18    5   18 1  
    19    6   19 1  
    20    6   20 1  
    21    6   21 1  
    22    8   22 1  
    23   12   23 1  
    24   12   24 1  
    25   13   25 1  
    26   13   26 1  
    27   14   27 1  
    28   14   28 1  
@<TRIPOS>SUBSTRUCTURE
     1 X8Z         1

