### 
### Created by X-TOOL on Mon Sep 10 21:13:15 2018
### 

@<TRIPOS>MOLECULE
4c1m_ligand
   38    39     1     0     0
SMALL
GAST_HUCK


@<TRIPOS>ATOM
      1 N1         26.1450    3.4240   39.5690 N.am      1 NIH        -0.2369
      2 C2         26.1370    2.8460   40.7940 C.cat     1 NIH         0.2221
      3 N3         26.2290    3.5530   41.8990 N.pl3     1 NIH        -0.1948
      4 C4         26.3260    4.8640   41.8620 C.2       1 NIH         0.2078
      5 C5         26.3260    5.5190   40.6310 C.2       1 NIH         0.2837
      6 C6         26.2240    4.7620   39.4410 C.2       1 NIH         0.3013
      7 C7         26.3870    6.9690   40.5540 C.2       1 NIH         0.3252
      8 N8         26.7310    7.5360   39.3880 N.am      1 NIH        -0.1493
      9 O9         26.0630    7.6390   41.5220 O.2       1 NIH        -0.3267
     10 O10        26.2090    5.3010   38.3410 O.2       1 NIH        -0.3278
     11 O11        26.7610    8.9390   39.2890 O.3       1 NIH        -0.2715
     12 N12        26.0090    1.4900   40.8730 N.pl3     1 NIH        -0.3035
     13 C13        26.3500    0.7930   42.1100 C.3       1 NIH         0.0710
     14 C14        25.1950    0.8840   43.0690 C.ar      1 NIH         0.0338
     15 C15        23.9940    1.4500   42.6990 C.ar      1 NIH        -0.0034
     16 C16        22.9380    1.5150   43.6060 C.ar      1 NIH         0.0730
     17 C17        23.0790    1.0010   44.8880 C.ar      1 NIH        -0.0039
     18 C18        24.2940    0.4190   45.2350 C.ar      1 NIH         0.0730
     19 C19        25.3420    0.3730   44.3380 C.ar      1 NIH        -0.0034
     20 C20        24.5580   -0.1450   46.6080 C.3       1 NIH         0.3832
     21 F21        23.4570    0.0400   47.4350 F         1 NIH        -0.2187
     22 F22        24.8530   -1.5050   46.4820 F         1 NIH        -0.2187
     23 F23        25.6470    0.5400   47.1680 F         1 NIH        -0.2187
     24 C24        21.6500    2.1580   43.1470 C.3       1 NIH         0.3832
     25 F25        21.5760    2.1560   41.7520 F         1 NIH        -0.2187
     26 F26        20.5070    1.5380   43.6400 F         1 NIH        -0.2187
     27 F27        21.6820    3.4430   43.6200 F         1 NIH        -0.2187
     28 H1         26.0917    2.8510   38.7512 H         1 NIH         0.1829
     29 H2         26.2250    3.0715   42.8095 H         1 NIH         0.2693
     30 H3         26.4058    5.4341   42.7864 H         1 NIH         0.2182
     31 H4         26.9634    6.9681   38.5984 H         1 NIH         0.2216
     32 H5         25.8971    9.2871   39.4760 H         1 NIH         0.2489
     33 H6         25.6713    0.9571   40.0588 H         1 NIH         0.1855
     34 H7         27.2388    1.2587   42.5607 H         1 NIH         0.0710
     35 H8         26.5616   -0.2637   41.8896 H         1 NIH         0.0710
     36 H9         23.8703    1.8465   41.6977 H         1 NIH         0.0992
     37 H10        22.2634    1.0519   45.6002 H         1 NIH         0.1095
     38 H11        26.2865   -0.0683   44.6351 H         1 NIH         0.0992
@<TRIPOS>BOND
     1    1    2 ar 
     2    1    6 am 
     3    2    3 ar 
     4    2   12 ar 
     5    3    4 1  
     6    4    5 2  
     7    5    6 1  
     8    5    7 1  
     9    6   10 2  
    10    7    8 am 
    11    7    9 2  
    12    8   11 1  
    13   12   13 1  
    14   13   14 1  
    15   14   15 ar 
    16   14   19 ar 
    17   15   16 ar 
    18   16   17 ar 
    19   16   24 1  
    20   17   18 ar 
    21   18   19 ar 
    22   18   20 1  
    23   20   21 1  
    24   20   22 1  
    25   20   23 1  
    26   24   25 1  
    27   24   26 1  
    28   24   27 1  
    29    1   28 1  
    30    3   29 1  
    31    4   30 1  
    32    8   31 1  
    33   11   32 1  
    34   12   33 1  
    35   13   34 1  
    36   13   35 1  
    37   15   36 1  
    38   17   37 1  
    39   19   38 1  
@<TRIPOS>SUBSTRUCTURE
     1 NIH         1

