### 
### Created by X-TOOL on Mon Sep 10 21:13:15 2018
### 

@<TRIPOS>MOLECULE
4c1t_ligand
   71    74     1     0     0
SMALL
GAST_HUCK


@<TRIPOS>ATOM
      1 O5'        21.0420  112.1020   17.8470 O.3       1 AHR        -0.3924
      2 C5'        19.6570  111.9520   17.5710 C.3       1 AHR         0.0730
      3 C4'        18.8450  113.0590   18.1960 C.3       1 AHR         0.1131
      4 O4'        19.2770  114.3460   17.6700 O.3       1 AHR        -0.3405
      5 C3'        18.9740  113.2060   19.7080 C.3       1 AHR         0.1141
      6 O3'        18.1330  112.3210   20.4270 O.3       1 AHR        -0.3864
      7 C2'        18.6480  114.6770   19.9280 C.3       1 AHR         0.1341
      8 O2'        19.2930  115.1680   21.0940 O.3       1 AHR        -0.3841
      9 C1'        19.3110  115.3050   18.7070 C.3       1 AHR         0.1885
     10 C1B        18.3510  117.4710   16.2240 C.3       1 XYP         0.1884
     11 C2B        19.2880  117.1770   17.3620 C.3       1 XYP         0.1406
     12 C3B        20.2680  118.1700   17.9610 C.3       1 XYP         0.1141
     13 C4B        20.9070  118.9090   16.8010 C.3       1 XYP         0.1069
     14 C5B        19.9690  119.1230   15.6350 C.3       1 XYP         0.0792
     15 O2B        18.6100  116.4720   18.3470 O.3       1 XYP        -0.3378
     16 O3B        21.2540  117.5240   18.6950 O.3       1 XYP        -0.3864
     17 O4B        21.3830  120.1330   17.2420 O.3       1 XYP        -0.3869
     18 O5B        18.9990  118.2120   15.2560 O.3       1 XYP        -0.3460
     19 C1B        14.0980  115.8870   13.8840 C.3       1 XYP         0.1880
     20 C2B        15.3650  115.4810   13.1710 C.3       1 XYP         0.1341
     21 C3B        16.7300  115.3530   13.8090 C.3       1 XYP         0.1141
     22 C4B        16.9090  116.5630   14.7030 C.3       1 XYP         0.1134
     23 C5B        15.6260  117.0770   15.3150 C.3       1 XYP         0.0796
     24 O2B        15.1620  114.4200   12.3040 O.3       1 XYP        -0.3841
     25 O3B        17.7100  115.3380   12.8280 O.3       1 XYP        -0.3864
     26 O4B        17.8020  116.2470   15.7120 O.3       1 XYP        -0.3405
     27 O5B        14.3670  116.9310   14.7520 O.3       1 XYP        -0.3460
     28 O4A         8.9180  112.9190   11.4800 O.3       1 XYP        -0.3649
     29 C1B         9.5370  114.1150   11.7950 C.3       1 XYP         0.1850
     30 C2B        10.0770  114.0770   13.1970 C.3       1 XYP         0.1339
     31 C3B        11.0570  115.0780   13.7640 C.3       1 XYP         0.1141
     32 C4B        12.2000  115.0950   12.7630 C.3       1 XYP         0.1134
     33 C5B        11.7140  115.0410   11.3290 C.3       1 XYP         0.0796
     34 O2B         9.0840  113.7680   14.1130 O.3       1 XYP        -0.3841
     35 O3B        11.4680  114.6630   15.0220 O.3       1 XYP        -0.3864
     36 O4B        13.0380  116.1940   12.9500 O.3       1 XYP        -0.3405
     37 O5B        10.5770  114.3600   10.9140 O.3       1 XYP        -0.3462
     38 H1         21.3453  112.9318   17.4978 H         1 AHR         0.2095
     39 H2         19.3149  110.9871   17.9734 H         1 AHR         0.0584
     40 H3         19.5058  111.9694   16.4816 H         1 AHR         0.0584
     41 H4         17.7884  112.8837   17.9451 H         1 AHR         0.0647
     42 H5         20.0109  113.0056   20.0157 H         1 AHR         0.0648
     43 H6         17.2268  112.4904   20.1974 H         1 AHR         0.2100
     44 H7         17.5649  114.8645   19.9705 H         1 AHR         0.0671
     45 H8         19.0763  116.0855   21.2119 H         1 AHR         0.2101
     46 H9         20.3549  115.5649   18.9364 H         1 AHR         0.0938
     47 H10        17.5182  118.0774   16.6095 H         1 AHR         0.0938
     48 H11        19.9689  116.4398   16.9117 H         1 AHR         0.0675
     49 H12        19.7326  118.8759   18.6129 H         1 AHR         0.0648
     50 H13        21.7568  118.3083   16.4447 H         1 AHR         0.0643
     51 H14        20.6124  119.2606   14.7534 H         1 AHR         0.0587
     52 H15        19.4338  120.0600   15.8483 H         1 AHR         0.0587
     53 H16        21.8710  118.1654   19.0277 H         1 AHR         0.2100
     54 H17        21.9722  119.9970   17.9746 H         1 AHR         0.2100
     55 H18        13.7620  115.0310   14.4877 H         1 AHR         0.0937
     56 H19        15.5154  116.3445   12.5063 H         1 AHR         0.0671
     57 H20        16.7880  114.4290   14.4030 H         1 AHR         0.0648
     58 H21        17.3363  117.3720   14.0923 H         1 AHR         0.0647
     59 H22        15.7707  118.1608   15.4353 H         1 AHR         0.0587
     60 H23        15.5621  116.6034   16.3058 H         1 AHR         0.0587
     61 H24        14.3045  114.4999   11.9028 H         1 AHR         0.2101
     62 H25        17.6434  116.1272   12.3033 H         1 AHR         0.2100
     63 H26         8.2071  112.7614   12.0901 H         1 AHR         0.2126
     64 H27         8.7998  114.9277   11.7167 H         1 AHR         0.0935
     65 H28        10.6952  113.1678   13.1635 H         1 AHR         0.0671
     66 H29        10.5999  116.0756   13.8404 H         1 AHR         0.0648
     67 H30        12.7984  114.1894   12.9410 H         1 AHR         0.0647
     68 H31        12.5449  114.6120   10.7498 H         1 AHR         0.0587
     69 H32        11.5594  116.0877   11.0283 H         1 AHR         0.0587
     70 H33         9.4788  113.3960   14.8930 H         1 AHR         0.2101
     71 H34        12.1365  115.2548   15.3467 H         1 AHR         0.2100
@<TRIPOS>BOND
     1    2    1 1  
     2    3    2 1  
     3    4    3 1  
     4    5    3 1  
     5    9    4 1  
     6    5    6 1  
     7    7    5 1  
     8    7    8 1  
     9    9    7 1  
    10   15    9 1  
    11   10   11 1  
    12   10   18 1  
    13   26   10 1  
    14   11   12 1  
    15   11   15 1  
    16   12   13 1  
    17   12   16 1  
    18   14   13 1  
    19   13   17 1  
    20   18   14 1  
    21   19   20 1  
    22   19   27 1  
    23   36   19 1  
    24   20   21 1  
    25   20   24 1  
    26   21   22 1  
    27   21   25 1  
    28   23   22 1  
    29   22   26 1  
    30   27   23 1  
    31   29   28 1  
    32   30   29 1  
    33   29   37 1  
    34   31   30 1  
    35   30   34 1  
    36   32   31 1  
    37   31   35 1  
    38   32   33 1  
    39   32   36 1  
    40   33   37 1  
    41    1   38 1  
    42    2   39 1  
    43    2   40 1  
    44    3   41 1  
    45    5   42 1  
    46    6   43 1  
    47    7   44 1  
    48    8   45 1  
    49    9   46 1  
    50   10   47 1  
    51   11   48 1  
    52   12   49 1  
    53   13   50 1  
    54   14   51 1  
    55   14   52 1  
    56   16   53 1  
    57   17   54 1  
    58   19   55 1  
    59   20   56 1  
    60   21   57 1  
    61   22   58 1  
    62   23   59 1  
    63   23   60 1  
    64   24   61 1  
    65   25   62 1  
    66   28   63 1  
    67   29   64 1  
    68   30   65 1  
    69   31   66 1  
    70   32   67 1  
    71   33   68 1  
    72   33   69 1  
    73   34   70 1  
    74   35   71 1  
@<TRIPOS>SUBSTRUCTURE
     1 AHR         1

