### 
### Created by X-TOOL on Mon Sep 10 21:13:12 2018
### 

@<TRIPOS>MOLECULE
4c1u_ligand
   54    56     1     0     0
SMALL
GAST_HUCK


@<TRIPOS>ATOM
      1 O5'       -19.3070   18.2950  -20.9070 O.3       1 AHR        -0.3924
      2 C5'       -20.4960   18.7450  -20.2750 C.3       1 AHR         0.0730
      3 C4'       -20.4450   18.5540  -18.7780 C.3       1 AHR         0.1131
      4 O4'       -19.4200   19.4100  -18.1920 O.3       1 AHR        -0.3405
      5 C3'       -20.1220   17.1430  -18.2780 C.3       1 AHR         0.1141
      6 O3'       -20.9170   16.7540  -17.1700 O.3       1 AHR        -0.3864
      7 C2'       -18.6310   17.2080  -17.9690 C.3       1 AHR         0.1341
      8 O2'       -17.8640   17.0870  -19.1590 O.3       1 AHR        -0.3841
      9 C1'       -18.5070   18.6340  -17.4550 C.3       1 AHR         0.1884
     10 C1B       -16.8980   20.6850  -13.7040 C.3       1 XYP         0.1880
     11 C2B       -17.1970   19.5650  -14.6800 C.3       1 XYP         0.1345
     12 C3B       -18.4950   19.8170  -15.4220 C.3       1 XYP         0.1202
     13 C4B       -19.5720   20.1580  -14.4150 C.3       1 XYP         0.1073
     14 C5B       -19.0890   21.2490  -13.4840 C.3       1 XYP         0.0792
     15 O2B       -16.1290   19.4530  -15.5940 O.3       1 XYP        -0.3841
     16 O3B       -18.8850   18.6370  -16.0970 O.3       1 XYP        -0.3401
     17 O4B       -20.7330   20.5920  -15.0860 O.3       1 XYP        -0.3868
     18 O5B       -17.9510   20.8110  -12.7800 O.3       1 XYP        -0.3461
     19 O4A       -12.2020   24.0740  -10.9970 O.3       1 XYP        -0.3649
     20 C1B       -12.8420   22.9940  -11.6330 C.3       1 XYP         0.1850
     21 C2B       -13.5130   22.1330  -10.5860 C.3       1 XYP         0.1339
     22 C3B       -14.2350   20.9800  -11.2510 C.3       1 XYP         0.1141
     23 C4B       -15.1360   21.5000  -12.3510 C.3       1 XYP         0.1134
     24 C5B       -14.3240   22.3960  -13.2590 C.3       1 XYP         0.0796
     25 O2B       -12.5300   21.6320   -9.7080 O.3       1 XYP        -0.3841
     26 O3B       -14.9940   20.2790  -10.2920 O.3       1 XYP        -0.3864
     27 O4B       -15.6270   20.4010  -13.0870 O.3       1 XYP        -0.3405
     28 O5B       -13.8020   23.4860  -12.5340 O.3       1 XYP        -0.3462
     29 H1        -19.1855   17.3699  -20.7286 H         1 AHR         0.2095
     30 H2        -21.3488   18.1782  -20.6769 H         1 AHR         0.0584
     31 H3        -20.6314   19.8147  -20.4925 H         1 AHR         0.0584
     32 H4        -21.4303   18.8400  -18.3813 H         1 AHR         0.0647
     33 H5        -20.2973   16.4163  -19.0850 H         1 AHR         0.0648
     34 H6        -20.6762   15.8749  -16.9019 H         1 AHR         0.2100
     35 H7        -18.3234   16.4573  -17.2261 H         1 AHR         0.0671
     36 H8        -18.0860   17.7961  -19.7510 H         1 AHR         0.2101
     37 H9        -17.4815   19.0134  -17.5747 H         1 AHR         0.0938
     38 H10       -16.8138   21.6327  -14.2561 H         1 AHR         0.0937
     39 H11       -17.2901   18.6225  -14.1205 H         1 AHR         0.0671
     40 H12       -18.3667   20.6411  -16.1392 H         1 AHR         0.0651
     41 H13       -19.8096   19.2603  -13.8254 H         1 AHR         0.0643
     42 H14       -19.8868   21.4974  -12.7686 H         1 AHR         0.0587
     43 H15       -18.8323   22.1426  -14.0718 H         1 AHR         0.0587
     44 H16       -16.2953   18.7292  -16.1864 H         1 AHR         0.2101
     45 H17       -21.0349   19.9062  -15.6699 H         1 AHR         0.2100
     46 H18       -11.5531   23.7419  -10.3879 H         1 AHR         0.2126
     47 H19       -12.0993   22.3950  -12.1804 H         1 AHR         0.0935
     48 H20       -14.2366   22.7391  -10.0212 H         1 AHR         0.0671
     49 H21       -13.4930   20.2968  -11.6899 H         1 AHR         0.0648
     50 H22       -15.9740   22.0658  -11.9179 H         1 AHR         0.0647
     51 H23       -14.9683   22.7732  -14.0668 H         1 AHR         0.0587
     52 H24       -13.4943   21.8177  -13.6915 H         1 AHR         0.0587
     53 H25       -12.0788   22.3574   -9.2924 H         1 AHR         0.2101
     54 H26       -14.4187   19.9578   -9.6076 H         1 AHR         0.2100
@<TRIPOS>BOND
     1    2    1 1  
     2    3    2 1  
     3    4    3 1  
     4    5    3 1  
     5    9    4 1  
     6    5    6 1  
     7    7    5 1  
     8    7    8 1  
     9    9    7 1  
    10   16    9 1  
    11   10   11 1  
    12   10   18 1  
    13   27   10 1  
    14   11   12 1  
    15   11   15 1  
    16   12   13 1  
    17   12   16 1  
    18   14   13 1  
    19   13   17 1  
    20   18   14 1  
    21   20   19 1  
    22   21   20 1  
    23   20   28 1  
    24   22   21 1  
    25   21   25 1  
    26   23   22 1  
    27   22   26 1  
    28   23   24 1  
    29   23   27 1  
    30   24   28 1  
    31    1   29 1  
    32    2   30 1  
    33    2   31 1  
    34    3   32 1  
    35    5   33 1  
    36    6   34 1  
    37    7   35 1  
    38    8   36 1  
    39    9   37 1  
    40   10   38 1  
    41   11   39 1  
    42   12   40 1  
    43   13   41 1  
    44   14   42 1  
    45   14   43 1  
    46   15   44 1  
    47   17   45 1  
    48   19   46 1  
    49   20   47 1  
    50   21   48 1  
    51   22   49 1  
    52   23   50 1  
    53   24   51 1  
    54   24   52 1  
    55   25   53 1  
    56   26   54 1  
@<TRIPOS>SUBSTRUCTURE
     1 AHR         1

