### 
### Created by X-TOOL on Mon Sep 10 21:13:16 2018
### 

@<TRIPOS>MOLECULE
4c1w_ligand
   81    83     1     0     0
SMALL
GAST_HUCK


@<TRIPOS>ATOM
      1 O17         2.0070    1.0270    5.0070 O.2       1 SLT        -0.3974
      2 C17         2.6600    1.0020    6.0710 C.2       1 SLT         0.1733
      3 C18         4.1010    0.5640    6.0940 C.3       1 SLT         0.0257
      4 N12         2.1830    1.3380    7.2850 N.am      1 SLT        -0.2790
      5 C12         0.8920    1.9970    7.4900 C.3       1 SLT         0.0964
      6 C13        -0.1590    0.9480    7.9320 C.3       1 SLT         0.1143
      7 O13        -1.4340    1.5950    8.1150 O.3       1 SLT        -0.3384
      8 C14        -0.3800   -0.2190    6.9830 C.3       1 SLT         0.1114
      9 O14        -0.5950    0.2610    5.6320 O.3       1 SLT        -0.3865
     10 C15        -1.5940   -1.0700    7.4220 C.3       1 SLT         0.1065
     11 O15        -1.5750   -1.3330    8.8360 O.3       1 SLT        -0.3869
     12 C16        -1.6140   -2.3870    6.6580 C.3       1 SLT         0.0727
     13 O16        -2.8910   -3.0080    6.8350 O.3       1 SLT        -0.3924
     14 C11         0.9580    3.0720    8.5680 C.3       1 SLT         0.0850
     15 O11         1.8690    4.0980    8.1450 O.3       1 SLT        -0.3893
     16 C10        -0.4120    3.6850    8.8700 C.3       1 SLT         0.0353
     17 C9         -1.4300    2.5740    9.1720 C.3       1 SLT         0.2208
     18 C19        -1.2250    1.9070   10.5510 C.2       1 SLT         0.1041
     19 O20        -1.4110    0.6550   10.6280 O.co2     1 SLT        -0.5426
     20 O19        -0.9280    2.6120   11.5750 O.co2     1 SLT        -0.5426
     21 O9         -2.7110    3.1950    9.1220 O.3       1 SLT        -0.3380
     22 C3         -3.7700    2.3450    9.5570 C.3       1 SLT         0.1197
     23 C4         -4.4480    2.9720   10.7910 C.3       1 SLT         0.1121
     24 C5         -5.8230    2.3330   11.0570 C.3       1 SLT         0.1130
     25 O5         -6.6540    2.3210    9.9110 O.3       1 SLT        -0.3405
     26 C6         -6.5590    3.0820   12.1330 C.3       1 SLT         0.0730
     27 O6         -7.5670    2.1510   12.4980 O.3       1 SLT        -0.3924
     28 O4         -4.6410    4.3710   10.5600 O.3       1 SLT        -0.3865
     29 C2         -4.7400    2.1850    8.3720 C.3       1 SLT         0.1344
     30 O2         -4.1380    1.3970    7.3070 O.3       1 SLT        -0.3841
     31 C1         -6.0430    1.5550    8.8620 C.3       1 SLT         0.1884
     32 O1         -6.9220    1.4390    7.7420 O.3       1 SLT        -0.3401
     33 C4A        -7.9710    0.5120    8.0310 C.3       1 SLT         0.1184
     34 C5A        -7.7540   -0.8200    7.2840 C.3       1 SLT         0.1134
     35 O5A        -8.9220   -1.6840    7.2020 O.3       1 SLT        -0.3407
     36 C6A        -6.5940   -1.5850    7.9370 C.3       1 SLT         0.0730
     37 O6A        -5.5280   -1.3960    7.0000 O.3       1 SLT        -0.3924
     38 C3A        -9.3300    1.1240    7.6700 C.3       1 SLT         0.1144
     39 O3A        -9.5370    2.4220    8.2320 O.3       1 SLT        -0.3864
     40 C2A       -10.3300    0.0840    8.1810 C.3       1 SLT         0.1339
     41 O2A       -11.6560    0.6090    8.3330 O.3       1 SLT        -0.3841
     42 C1A       -10.2450   -1.0960    7.2010 C.3       1 SLT         0.1854
     43 O1A       -10.5170   -0.6210    5.8740 O.3       1 SLT        -0.3649
     44 H           4.4837    0.6163    7.1240 H         1 SLT         0.0467
     45 H           4.6959    1.2262    5.4478 H         1 SLT         0.0467
     46 H           4.1758   -0.4703    5.7271 H         1 SLT         0.0467
     47 H           2.7398    1.1262    8.0882 H         1 SLT         0.1856
     48 H           0.5770    2.4582    6.5423 H         1 SLT         0.0608
     49 H           0.1761    0.5363    8.8954 H         1 SLT         0.0646
     50 H           0.5185   -0.8535    6.9955 H         1 SLT         0.0647
     51 H           0.1665    0.7522    5.3467 H         1 SLT         0.2100
     52 H          -2.5112   -0.5109    7.1852 H         1 SLT         0.0643
     53 H          -1.5984   -0.5102    9.3104 H         1 SLT         0.2100
     54 H          -0.8250   -3.0494    7.0438 H         1 SLT         0.0584
     55 H          -1.4418   -2.1958    5.5885 H         1 SLT         0.0584
     56 H          -3.0373   -3.1708    7.7595 H         1 SLT         0.2095
     57 H           1.3405    2.6139    9.4920 H         1 SLT         0.0618
     58 H           2.7308    3.7203    8.0137 H         1 SLT         0.2099
     59 H          -0.7522    4.2637    7.9986 H         1 SLT         0.0336
     60 H          -0.3292    4.3501    9.7422 H         1 SLT         0.0336
     61 H          -3.3694    1.3587    9.8338 H         1 SLT         0.0650
     62 H          -3.8029    2.8262   11.6700 H         1 SLT         0.0647
     63 H          -5.6594    1.2962   11.3860 H         1 SLT         0.0647
     64 H          -6.9962    4.0138   11.7449 H         1 SLT         0.0584
     65 H          -5.8999    3.3123   12.9830 H         1 SLT         0.0584
     66 H          -8.1071    1.9576   11.7407 H         1 SLT         0.2095
     67 H          -3.8009    4.7822   10.3937 H         1 SLT         0.2100
     68 H          -4.9671    3.1837    7.9708 H         1 SLT         0.0671
     69 H          -3.3505    1.8307    7.0000 H         1 SLT         0.2101
     70 H          -5.8251    0.5501    9.2527 H         1 SLT         0.0938
     71 H          -7.9608    0.3048    9.1112 H         1 SLT         0.0651
     72 H          -7.4646   -0.5695    6.2528 H         1 SLT         0.0647
     73 H          -6.8368   -2.6517    8.0522 H         1 SLT         0.0584
     74 H          -6.3399   -1.1586    8.9186 H         1 SLT         0.0584
     75 H          -4.7486   -1.8384    7.3153 H         1 SLT         0.2095
     76 H          -9.4154    1.2149    6.5771 H         1 SLT         0.0648
     77 H          -8.8645    3.0137    7.9157 H         1 SLT         0.2100
     78 H         -10.0025   -0.2612    9.1728 H         1 SLT         0.0671
     79 H         -11.6418    1.3267    8.9553 H         1 SLT         0.2101
     80 H         -10.9853   -1.8582    7.4854 H         1 SLT         0.0935
     81 H         -11.3825   -0.2301    5.8500 H         1 SLT         0.2126
@<TRIPOS>BOND
     1    1    2 2  
     2    2    3 1  
     3    2    4 am 
     4    4    5 1  
     5    5    6 1  
     6    5   14 1  
     7    6    7 1  
     8    6    8 1  
     9    7   17 1  
    10    8    9 1  
    11    8   10 1  
    12   10   11 1  
    13   10   12 1  
    14   12   13 1  
    15   14   15 1  
    16   14   16 1  
    17   16   17 1  
    18   17   18 1  
    19   17   21 1  
    20   18   19 ar 
    21   18   20 ar 
    22   21   22 1  
    23   22   23 1  
    24   22   29 1  
    25   23   24 1  
    26   23   28 1  
    27   24   25 1  
    28   24   26 1  
    29   25   31 1  
    30   26   27 1  
    31   29   30 1  
    32   29   31 1  
    33   31   32 1  
    34   32   33 1  
    35   33   34 1  
    36   33   38 1  
    37   34   35 1  
    38   34   36 1  
    39   35   42 1  
    40   36   37 1  
    41   38   39 1  
    42   38   40 1  
    43   40   41 1  
    44   40   42 1  
    45   42   43 1  
    46    3   44 1  
    47    3   45 1  
    48    3   46 1  
    49    4   47 1  
    50    5   48 1  
    51    6   49 1  
    52    8   50 1  
    53    9   51 1  
    54   10   52 1  
    55   11   53 1  
    56   12   54 1  
    57   12   55 1  
    58   13   56 1  
    59   14   57 1  
    60   15   58 1  
    61   16   59 1  
    62   16   60 1  
    63   22   61 1  
    64   23   62 1  
    65   24   63 1  
    66   26   64 1  
    67   26   65 1  
    68   27   66 1  
    69   28   67 1  
    70   29   68 1  
    71   30   69 1  
    72   31   70 1  
    73   33   71 1  
    74   34   72 1  
    75   36   73 1  
    76   36   74 1  
    77   37   75 1  
    78   38   76 1  
    79   39   77 1  
    80   40   78 1  
    81   41   79 1  
    82   42   80 1  
    83   43   81 1  
@<TRIPOS>SUBSTRUCTURE
     1 SLT         1

