### 
### Created by X-TOOL on Mon Sep 10 21:13:20 2018
### 

@<TRIPOS>MOLECULE
4c1y_ligand
   26    26     1     0     0
SMALL
GAST_HUCK


@<TRIPOS>ATOM
      1 C1        -44.2040   16.2970   -9.2500 C.3       1 MFB         0.1875
      2 C2        -42.7480   16.6460   -8.9220 C.3       1 MFB         0.1341
      3 C3        -42.1340   15.8180   -7.8020 C.3       1 MFB         0.1140
      4 C4        -42.4120   14.3370   -8.0100 C.3       1 MFB         0.1095
      5 C5        -43.9290   14.1490   -8.2170 C.3       1 MFB         0.0873
      6 C6        -44.3400   12.6980   -8.3610 C.3       1 MFB        -0.0361
      7 O1        -44.5380   16.9790  -10.4730 O.3       1 MFB        -0.3520
      8 O2        -42.6580   18.0350   -8.5520 O.3       1 MFB        -0.3841
      9 O3        -40.7340   16.1140   -7.8080 O.3       1 MFB        -0.3864
     10 O4        -41.7100   13.9040   -9.1730 O.3       1 MFB        -0.3866
     11 O5        -44.3530   14.8700   -9.3890 O.3       1 MFB        -0.3431
     12 CM        -45.9620   17.0790  -10.6700 C.3       1 MFB         0.0395
     13 H1        -44.8622   16.6478   -8.4414 H         1 MFB         0.0937
     14 H2        -42.1523   16.4794   -9.8316 H         1 MFB         0.0671
     15 H3        -42.5667   16.1214   -6.8373 H         1 MFB         0.0648
     16 H4        -42.0784   13.7611   -7.1342 H         1 MFB         0.0646
     17 H5        -44.4445   14.5647   -7.3387 H         1 MFB         0.0621
     18 H6        -45.4289   12.6379   -8.5049 H         1 MFB         0.0255
     19 H7        -44.0592   12.1454   -7.4523 H         1 MFB         0.0255
     20 H8        -43.8304   12.2571   -9.2304 H         1 MFB         0.0255
     21 H9        -41.7456   18.2711   -8.4319 H         1 MFB         0.2101
     22 H10       -40.3611   15.8587   -8.6436 H         1 MFB         0.2100
     23 H11       -40.7767   14.0218   -9.0404 H         1 MFB         0.2100
     24 H12       -46.1654   17.6058  -11.6140 H         1 MFB         0.0525
     25 H13       -46.4094   17.6376   -9.8347 H         1 MFB         0.0525
     26 H14       -46.3981   16.0700  -10.7118 H         1 MFB         0.0525
@<TRIPOS>BOND
     1    1    2 1  
     2    1    7 1  
     3    1   11 1  
     4    2    3 1  
     5    2    8 1  
     6    3    4 1  
     7    3    9 1  
     8    4    5 1  
     9    4   10 1  
    10    5    6 1  
    11    5   11 1  
    12    7   12 1  
    13    1   13 1  
    14    2   14 1  
    15    3   15 1  
    16    4   16 1  
    17    5   17 1  
    18    6   18 1  
    19    6   19 1  
    20    6   20 1  
    21    8   21 1  
    22    9   22 1  
    23   10   23 1  
    24   12   24 1  
    25   12   25 1  
    26   12   26 1  
@<TRIPOS>SUBSTRUCTURE
     1 MFB         1

