### 
### Created by X-TOOL on Mon Sep 10 21:13:17 2018
### 

@<TRIPOS>MOLECULE
4c2v_ligand
   68    71     1     0     0
SMALL
GAST_HUCK


@<TRIPOS>ATOM
      1 CAK         2.0950  -19.2810    6.6240 C.ar      1 YJA        -0.0084
      2 CBC         1.0200  -18.4600    6.4090 C.ar      1 YJA         0.1191
      3 FAD         0.1820  -18.7520    5.2160 F         1 YJA        -0.1876
      4 CAG         0.7410  -17.4060    7.2780 C.ar      1 YJA        -0.0437
      5 CAE         1.5450  -17.1750    8.3790 C.ar      1 YJA        -0.0772
      6 CAH         2.6510  -17.9820    8.5770 C.ar      1 YJA        -0.0452
      7 CBD         2.9760  -19.0160    7.6700 C.ar      1 YJA         0.0644
      8 NAX         4.0820  -19.8050    8.0100 N.am      1 YJA        -0.2329
      9 CBB         4.5330  -20.8590    7.2960 C.2       1 YJA         0.2191
     10 OAB         4.3160  -21.1360    6.1040 O.2       1 YJA        -0.3814
     11 CAT         5.6520  -21.6350    8.0970 C.3       1 YJA         0.1029
     12 CBE         6.1230  -22.8550    7.2470 C.2       1 YJA         0.0788
     13 CAL         7.3890  -23.1300    6.7770 C.2       1 YJA        -0.0216
     14 NAZ         5.3080  -23.8220    6.8850 N.pl3     1 YJA        -0.2302
     15 NAW         6.0040  -24.6920    6.2280 N.2       1 YJA        -0.2251
     16 CBG         7.2920  -24.3060    6.1110 C.2       1 YJA         0.1030
     17 NAY         8.1900  -25.1380    5.4380 N.pl3     1 YJA        -0.2481
     18 C6          9.5710  -25.0590    5.5450 C.ar      1 YJA         0.1548
     19 N1         10.1710  -23.9850    6.1660 N.ar      1 YJA        -0.2565
     20 C2         11.4770  -24.0100    6.3210 C.ar      1 YJA         0.0563
     21 N3         12.3670  -24.9050    5.8850 N.ar      1 YJA        -0.3004
     22 C4         11.8440  -26.0060    5.2400 C.ar      1 YJA         0.0336
     23 CAM        12.7480  -27.0320    4.8570 C.ar      1 YJA        -0.0149
     24 C5         10.4290  -26.1030    5.0630 C.ar      1 YJA         0.0494
     25 CAJ        10.0260  -27.2810    4.3970 C.ar      1 YJA        -0.0432
     26 CAI        10.9250  -28.2890    3.9740 C.ar      1 YJA        -0.0215
     27 CBF        12.3240  -28.1530    4.1650 C.ar      1 YJA         0.0986
     28 OBA        13.2020  -29.1010    3.6970 O.3       1 YJA        -0.3126
     29 CAQ        14.6120  -28.8410    3.8680 C.3       1 YJA         0.0772
     30 CAP        15.3910  -29.9410    3.1840 C.3       1 YJA         0.0156
     31 CAS        14.8710  -31.2850    3.6500 C.3       1 YJA        -0.0293
     32 NBK        15.5330  -32.4540    2.9970 N.4       1 YJA         0.2367
     33 CAO        16.9510  -32.5680    3.4030 C.3       1 YJA        -0.0347
     34 CAA        17.0400  -33.6360    4.5130 C.3       1 YJA        -0.0245
     35 CAR        15.4510  -32.6490    1.5270 C.3       1 YJA        -0.0082
     36 CAN        14.3040  -31.8430    0.8580 C.3       1 YJA         0.0841
     37 OAC        14.4640  -32.2600   -0.5080 O.3       1 YJA        -0.3898
     38 H           2.2603  -20.1372    5.9801 H         1 YJA         0.0486
     39 H          -0.1115  -16.7636    7.0893 H         1 YJA         0.0476
     40 H           1.3129  -16.3763    9.0742 H         1 YJA         0.0568
     41 H           3.2803  -17.8182    9.4443 H         1 YJA         0.0470
     42 H           4.5764  -19.5696    8.8468 H         1 YJA         0.2257
     43 H           5.2435  -21.9878    9.0555 H         1 YJA         0.0711
     44 H           6.5037  -20.9650    8.2858 H         1 YJA         0.0711
     45 H           8.2846  -22.5255    6.9131 H         1 YJA         0.0228
     46 H           4.2996  -23.8764    7.0877 H         1 YJA         0.2462
     47 H           7.7989  -25.8617    4.8181 H         1 YJA         0.2192
     48 H          11.8916  -23.1827    6.8855 H         1 YJA         0.1050
     49 H          13.7968  -26.9347    5.1132 H         1 YJA         0.0508
     50 H           8.9695  -27.4211    4.1987 H         1 YJA         0.0674
     51 H          10.5374  -29.1811    3.4954 H         1 YJA         0.0594
     52 H          14.8584  -28.8237    4.9399 H         1 YJA         0.0620
     53 H          14.8674  -27.8706    3.4173 H         1 YJA         0.0620
     54 H          16.4570  -29.8504    3.4398 H         1 YJA         0.0343
     55 H          15.2669  -29.8565    2.0943 H         1 YJA         0.0343
     56 H          13.7936  -31.3327    3.4335 H         1 YJA         0.0815
     57 H          15.0305  -31.3597    4.7358 H         1 YJA         0.0815
     58 H          15.0584  -33.2533    3.3867 H         1 YJA         0.2034
     59 H          17.3097  -31.6008    3.7849 H         1 YJA         0.0812
     60 H          17.5635  -32.8720    2.5414 H         1 YJA         0.0812
     61 H          18.0861  -33.7429    4.8359 H         1 YJA         0.0281
     62 H          16.6756  -34.5988    4.1255 H         1 YJA         0.0281
     63 H          16.4218  -33.3276    5.3690 H         1 YJA         0.0281
     64 H          15.2883  -33.7182    1.3261 H         1 YJA         0.0837
     65 H          16.4051  -32.3330    1.0801 H         1 YJA         0.0837
     66 H          14.4475  -30.7584    0.9724 H         1 YJA         0.0610
     67 H          13.3194  -32.1268    1.2580 H         1 YJA         0.0610
     68 H          13.8090  -31.8325   -1.0472 H         1 YJA         0.2096
@<TRIPOS>BOND
     1    1    2 ar 
     2    1    7 ar 
     3    2    3 1  
     4    2    4 ar 
     5    4    5 ar 
     6    5    6 ar 
     7    6    7 ar 
     8    7    8 1  
     9    8    9 am 
    10    9   10 2  
    11    9   11 1  
    12   11   12 1  
    13   12   13 2  
    14   12   14 1  
    15   13   16 1  
    16   14   15 1  
    17   15   16 2  
    18   16   17 1  
    19   17   18 1  
    20   18   19 ar 
    21   18   24 ar 
    22   19   20 ar 
    23   20   21 ar 
    24   21   22 ar 
    25   22   23 ar 
    26   22   24 ar 
    27   23   27 ar 
    28   24   25 ar 
    29   25   26 ar 
    30   26   27 ar 
    31   27   28 1  
    32   28   29 1  
    33   29   30 1  
    34   30   31 1  
    35   31   32 1  
    36   32   33 1  
    37   32   35 1  
    38   33   34 1  
    39   35   36 1  
    40   36   37 1  
    41    1   38 1  
    42    4   39 1  
    43    5   40 1  
    44    6   41 1  
    45    8   42 1  
    46   11   43 1  
    47   11   44 1  
    48   13   45 1  
    49   14   46 1  
    50   17   47 1  
    51   20   48 1  
    52   23   49 1  
    53   25   50 1  
    54   26   51 1  
    55   29   52 1  
    56   29   53 1  
    57   30   54 1  
    58   30   55 1  
    59   31   56 1  
    60   31   57 1  
    61   32   58 1  
    62   33   59 1  
    63   33   60 1  
    64   34   61 1  
    65   34   62 1  
    66   34   63 1  
    67   35   64 1  
    68   35   65 1  
    69   36   66 1  
    70   36   67 1  
    71   37   68 1  
@<TRIPOS>SUBSTRUCTURE
     1 YJA         1

