### 
### Created by X-TOOL on Mon Sep 10 21:13:14 2018
### 

@<TRIPOS>MOLECULE
4c35_ligand
   30    32     1     0     0
SMALL
GAST_HUCK


@<TRIPOS>ATOM
      1 C          11.9910   83.8410   84.6250 C.2       1 NU3         0.1964
      2 N          12.6800   84.9970   84.7450 N.am      1 NU3        -0.3018
      3 O          12.5560   82.7450   84.4890 O.2       1 NU3        -0.3902
      4 C1         10.4930   83.9140   84.6190 C.ar      1 NU3         0.0710
      5 N1          8.0450   86.4160   85.1780 N.2       1 NU3        -0.3084
      6 O1          9.1230   92.8140   85.6990 O.3       1 NU3        -0.3288
      7 C2          9.7520   82.7400   84.4500 C.ar      1 NU3        -0.0542
      8 N2         10.2870   86.4720   85.0170 N.pl3     1 NU3        -0.2475
      9 C3          8.3660   82.7530   84.5580 C.ar      1 NU3        -0.0701
     10 C4          7.6930   83.9390   84.8050 C.ar      1 NU3        -0.0569
     11 C5          8.4430   85.1070   84.9440 C.ar      1 NU3         0.0359
     12 C6          9.1770   87.1870   85.1970 C.2       1 NU3         0.1344
     13 C7          9.1430   88.6580   85.3620 C.ar      1 NU3         0.0246
     14 C8         10.3180   89.3670   85.6000 C.ar      1 NU3        -0.0514
     15 C9         10.3060   90.7490   85.7050 C.ar      1 NU3        -0.0265
     16 C10         9.1120   91.4470   85.5720 C.ar      1 NU3         0.0942
     17 C11         7.9300   90.7540   85.3450 C.ar      1 NU3        -0.0265
     18 C12         7.9460   89.3700   85.2520 C.ar      1 NU3        -0.0514
     19 C13         9.8720   85.1500   84.8520 C.ar      1 NU3         0.1010
     20 H1         12.1902   85.8621   84.8531 H         1 NU3         0.1804
     21 H2         13.6798   84.9875   84.7257 H         1 NU3         0.1804
     22 H3          8.2414   93.1487   85.5842 H         1 NU3         0.2507
     23 H4         10.2640   81.8096   84.2324 H         1 NU3         0.0600
     24 H5         11.2550   86.8238   85.0026 H         1 NU3         0.2314
     25 H6          7.8084   81.8299   84.4483 H         1 NU3         0.0537
     26 H7          6.6124   83.9586   84.8880 H         1 NU3         0.0590
     27 H8         11.2543   88.8308   85.7045 H         1 NU3         0.0641
     28 H9         11.2292   91.2859   85.8911 H         1 NU3         0.0560
     29 H10         6.9959   91.2940   85.2406 H         1 NU3         0.0560
     30 H11         7.0175   88.8339   85.0919 H         1 NU3         0.0641
@<TRIPOS>BOND
     1    1    2 am 
     2    1    3 2  
     3    4    1 1  
     4    4    7 ar 
     5   19    4 ar 
     6    5   11 1  
     7   12    5 2  
     8   16    6 1  
     9    7    9 ar 
    10   12    8 1  
    11    8   19 1  
    12   10    9 ar 
    13   11   10 ar 
    14   19   11 ar 
    15   13   12 1  
    16   14   13 ar 
    17   13   18 ar 
    18   15   14 ar 
    19   15   16 ar 
    20   16   17 ar 
    21   17   18 ar 
    22    2   20 1  
    23    2   21 1  
    24    6   22 1  
    25    7   23 1  
    26    8   24 1  
    27    9   25 1  
    28   10   26 1  
    29   14   27 1  
    30   15   28 1  
    31   17   29 1  
    32   18   30 1  
@<TRIPOS>SUBSTRUCTURE
     1 NU3         1

