### 
### Created by X-TOOL on Mon Sep 10 21:13:12 2018
### 

@<TRIPOS>MOLECULE
4c36_ligand
   32    35     1     0     0
SMALL
GAST_HUCK


@<TRIPOS>ATOM
      1 C         -26.7090   -9.9010    0.4730 C.ar      1 ZO9        -0.0766
      2 N         -29.8060  -10.0390   -1.6130 N.2       1 ZO9        -0.3085
      3 O         -32.1650  -10.2230   -5.4680 O.3       1 ZO9        -0.0677
      4 C1        -25.8170   -9.5780   -0.5470 C.ar      1 ZO9        -0.0748
      5 N1        -28.3750   -9.5090   -3.2790 N.pl3     1 ZO9        -0.2351
      6 C2        -26.2570   -9.4310   -1.8600 C.ar      1 ZO9        -0.0398
      7 N2        -30.8290  -10.1200   -5.1000 N.2       1 ZO9        -0.0788
      8 C3        -27.6120   -9.6230   -2.1180 C.ar      1 ZO9         0.0835
      9 N3        -33.0130  -10.0920   -4.3560 N.2       1 ZO9        -0.0959
     10 C4        -28.5130   -9.9460   -1.1050 C.ar      1 ZO9         0.0300
     11 N4        -32.6360   -9.7450   -2.0730 N.pl3     1 ZO9        -0.3275
     12 C5        -28.0590  -10.0830    0.2070 C.ar      1 ZO9        -0.0620
     13 C6        -29.6780   -9.7630   -2.8990 C.2       1 ZO9         0.1561
     14 C7        -27.8910   -9.0660   -4.6010 C.3       1 ZO9         0.0584
     15 C8        -27.5120  -10.2450   -5.4720 C.3       1 ZO9        -0.0145
     16 C9        -26.1440  -10.8300   -5.3290 C.3       1 ZO9        -0.0475
     17 C10       -26.4990  -10.0610   -6.5580 C.3       1 ZO9        -0.0475
     18 C11       -30.8470   -9.9160   -3.7950 C.2       1 ZO9         0.1723
     19 C12       -32.2190   -9.9310   -3.3300 C.2       1 ZO9         0.1590
     20 H1        -26.3440  -10.0116    1.4877 H         1 ZO9         0.0522
     21 H2        -24.7671   -9.4393   -0.3157 H         1 ZO9         0.0542
     22 H3        -25.5668   -9.1753   -2.6558 H         1 ZO9         0.0545
     23 H4        -31.9491   -9.6252   -1.3149 H         1 ZO9         0.1701
     24 H5        -33.6441   -9.7215   -1.8630 H         1 ZO9         0.1701
     25 H6        -28.7496  -10.3277    1.0059 H         1 ZO9         0.0549
     26 H7        -27.0083   -8.4244   -4.4628 H         1 ZO9         0.0603
     27 H8        -28.6863   -8.4930   -5.1001 H         1 ZO9         0.0603
     28 H9        -28.3858  -10.8941   -5.6303 H         1 ZO9         0.0326
     29 H10       -26.0037  -11.9196   -5.3838 H         1 ZO9         0.0269
     30 H11       -25.4382  -10.4056   -4.5998 H         1 ZO9         0.0269
     31 H12       -26.0552   -9.0700   -6.7340 H         1 ZO9         0.0269
     32 H13       -26.6207  -10.5840   -7.5180 H         1 ZO9         0.0269
@<TRIPOS>BOND
     1    4    1 ar 
     2   12    1 ar 
     3    2   10 1  
     4   13    2 2  
     5    7    3 1  
     6    3    9 1  
     7    6    4 ar 
     8    5    8 1  
     9   13    5 1  
    10    5   14 1  
    11    8    6 ar 
    12   18    7 2  
    13    8   10 ar 
    14    9   19 2  
    15   10   12 ar 
    16   19   11 1  
    17   13   18 1  
    18   14   15 1  
    19   15   16 1  
    20   15   17 1  
    21   16   17 1  
    22   18   19 1  
    23    1   20 1  
    24    4   21 1  
    25    6   22 1  
    26   11   23 1  
    27   11   24 1  
    28   12   25 1  
    29   14   26 1  
    30   14   27 1  
    31   15   28 1  
    32   16   29 1  
    33   16   30 1  
    34   17   31 1  
    35   17   32 1  
@<TRIPOS>SUBSTRUCTURE
     1 ZO9         1

