### 
### Created by X-TOOL on Mon Sep 10 21:13:12 2018
### 

@<TRIPOS>MOLECULE
4c37_ligand
   27    29     1     0     0
SMALL
GAST_HUCK


@<TRIPOS>ATOM
      1 BR         24.0650   -9.6280   -0.0460 Br        1 Z21        -0.0302
      2 C          25.8970   -9.7290    0.4430 C.ar      1 Z21         0.0731
      3 C1         26.2340   -9.6060    1.7810 C.ar      1 Z21        -0.0026
      4 C2         27.6040   -9.7290    1.9920 C.ar      1 Z21         0.1020
      5 N2         28.3630   -9.6860    3.1550 N.pl3     1 Z21        -0.2275
      6 C6         27.8030   -9.4490    4.4990 C.3       1 Z21         0.0550
      7 C7         27.3510  -10.7320    5.1440 C.3       1 Z21        -0.0382
      8 C5         29.6670   -9.8760    2.7530 C.2       1 Z21         0.1612
      9 N1         29.8140  -10.0060    1.4480 N.2       1 Z21        -0.2995
     10 C3         28.5180   -9.9350    0.9490 C.ar      1 Z21         0.0571
     11 C4         28.0290  -10.0350   -0.3850 C.ar      1 Z21         0.0096
     12 N          26.7170   -9.9270   -0.6230 N.ar      1 Z21        -0.3049
     13 C8         30.7890  -10.0370    3.6620 C.2       1 Z21         0.1746
     14 C9         32.1790   -9.9770    3.2820 C.2       1 Z21         0.1596
     15 N5         32.6690   -9.7780    2.0520 N.pl3     1 Z21        -0.3273
     16 N4         32.9270  -10.1560    4.3370 N.2       1 Z21        -0.0955
     17 O          32.0490  -10.3420    5.3790 O.3       1 Z21        -0.0670
     18 N3         30.7140  -10.2640    4.9530 N.2       1 Z21        -0.0774
     19 H1         25.5136   -9.4338    2.5724 H         1 Z21         0.0641
     20 H2         26.9419   -8.7701    4.4125 H         1 Z21         0.0601
     21 H3         28.5744   -8.9842    5.1305 H         1 Z21         0.0601
     22 H4         26.9406  -10.5162    6.1415 H         1 Z21         0.0255
     23 H5         28.2073  -11.4157    5.2400 H         1 Z21         0.0255
     24 H6         26.5748  -11.2015    4.5219 H         1 Z21         0.0255
     25 H7         28.7183  -10.1982   -1.2055 H         1 Z21         0.0765
     26 H8         33.6876   -9.7547    1.9010 H         1 Z21         0.1702
     27 H9         32.0274   -9.6482    1.2568 H         1 Z21         0.1702
@<TRIPOS>BOND
     1    1    2 1  
     2    2    3 ar 
     3    2   12 ar 
     4    3    4 ar 
     5    4    5 1  
     6    4   10 ar 
     7    5    6 1  
     8    5    8 1  
     9    6    7 1  
    10    8    9 2  
    11    8   13 1  
    12    9   10 1  
    13   10   11 ar 
    14   11   12 ar 
    15   13   14 1  
    16   13   18 2  
    17   14   15 1  
    18   14   16 2  
    19   16   17 1  
    20   17   18 1  
    21    3   19 1  
    22    6   20 1  
    23    6   21 1  
    24    7   22 1  
    25    7   23 1  
    26    7   24 1  
    27   11   25 1  
    28   15   26 1  
    29   15   27 1  
@<TRIPOS>SUBSTRUCTURE
     1 Z21         1

