### 
### Created by X-TOOL on Mon Sep 10 21:13:12 2018
### 

@<TRIPOS>MOLECULE
4c38_ligand
   30    32     1     0     0
SMALL
GAST_HUCK


@<TRIPOS>ATOM
      1 C          25.3730  -10.0670    0.3840 C.ar      1 VUP         0.0090
      2 C1         25.8080   -9.9270    1.6940 C.ar      1 VUP        -0.0141
      3 C2         27.1880   -9.9400    1.9150 C.ar      1 VUP         0.0948
      4 N2         27.9490   -9.8450    3.0870 N.pl3     1 VUP        -0.2300
      5 C6         27.3900   -9.6140    4.4350 C.3       1 VUP         0.0544
      6 C7         27.0230  -10.8920    5.1240 C.3       1 VUP        -0.0383
      7 C5         29.2620   -9.9450    2.6850 C.2       1 VUP         0.1588
      8 N1         29.4150  -10.0820    1.3810 N.2       1 VUP        -0.3035
      9 C3         28.1150  -10.0860    0.8760 C.ar      1 VUP         0.0512
     10 C4         27.5380  -10.1960   -0.3900 C.ar      1 VUP         0.0033
     11 N          26.2260  -10.1940   -0.6570 N.ar      1 VUP        -0.3159
     12 C8         30.3930  -10.0390    3.6180 C.2       1 VUP         0.1731
     13 C9         31.7730  -10.0340    3.2140 C.2       1 VUP         0.1592
     14 N5         32.2430   -9.8250    1.9810 N.pl3     1 VUP        -0.3274
     15 N4         32.5260  -10.2290    4.2660 N.2       1 VUP        -0.0958
     16 O          31.6400  -10.3700    5.3290 O.3       1 VUP        -0.0675
     17 C10        23.9130  -10.0780    0.0470 C.3       1 VUP        -0.0218
     18 N3         30.3190  -10.2440    4.9110 N.2       1 VUP        -0.0784
     19 H1         25.1065   -9.8123    2.5124 H         1 VUP         0.0564
     20 H2         26.4885   -8.9905    4.3422 H         1 VUP         0.0600
     21 H3         28.1395   -9.0867    5.0433 H         1 VUP         0.0600
     22 H4         26.6132  -10.6671    6.1198 H         1 VUP         0.0255
     23 H5         27.9186  -11.5218    5.2298 H         1 VUP         0.0255
     24 H6         26.2676  -11.4257    4.5287 H         1 VUP         0.0255
     25 H7         28.2128  -10.2917   -1.2330 H         1 VUP         0.0750
     26 H8         33.2579   -9.8445    1.8065 H         1 VUP         0.1702
     27 H9         31.5904   -9.6443    1.2049 H         1 VUP         0.1702
     28 H10        23.7884  -10.1985   -1.0393 H         1 VUP         0.0402
     29 H11        23.4560   -9.1295    0.3655 H         1 VUP         0.0402
     30 H12        23.4229  -10.9141    0.5672 H         1 VUP         0.0402
@<TRIPOS>BOND
     1    1    2 ar 
     2    1   11 ar 
     3    1   17 1  
     4    2    3 ar 
     5    3    4 1  
     6    3    9 ar 
     7    4    5 1  
     8    4    7 1  
     9    5    6 1  
    10    7    8 2  
    11    7   12 1  
    12    8    9 1  
    13    9   10 ar 
    14   10   11 ar 
    15   12   13 1  
    16   12   18 2  
    17   13   14 1  
    18   13   15 2  
    19   15   16 1  
    20   16   18 1  
    21    2   19 1  
    22    5   20 1  
    23    5   21 1  
    24    6   22 1  
    25    6   23 1  
    26    6   24 1  
    27   10   25 1  
    28   14   26 1  
    29   14   27 1  
    30   17   28 1  
    31   17   29 1  
    32   17   30 1  
@<TRIPOS>SUBSTRUCTURE
     1 VUP         1

