### 
### Created by X-TOOL on Mon Sep 10 21:13:14 2018
### 

@<TRIPOS>MOLECULE
4c4e_ligand
   42    45     1     0     0
SMALL
GAST_HUCK


@<TRIPOS>ATOM
      1 C3          2.9850   45.9160  124.9080 C.3       1 4T9         0.0543
      2 O1          1.6880   46.1390  125.4780 O.3       1 4T9        -0.3326
      3 C2          1.6040   45.8380  126.8260 C.ar      1 4T9         0.1072
      4 C4          1.5650   44.4880  127.2440 C.ar      1 4T9        -0.0509
      5 C5          1.3950   44.1870  128.5860 C.ar      1 4T9        -0.0591
      6 C6          1.2370   45.2290  129.5500 C.ar      1 4T9         0.0391
      7 C17         1.3030   46.5840  129.1580 C.ar      1 4T9        -0.0192
      8 C1          1.4910   46.8900  127.7940 C.ar      1 4T9         0.1102
      9 O           1.6160   48.2020  127.3740 O.3       1 4T9        -0.3277
     10 C           0.3840   48.9170  127.2070 C.3       1 4T9         0.0567
     11 N           0.9240   44.9950  130.9200 N.pl3     1 4T9        -0.2766
     12 C7          0.0320   44.0400  131.4860 C.ar      1 4T9         0.1101
     13 C16        -0.5510   43.0380  130.6520 C.ar      1 4T9        -0.0002
     14 C10        -1.3430   42.0870  131.2900 C.ar      1 4T9         0.0667
     15 N2         -2.0070   41.0200  130.7640 N.pl3     1 4T9        -0.2761
     16 C11        -2.6740   40.3730  131.8260 C.2       1 4T9         0.0469
     17 C15        -2.4340   41.0410  133.0050 C.2       1 4T9        -0.0643
     18 C9         -1.5840   42.1180  132.6930 C.ar      1 4T9        -0.0157
     19 C8         -0.9800   43.1330  133.4280 C.ar      1 4T9        -0.0148
     20 N1         -0.1910   44.0850  132.8720 N.ar      1 4T9        -0.3013
     21 C12        -3.3870   39.1510  131.6160 C.2       1 4T9         0.0245
     22 C14        -3.4310   38.0630  132.5490 C.2       1 4T9         0.0638
     23 N4         -4.0700   37.0030  131.9910 N.pl3     1 4T9        -0.2162
     24 N3         -4.4370   37.4040  130.7430 N.2       1 4T9        -0.2151
     25 C13        -4.0520   38.7120  130.4720 C.2       1 4T9         0.0089
     26 H1          2.9661   46.1782  123.8399 H         1 4T9         0.0568
     27 H2          3.2578   44.8563  125.0206 H         1 4T9         0.0568
     28 H3          3.7259   46.5424  125.4262 H         1 4T9         0.0568
     29 H4          1.6678   43.6906  126.5169 H         1 4T9         0.0482
     30 H5          1.3818   43.1517  128.9069 H         1 4T9         0.0412
     31 H6          1.2107   47.3755  129.8929 H         1 4T9         0.0424
     32 H7          0.5979   49.9430  126.8730 H         1 4T9         0.0573
     33 H8         -0.1547   48.9483  128.1656 H         1 4T9         0.0573
     34 H9         -0.2361   48.4082  126.4543 H         1 4T9         0.0573
     35 H10         1.4109   45.6012  131.5955 H         1 4T9         0.2062
     36 H11        -0.3860   43.0189  129.5808 H         1 4T9         0.0511
     37 H12        -2.0198   40.7376  129.7736 H         1 4T9         0.2238
     38 H13        -2.8259   40.7856  133.9885 H         1 4T9         0.0235
     39 H14        -1.1486   43.1643  134.4984 H         1 4T9         0.0712
     40 H15        -3.0142   38.0838  133.5549 H         1 4T9         0.1037
     41 H16        -4.2418   36.0840  132.4233 H         1 4T9         0.2600
     42 H17        -4.2321   39.2756  129.5577 H         1 4T9         0.0677
@<TRIPOS>BOND
     1    1    2 1  
     2    2    3 1  
     3    3    4 ar 
     4    3    8 ar 
     5    4    5 ar 
     6    5    6 ar 
     7    6    7 ar 
     8    6   11 1  
     9    7    8 ar 
    10    8    9 1  
    11    9   10 1  
    12   11   12 1  
    13   12   13 ar 
    14   12   20 ar 
    15   13   14 ar 
    16   14   15 1  
    17   14   18 ar 
    18   15   16 1  
    19   16   17 2  
    20   16   21 1  
    21   17   18 1  
    22   18   19 ar 
    23   19   20 ar 
    24   21   22 2  
    25   21   25 1  
    26   22   23 1  
    27   23   24 1  
    28   24   25 2  
    29    1   26 1  
    30    1   27 1  
    31    1   28 1  
    32    4   29 1  
    33    5   30 1  
    34    7   31 1  
    35   10   32 1  
    36   10   33 1  
    37   10   34 1  
    38   11   35 1  
    39   13   36 1  
    40   15   37 1  
    41   17   38 1  
    42   19   39 1  
    43   22   40 1  
    44   23   41 1  
    45   25   42 1  
@<TRIPOS>SUBSTRUCTURE
     1 4T9         1

