### 
### Created by X-TOOL on Mon Sep 10 21:13:14 2018
### 

@<TRIPOS>MOLECULE
4c4f_ligand
   37    40     1     0     0
SMALL
GAST_HUCK


@<TRIPOS>ATOM
      1 C16        -1.6310   -6.8240  -15.5610 C.3       1 7CE         0.0569
      2 O1         -1.1800   -8.1410  -15.9100 O.3       1 7CE        -0.3256
      3 C11        -1.4910   -9.2140  -15.0380 C.ar      1 7CE         0.1137
      4 C12        -1.7370   -9.0100  -13.6510 C.ar      1 7CE        -0.0427
      5 C13        -1.8850  -10.1230  -12.7930 C.ar      1 7CE        -0.0829
      6 C14        -1.7980  -11.4380  -13.3120 C.ar      1 7CE        -0.0833
      7 C15        -1.5810  -11.6590  -14.6840 C.ar      1 7CE        -0.0475
      8 C10        -1.4240  -10.5540  -15.5750 C.ar      1 7CE         0.0898
      9 N3         -1.1510  -10.6960  -16.9650 N.pl3     1 7CE        -0.2708
     10 C2         -0.2870  -11.5830  -17.6590 C.ar      1 7CE         0.1119
     11 N          -0.2650  -11.4870  -19.0660 N.ar      1 7CE        -0.2989
     12 C1          0.4230  -12.4200  -19.7830 C.ar      1 7CE        -0.0117
     13 C3          0.4070  -12.5920  -16.9550 C.ar      1 7CE         0.0015
     14 C4          1.0850  -13.5540  -17.7480 C.ar      1 7CE         0.0692
     15 N1          1.7720  -14.6960  -17.3650 N.pl3     1 7CE        -0.2714
     16 C5          2.2250  -15.3150  -18.5570 C.2       1 7CE         0.0946
     17 C6          1.8240  -14.5800  -19.6610 C.2       1 7CE        -0.0525
     18 C           1.1040  -13.4760  -19.1830 C.ar      1 7CE        -0.0091
     19 C7          2.9930  -16.5410  -18.5650 C.2       1 7CE         0.1635
     20 C9          3.6870  -17.2120  -17.5750 C.2       1 7CE         0.0102
     21 N2          4.1750  -18.4090  -18.1550 N.2       1 7CE        -0.3028
     22 C8          3.7840  -18.4050  -19.4340 C.2       1 7CE         0.1636
     23 O           3.0590  -17.2880  -19.7470 O.3       1 7CE        -0.2270
     24 H1         -1.3109   -6.1100  -16.3341 H         1 7CE         0.0573
     25 H2         -1.1991   -6.5333  -14.5920 H         1 7CE         0.0573
     26 H3         -2.7286   -6.8192  -15.4894 H         1 7CE         0.0573
     27 H4         -1.8106   -8.0040  -13.2541 H         1 7CE         0.0505
     28 H5         -2.0655   -9.9700  -11.7351 H         1 7CE         0.0487
     29 H6         -1.9000  -12.2850  -12.6432 H         1 7CE         0.0492
     30 H7         -1.5327  -12.6721  -15.0666 H         1 7CE         0.0497
     31 H8         -1.6690  -10.0435  -17.5707 H         1 7CE         0.2068
     32 H9          0.4407  -12.3366  -20.8636 H         1 7CE         0.0729
     33 H10         0.4209  -12.6293  -15.8717 H         1 7CE         0.0513
     34 H11         1.9235  -15.0294  -16.4023 H         1 7CE         0.2236
     35 H12         2.0295  -14.8156  -20.7042 H         1 7CE         0.0307
     36 H13         3.8309  -16.8834  -16.5468 H         1 7CE         0.0551
     37 H14         4.0157  -19.1982  -20.1433 H         1 7CE         0.1408
@<TRIPOS>BOND
     1    1    2 1  
     2    2    3 1  
     3    3    4 ar 
     4    3    8 ar 
     5    4    5 ar 
     6    5    6 ar 
     7    6    7 ar 
     8    7    8 ar 
     9    8    9 1  
    10    9   10 1  
    11   10   11 ar 
    12   10   13 ar 
    13   11   12 ar 
    14   12   18 ar 
    15   13   14 ar 
    16   14   15 1  
    17   14   18 ar 
    18   15   16 1  
    19   16   17 2  
    20   16   19 1  
    21   17   18 1  
    22   19   20 2  
    23   19   23 1  
    24   20   21 1  
    25   21   22 2  
    26   22   23 1  
    27    1   24 1  
    28    1   25 1  
    29    1   26 1  
    30    4   27 1  
    31    5   28 1  
    32    6   29 1  
    33    7   30 1  
    34    9   31 1  
    35   12   32 1  
    36   13   33 1  
    37   15   34 1  
    38   17   35 1  
    39   20   36 1  
    40   22   37 1  
@<TRIPOS>SUBSTRUCTURE
     1 7CE         1

