### 
### Created by X-TOOL on Mon Sep 10 21:13:14 2018
### 

@<TRIPOS>MOLECULE
4c4g_ligand
   62    65     1     0     0
SMALL
GAST_HUCK


@<TRIPOS>ATOM
      1 O2         -2.6130   39.5170  128.6990 O.2       1 7RO        -0.3462
      2 C20        -1.9070   40.5010  128.8860 C.2       1 7RO         0.3959
      3 O1         -1.1730   41.1230  127.8820 O.3       1 7RO        -0.2445
      4 C21        -1.2720   40.7020  126.4670 C.3       1 7RO         0.0921
      5 C24        -2.6300   41.1400  125.9540 C.3       1 7RO        -0.0319
      6 C23        -0.1670   41.5110  125.8320 C.3       1 7RO        -0.0319
      7 C22        -1.0460   39.2200  126.2400 C.3       1 7RO        -0.0319
      8 N5         -1.7680   41.0750  130.1760 N.am      1 7RO        -0.1467
      9 C4         -2.3070   40.5780  131.4310 C.2       1 7RO         0.0818
     10 C3         -3.0630   39.3360  131.6360 C.2       1 7RO         0.0284
     11 C1         -4.0750   38.6990  130.8290 C.2       1 7RO         0.0087
     12 N1         -4.5350   37.5700  131.4390 N.2       1 7RO        -0.2134
     13 C2         -2.9470   38.5110  132.7740 C.2       1 7RO         0.0656
     14 N          -3.8650   37.4820  132.6410 N.pl3     1 7RO        -0.2060
     15 C          -4.2280   36.5170  133.6860 C.3       1 7RO         0.0613
     16 C19        -1.0450   42.2660  130.4560 C.ar      1 7RO         0.1016
     17 C6         -1.1420   42.4890  131.8720 C.ar      1 7RO        -0.0143
     18 C5         -1.9300   41.4520  132.4190 C.2       1 7RO        -0.0635
     19 C18        -0.2840   43.1240  129.6260 C.ar      1 7RO         0.0042
     20 C8          0.4030   44.1870  130.2900 C.ar      1 7RO         0.1119
     21 N2          0.3120   44.4090  131.6850 N.ar      1 7RO        -0.3028
     22 C7         -0.4560   43.5580  132.4240 C.ar      1 7RO        -0.0168
     23 N3          1.2730   45.0210  129.5600 N.pl3     1 7RO        -0.2660
     24 C9          1.3860   45.2070  128.1790 C.ar      1 7RO         0.0779
     25 C17         1.6170   44.1340  127.3170 C.ar      1 7RO        -0.0331
     26 C16         1.8380   44.3500  125.9770 C.ar      1 7RO        -0.0520
     27 C12         1.8340   45.6310  125.4490 C.ar      1 7RO         0.0378
     28 C11         1.5600   46.7580  126.2520 C.ar      1 7RO        -0.0382
     29 C10         1.3470   46.5440  127.6240 C.ar      1 7RO         0.0671
     30 CL          1.0490   47.9760  128.6490 Cl        1 7RO        -0.0787
     31 C13         2.2960   45.7950  124.0380 C.2       1 7RO         0.1978
     32 O           3.1850   46.6180  123.7820 O.2       1 7RO        -0.3903
     33 N4          1.7620   44.9690  123.0090 N.am      1 7RO        -0.2803
     34 C15         2.5110   44.8000  121.7530 C.3       1 7RO         0.0215
     35 C14         0.3180   44.7120  122.8840 C.3       1 7RO         0.0215
     36 H1         -2.7377   40.8418  124.9007 H         1 7RO         0.0260
     37 H2         -2.7179   42.2334  126.0363 H         1 7RO         0.0260
     38 H3         -3.4196   40.6625  126.5528 H         1 7RO         0.0260
     39 H4         -0.1251   41.2923  124.7548 H         1 7RO         0.0260
     40 H5          0.7943   41.2475  126.2973 H         1 7RO         0.0260
     41 H6         -0.3650   42.5827  125.9811 H         1 7RO         0.0260
     42 H7         -1.1372   38.9953  125.1671 H         1 7RO         0.0260
     43 H8         -1.7975   38.6444  126.8003 H         1 7RO         0.0260
     44 H9         -0.0393   38.9451  126.5878 H         1 7RO         0.0260
     45 H10        -4.4233   39.0689  129.8658 H         1 7RO         0.0675
     46 H11        -2.2602   38.6565  133.6065 H         1 7RO         0.1031
     47 H12        -3.5534   36.6373  134.5465 H         1 7RO         0.0607
     48 H13        -4.1373   35.4952  133.2890 H         1 7RO         0.0607
     49 H14        -5.2653   36.6955  134.0056 H         1 7RO         0.0607
     50 H15        -2.1987   41.3599  133.4703 H         1 7RO         0.0201
     51 H16        -0.2259   42.9834  128.5527 H         1 7RO         0.0511
     52 H17        -0.5330   43.7260  133.4921 H         1 7RO         0.0707
     53 H18         1.9248   45.5783  130.1305 H         1 7RO         0.2109
     54 H19         1.6223   43.1225  127.7068 H         1 7RO         0.0543
     55 H20         2.0183   43.5043  125.3232 H         1 7RO         0.0639
     56 H21         1.5154   47.7536  125.8256 H         1 7RO         0.0644
     57 H22         1.9519   44.1338  121.0795 H         1 7RO         0.0485
     58 H23         3.4956   44.3600  121.9696 H         1 7RO         0.0485
     59 H24         2.6451   45.7798  121.2713 H         1 7RO         0.0485
     60 H25        -0.1664   44.8589  123.8606 H         1 7RO         0.0485
     61 H26         0.1575   43.6772  122.5471 H         1 7RO         0.0485
     62 H27        -0.1162   45.4078  122.1510 H         1 7RO         0.0485
@<TRIPOS>BOND
     1    1    2 2  
     2    2    3 1  
     3    2    8 am 
     4    3    4 1  
     5    4    5 1  
     6    4    6 1  
     7    4    7 1  
     8    8    9 1  
     9    8   16 1  
    10    9   10 1  
    11    9   18 2  
    12   10   11 1  
    13   10   13 2  
    14   11   12 2  
    15   12   14 1  
    16   13   14 1  
    17   14   15 1  
    18   16   17 ar 
    19   16   19 ar 
    20   17   18 1  
    21   17   22 ar 
    22   19   20 ar 
    23   20   21 ar 
    24   20   23 1  
    25   21   22 ar 
    26   23   24 1  
    27   24   25 ar 
    28   24   29 ar 
    29   25   26 ar 
    30   26   27 ar 
    31   27   28 ar 
    32   27   31 1  
    33   28   29 ar 
    34   29   30 1  
    35   31   32 2  
    36   31   33 am 
    37   33   34 1  
    38   33   35 1  
    39    5   36 1  
    40    5   37 1  
    41    5   38 1  
    42    6   39 1  
    43    6   40 1  
    44    6   41 1  
    45    7   42 1  
    46    7   43 1  
    47    7   44 1  
    48   11   45 1  
    49   13   46 1  
    50   15   47 1  
    51   15   48 1  
    52   15   49 1  
    53   18   50 1  
    54   19   51 1  
    55   22   52 1  
    56   23   53 1  
    57   25   54 1  
    58   26   55 1  
    59   28   56 1  
    60   34   57 1  
    61   34   58 1  
    62   34   59 1  
    63   35   60 1  
    64   35   61 1  
    65   35   62 1  
@<TRIPOS>SUBSTRUCTURE
     1 7RO         1

