### 
### Created by X-TOOL on Mon Sep 10 21:13:14 2018
### 

@<TRIPOS>MOLECULE
4c4h_ligand
   62    65     1     0     0
SMALL
GAST_HUCK


@<TRIPOS>ATOM
      1 O2          3.1860  -36.8960  -14.7900 O.2       1 7RO        -0.3462
      2 C20         2.3840  -36.6200  -13.9250 C.2       1 7RO         0.3959
      3 O1          1.5830  -37.5830  -13.2530 O.3       1 7RO        -0.2445
      4 C21         1.6130  -39.0650  -13.4890 C.3       1 7RO         0.0921
      5 C24         1.4550  -39.4110  -14.9560 C.3       1 7RO        -0.0319
      6 C23         2.9280  -39.5730  -12.9360 C.3       1 7RO        -0.0319
      7 C22         0.4540  -39.6220  -12.6970 C.3       1 7RO        -0.0319
      8 N5          2.1830  -35.2590  -13.5200 N.am      1 7RO        -0.1467
      9 C4          2.6440  -34.0500  -14.1720 C.2       1 7RO         0.0818
     10 C3          3.3760  -33.9640  -15.4080 C.2       1 7RO         0.0284
     11 C1          4.5920  -34.6140  -15.8470 C.2       1 7RO         0.0087
     12 N1          4.9410  -34.1860  -17.0980 N.2       1 7RO        -0.2134
     13 C2          3.0150  -33.1200  -16.4590 C.2       1 7RO         0.0656
     14 N           3.9760  -33.2720  -17.4410 N.pl3     1 7RO        -0.2060
     15 C           4.0210  -32.5020  -18.6700 C.3       1 7RO         0.0613
     16 C19         1.4220  -34.8540  -12.3770 C.ar      1 7RO         0.1016
     17 C6          1.4150  -33.4160  -12.3700 C.ar      1 7RO        -0.0143
     18 C5          2.1920  -32.9620  -13.4690 C.2       1 7RO        -0.0635
     19 C18         0.7140  -35.5820  -11.3920 C.ar      1 7RO         0.0042
     20 C8         -0.0310  -34.7960  -10.4460 C.ar      1 7RO         0.1119
     21 N2         -0.0450  -33.4040  -10.4460 N.ar      1 7RO        -0.3028
     22 C7          0.6630  -32.7560  -11.3880 C.ar      1 7RO        -0.0168
     23 N3         -0.8620  -35.4100   -9.4970 N.pl3     1 7RO        -0.2660
     24 C9         -1.1470  -36.7680   -9.2740 C.ar      1 7RO         0.0779
     25 C17        -1.5230  -37.6520  -10.3150 C.ar      1 7RO        -0.0331
     26 C16        -1.7940  -38.9780  -10.0440 C.ar      1 7RO        -0.0520
     27 C12        -1.7030  -39.4680   -8.7420 C.ar      1 7RO         0.0378
     28 C11        -1.3360  -38.6460   -7.6640 C.ar      1 7RO        -0.0382
     29 C10        -1.0580  -37.2940   -7.9410 C.ar      1 7RO         0.0671
     30 CL         -0.5460  -36.2800   -6.6130 Cl        1 7RO        -0.0787
     31 C13        -2.0440  -40.8780   -8.5230 C.2       1 7RO         0.1978
     32 O          -3.0000  -41.1590   -7.8230 O.2       1 7RO        -0.3903
     33 N4         -1.2610  -41.8740   -9.1820 N.am      1 7RO        -0.2803
     34 C15         0.2080  -41.8190   -9.2690 C.3       1 7RO         0.0215
     35 C14        -1.8290  -43.2040   -9.4580 C.3       1 7RO         0.0215
     36 H1          1.4830  -40.5036  -15.0801 H         1 7RO         0.0260
     37 H2          2.2751  -38.9557  -15.5305 H         1 7RO         0.0260
     38 H3          0.4923  -39.0250  -15.3222 H         1 7RO         0.0260
     39 H4          2.9939  -40.6605  -13.0878 H         1 7RO         0.0260
     40 H5          2.9846  -39.3489  -11.8606 H         1 7RO         0.0260
     41 H6          3.7607  -39.0788  -13.4579 H         1 7RO         0.0260
     42 H7          0.4141  -40.7139  -12.8242 H         1 7RO         0.0260
     43 H8         -0.4847  -39.1763  -13.0579 H         1 7RO         0.0260
     44 H9          0.5884  -39.3816  -11.6320 H         1 7RO         0.0260
     45 H10         5.1515  -35.3428  -15.2624 H         1 7RO         0.0675
     46 H11         2.1441  -32.4674  -16.4981 H         1 7RO         0.1031
     47 H12         3.1432  -31.8410  -18.7209 H         1 7RO         0.0607
     48 H13         4.0155  -33.1858  -19.5316 H         1 7RO         0.0607
     49 H14         4.9384  -31.8953  -18.6892 H         1 7RO         0.0607
     50 H15         2.3956  -31.9205  -13.7136 H         1 7RO         0.0201
     51 H16         0.7320  -36.6651  -11.3528 H         1 7RO         0.0511
     52 H17         0.6517  -31.6721  -11.3880 H         1 7RO         0.0707
     53 H18        -1.3418  -34.7589   -8.8592 H         1 7RO         0.2109
     54 H19        -1.5985  -37.2844  -11.3320 H         1 7RO         0.0543
     55 H20        -2.0799  -39.6439  -10.8502 H         1 7RO         0.0639
     56 H21        -1.2692  -39.0382   -6.6556 H         1 7RO         0.0644
     57 H22         0.5756  -42.6955   -9.8227 H         1 7RO         0.0485
     58 H23         0.6356  -41.8198   -8.2555 H         1 7RO         0.0485
     59 H24         0.5101  -40.9007   -9.7938 H         1 7RO         0.0485
     60 H25        -2.9248  -43.1595   -9.3729 H         1 7RO         0.0485
     61 H26        -1.4340  -43.9294   -8.7315 H         1 7RO         0.0485
     62 H27        -1.5527  -43.5167  -10.4758 H         1 7RO         0.0485
@<TRIPOS>BOND
     1    1    2 2  
     2    2    3 1  
     3    2    8 am 
     4    3    4 1  
     5    4    5 1  
     6    4    6 1  
     7    4    7 1  
     8    8    9 1  
     9    8   16 1  
    10    9   10 1  
    11    9   18 2  
    12   10   11 1  
    13   10   13 2  
    14   11   12 2  
    15   12   14 1  
    16   13   14 1  
    17   14   15 1  
    18   16   17 ar 
    19   16   19 ar 
    20   17   18 1  
    21   17   22 ar 
    22   19   20 ar 
    23   20   21 ar 
    24   20   23 1  
    25   21   22 ar 
    26   23   24 1  
    27   24   25 ar 
    28   24   29 ar 
    29   25   26 ar 
    30   26   27 ar 
    31   27   28 ar 
    32   27   31 1  
    33   28   29 ar 
    34   29   30 1  
    35   31   32 2  
    36   31   33 am 
    37   33   34 1  
    38   33   35 1  
    39    5   36 1  
    40    5   37 1  
    41    5   38 1  
    42    6   39 1  
    43    6   40 1  
    44    6   41 1  
    45    7   42 1  
    46    7   43 1  
    47    7   44 1  
    48   11   45 1  
    49   13   46 1  
    50   15   47 1  
    51   15   48 1  
    52   15   49 1  
    53   18   50 1  
    54   19   51 1  
    55   22   52 1  
    56   23   53 1  
    57   25   54 1  
    58   26   55 1  
    59   28   56 1  
    60   34   57 1  
    61   34   58 1  
    62   34   59 1  
    63   35   60 1  
    64   35   61 1  
    65   35   62 1  
@<TRIPOS>SUBSTRUCTURE
     1 7RO         1

