### 
### Created by X-TOOL on Mon Sep 10 21:13:14 2018
### 

@<TRIPOS>MOLECULE
4c4i_ligand
   58    61     1     0     0
SMALL
GAST_HUCK


@<TRIPOS>ATOM
      1 C          -2.0840  -15.7160  -13.9840 C.2       1 X20         0.3961
      2 N          -1.8840  -17.0640  -13.5930 N.am      1 X20        -0.1406
      3 O          -2.7540  -15.3780  -14.9220 O.2       1 X20        -0.3462
      4 CL          0.7590  -16.1280   -6.7800 Cl        1 X20        -0.0787
      5 C1         -1.1500  -17.5050  -12.4840 C.ar      1 X20         0.1043
      6 N1          0.9160  -16.9620   -9.5440 N.pl3     1 X20        -0.2651
      7 O1          2.9900  -11.2190   -7.7960 O.2       1 X20        -0.3903
      8 C2         -0.4520  -16.8050  -11.5100 C.ar      1 X20         0.0058
      9 N2          1.3910  -10.5560   -9.2550 N.am      1 X20        -0.2803
     10 O2         -2.9010  -19.1680  -16.3980 O.3       1 X20        -0.2271
     11 C3          0.1900  -17.6010  -10.5440 C.ar      1 X20         0.1135
     12 N3          0.1560  -18.9770  -10.5180 N.ar      1 X20        -0.3004
     13 O3         -1.4350  -14.8260  -13.1900 O.3       1 X20        -0.2446
     14 C4          1.1810  -15.6020   -9.3900 C.ar      1 X20         0.0782
     15 N4         -4.5890  -17.9150  -17.1780 N.2       1 X20        -0.3039
     16 C5          1.4950  -14.7210  -10.4270 C.ar      1 X20        -0.0330
     17 C6          1.7790  -13.3980  -10.1450 C.ar      1 X20        -0.0520
     18 C7          1.7560  -12.9350   -8.8370 C.ar      1 X20         0.0378
     19 C8          2.1050  -11.5250   -8.5770 C.2       1 X20         0.1978
     20 C9          1.5640   -9.1330   -8.9220 C.3       1 X20         0.0215
     21 C10         0.0940  -10.8800   -9.8710 C.3       1 X20         0.0215
     22 C11         1.4350  -13.7810   -7.7940 C.ar      1 X20        -0.0381
     23 C12         1.1550  -15.0920   -8.0920 C.ar      1 X20         0.0672
     24 C13        -0.5290  -19.5990  -11.4720 C.ar      1 X20        -0.0138
     25 C14        -1.1980  -18.9170  -12.4770 C.ar      1 X20        -0.0080
     26 C15        -1.9730  -19.3410  -13.5930 C.2       1 X20        -0.0518
     27 C16        -2.3830  -18.2260  -14.2650 C.2       1 X20         0.1286
     28 C17        -3.1680  -18.2130  -15.4580 C.2       1 X20         0.1678
     29 C18        -4.2040  -17.4310  -15.9170 C.2       1 X20         0.0095
     30 C19        -3.7850  -18.9440  -17.4140 C.2       1 X20         0.1631
     31 C20        -1.4250  -13.4240  -13.6100 C.3       1 X20         0.0921
     32 C21        -0.8420  -13.3540  -15.0020 C.3       1 X20        -0.0319
     33 C22        -0.5780  -12.6590  -12.6200 C.3       1 X20        -0.0319
     34 C23        -2.8590  -12.9480  -13.5900 C.3       1 X20        -0.0319
     35 H1          1.3115  -17.5773   -8.8188 H         1 X20         0.2113
     36 H2         -0.4049  -15.7221  -11.4947 H         1 X20         0.0513
     37 H3          1.5160  -15.0742  -11.4516 H         1 X20         0.0544
     38 H4          2.0217  -12.7165  -10.9523 H         1 X20         0.0640
     39 H5          0.9139   -8.5238   -9.5672 H         1 X20         0.0485
     40 H6          2.6133   -8.8440   -9.0814 H         1 X20         0.0485
     41 H7          1.2941   -8.9675   -7.8686 H         1 X20         0.0485
     42 H8          0.0493  -11.9578  -10.0861 H         1 X20         0.0485
     43 H9         -0.0187  -10.3142  -10.8076 H         1 X20         0.0485
     44 H10        -0.7179  -10.6102   -9.1796 H         1 X20         0.0485
     45 H11         1.4050  -13.4215   -6.7718 H         1 X20         0.0644
     46 H12        -0.5662  -20.6823  -11.4642 H         1 X20         0.0723
     47 H13        -2.1987  -20.3717  -13.8627 H         1 X20         0.0269
     48 H14        -4.6474  -16.5851  -15.3938 H         1 X20         0.0542
     49 H15        -3.8260  -19.5454  -18.3210 H         1 X20         0.1404
     50 H16        -0.8242  -12.3073  -15.3398 H         1 X20         0.0260
     51 H17        -1.4603  -13.9505  -15.6889 H         1 X20         0.0260
     52 H18         0.1830  -13.7531  -14.9908 H         1 X20         0.0260
     53 H19        -0.5484  -11.5973  -12.9062 H         1 X20         0.0260
     54 H20         0.4435  -13.0670  -12.6190 H         1 X20         0.0260
     55 H21        -1.0124  -12.7556  -11.6141 H         1 X20         0.0260
     56 H22        -2.8996  -11.8935  -13.9005 H         1 X20         0.0260
     57 H23        -3.2638  -13.0463  -12.5720 H         1 X20         0.0260
     58 H24        -3.4574  -13.5575  -14.2831 H         1 X20         0.0260
@<TRIPOS>BOND
     1    2    1 am 
     2    1    3 2  
     3    1   13 1  
     4    2    5 1  
     5   27    2 1  
     6   23    4 1  
     7    5    8 ar 
     8   25    5 ar 
     9   11    6 1  
    10    6   14 1  
    11   19    7 2  
    12    8   11 ar 
    13   19    9 am 
    14    9   20 1  
    15    9   21 1  
    16   28   10 1  
    17   10   30 1  
    18   12   11 ar 
    19   24   12 ar 
    20   13   31 1  
    21   14   16 ar 
    22   14   23 ar 
    23   15   29 1  
    24   30   15 2  
    25   16   17 ar 
    26   17   18 ar 
    27   18   19 1  
    28   22   18 ar 
    29   23   22 ar 
    30   25   24 ar 
    31   26   25 1  
    32   27   26 2  
    33   27   28 1  
    34   28   29 2  
    35   31   32 1  
    36   31   33 1  
    37   31   34 1  
    38    6   35 1  
    39    8   36 1  
    40   16   37 1  
    41   17   38 1  
    42   20   39 1  
    43   20   40 1  
    44   20   41 1  
    45   21   42 1  
    46   21   43 1  
    47   21   44 1  
    48   22   45 1  
    49   24   46 1  
    50   26   47 1  
    51   29   48 1  
    52   30   49 1  
    53   32   50 1  
    54   32   51 1  
    55   32   52 1  
    56   33   53 1  
    57   33   54 1  
    58   33   55 1  
    59   34   56 1  
    60   34   57 1  
    61   34   58 1  
@<TRIPOS>SUBSTRUCTURE
     1 X20         1

