### 
### Created by X-TOOL on Mon Sep 10 21:13:14 2018
### 

@<TRIPOS>MOLECULE
4c4j_ligand
   62    66     1     0     0
SMALL
GAST_HUCK


@<TRIPOS>ATOM
      1 C           4.6010   21.4280   38.3640 C.3       1 X21         0.0613
      2 N           4.4090   20.7820   39.6790 N.pl3     1 X21        -0.2061
      3 O           1.6930   17.0480   44.1580 O.3       1 X21        -0.2446
      4 CL         -0.3600   19.0560   50.7650 Cl        1 X21        -0.0800
      5 C1          4.7690   19.5260   41.4310 C.2       1 X21         0.0086
      6 N1          5.2480   19.8070   40.1820 N.2       1 X21        -0.2134
      7 O1          3.0960   17.5520   42.4610 O.2       1 X21        -0.3462
      8 C2          3.4030   21.1080   40.5660 C.2       1 X21         0.0656
      9 N2          0.1130   21.5330   46.5000 N.ar      1 X21        -0.3031
     10 C3          3.6030   20.3300   41.7110 C.2       1 X21         0.0284
     11 N3         -0.6820   19.6460   47.7980 N.pl3     1 X21        -0.2689
     12 C4          2.7800   20.4160   42.9020 C.2       1 X21         0.0817
     13 N4         -2.0050   11.9930   48.9600 N.2       1 X21        -0.3263
     14 C5          2.3630   21.5850   43.4720 C.2       1 X21        -0.0635
     15 N5         -2.8260   13.7340   50.1380 N.pl3     1 X21        -0.2498
     16 C6          1.5870   21.2770   44.6290 C.ar      1 X21        -0.0144
     17 N6          2.2790   19.2980   43.6690 N.am      1 X21        -0.1468
     18 C7          0.8540   22.0540   45.5230 C.ar      1 X21        -0.0169
     19 C8          0.0880   20.1390   46.6860 C.ar      1 X21         0.1109
     20 C9         -0.9680   18.3000   48.1740 C.ar      1 X21         0.0726
     21 C10        -0.9110   17.9090   49.5780 C.ar      1 X21         0.0610
     22 C11        -1.2050   16.5960   50.0150 C.ar      1 X21        -0.0499
     23 C12        -1.5510   15.6540   48.9960 C.ar      1 X21        -0.0091
     24 C13        -1.8370   14.2610   49.2300 C.2       1 X21         0.0728
     25 C14        -1.3440   13.1480   48.5300 C.2       1 X21        -0.0146
     26 C15        -2.8960   12.4210   49.9400 C.2       1 X21         0.0978
     27 C16        -3.6040   14.5140   51.1020 C.3       1 X21         0.0465
     28 C17        -1.5910   16.0370   47.6440 C.ar      1 X21        -0.0637
     29 C18        -1.3080   17.3060   47.2310 C.ar      1 X21        -0.0393
     30 C19         0.8040   19.2350   45.8410 C.ar      1 X21         0.0039
     31 C20         1.5430   19.8320   44.7790 C.ar      1 X21         0.1015
     32 C21         2.4020   17.9220   43.3700 C.2       1 X21         0.3958
     33 C22         1.7820   15.5740   44.0050 C.3       1 X21         0.0921
     34 C23         1.3760   15.1130   42.6200 C.3       1 X21        -0.0319
     35 C24         0.7950   15.0870   45.0420 C.3       1 X21        -0.0319
     36 C25         3.1890   15.1270   44.3380 C.3       1 X21        -0.0319
     37 H1          3.8024   22.1660   38.1980 H         1 X21         0.0607
     38 H2          4.5658   20.6653   37.5721 H         1 X21         0.0607
     39 H3          5.5776   21.9337   38.3430 H         1 X21         0.0607
     40 H4          5.2043   18.8001   42.1163 H         1 X21         0.0675
     41 H5          2.6060   21.8324   40.4051 H         1 X21         0.1030
     42 H6         -1.0845   20.3696   48.4106 H         1 X21         0.2096
     43 H7          2.5857   22.5857   43.1045 H         1 X21         0.0201
     44 H8          0.8880   23.1325   45.4190 H         1 X21         0.0707
     45 H9         -1.1700   16.3196   51.0626 H         1 X21         0.0583
     46 H10        -0.5659   13.1794   47.7687 H         1 X21         0.0468
     47 H11        -3.5707   11.7588   50.4806 H         1 X21         0.1226
     48 H12        -3.3215   15.5746   51.0286 H         1 X21         0.0582
     49 H13        -3.3988   14.1495   52.1194 H         1 X21         0.0582
     50 H14        -4.6762   14.4041   50.8824 H         1 X21         0.0582
     51 H15        -1.8572   15.2947   46.9003 H         1 X21         0.0580
     52 H16        -1.3443   17.5518   46.1758 H         1 X21         0.0531
     53 H17         0.7858   18.1626   45.9983 H         1 X21         0.0510
     54 H18         1.4592   14.0178   42.5590 H         1 X21         0.0260
     55 H19         2.0379   15.5732   41.8716 H         1 X21         0.0260
     56 H20         0.3361   15.4131   42.4238 H         1 X21         0.0260
     57 H21         0.7646   13.9875   45.0314 H         1 X21         0.0260
     58 H22        -0.2048   15.4836   44.8114 H         1 X21         0.0260
     59 H23         1.1071   15.4356   46.0375 H         1 X21         0.0260
     60 H24         3.2628   14.0351   44.2268 H         1 X21         0.0260
     61 H25         3.4269   15.4069   45.3748 H         1 X21         0.0260
     62 H26         3.8999   15.6140   43.6544 H         1 X21         0.0260
@<TRIPOS>BOND
     1    2    1 1  
     2    2    6 1  
     3    8    2 1  
     4   32    3 1  
     5    3   33 1  
     6   21    4 1  
     7    5    6 2  
     8   10    5 1  
     9   32    7 2  
    10   10    8 2  
    11    9   18 ar 
    12   19    9 ar 
    13   12   10 1  
    14   11   19 1  
    15   20   11 1  
    16   14   12 2  
    17   17   12 1  
    18   13   25 1  
    19   26   13 2  
    20   16   14 1  
    21   24   15 1  
    22   15   26 1  
    23   15   27 1  
    24   18   16 ar 
    25   16   31 ar 
    26   31   17 1  
    27   17   32 am 
    28   19   30 ar 
    29   21   20 ar 
    30   20   29 ar 
    31   22   21 ar 
    32   23   22 ar 
    33   23   24 1  
    34   23   28 ar 
    35   24   25 2  
    36   28   29 ar 
    37   30   31 ar 
    38   33   34 1  
    39   33   35 1  
    40   33   36 1  
    41    1   37 1  
    42    1   38 1  
    43    1   39 1  
    44    5   40 1  
    45    8   41 1  
    46   11   42 1  
    47   14   43 1  
    48   18   44 1  
    49   22   45 1  
    50   25   46 1  
    51   26   47 1  
    52   27   48 1  
    53   27   49 1  
    54   27   50 1  
    55   28   51 1  
    56   29   52 1  
    57   30   53 1  
    58   34   54 1  
    59   34   55 1  
    60   34   56 1  
    61   35   57 1  
    62   35   58 1  
    63   35   59 1  
    64   36   60 1  
    65   36   61 1  
    66   36   62 1  
@<TRIPOS>SUBSTRUCTURE
     1 X21         1

