### 
### Created by X-TOOL on Mon Sep 10 21:13:17 2018
### 

@<TRIPOS>MOLECULE
4c52_ligand
   62    63     1     0     0
SMALL
GAST_HUCK


@<TRIPOS>ATOM
      1 O2        -19.0580  -30.2020  -15.6130 O.co2     1 X0D        -0.5666
      2 C21       -18.5790  -29.3120  -14.8790 C.2       1 X0D         0.0607
      3 O1        -18.8250  -29.2390  -13.6530 O.co2     1 X0D        -0.5666
      4 C20       -17.6840  -28.2760  -15.4960 C.3       1 X0D         0.1041
      5 C22       -16.4680  -28.9260  -16.1680 C.3       1 X0D         0.0284
      6 S23       -15.2290  -29.4160  -15.0110 S.3       1 X0D        -0.1565
      7 C24       -15.5900  -31.1250  -14.7640 C.3       1 X0D        -0.0038
      8 C25       -14.2940  -31.9400  -14.8610 C.3       1 X0D        -0.0377
      9 C27       -13.1230  -31.1830  -15.4890 C.3       1 X0D        -0.0619
     10 C26       -14.5070  -33.2460  -15.6090 C.3       1 X0D        -0.0619
     11 N19       -17.2000  -27.3470  -14.4770 N.am      1 X0D        -0.2520
     12 C19       -17.8110  -26.1880  -14.2300 C.2       1 X0D         0.2915
     13 O19       -18.7960  -25.9280  -14.8950 O.2       1 X0D        -0.3913
     14 N15       -17.3780  -25.2830  -13.3260 N.am      1 X0D        -0.1705
     15 C16       -18.1730  -24.0720  -13.1290 C.3       1 X0D         0.0584
     16 C17       -17.7870  -23.0370  -14.1780 C.3       1 X0D        -0.0312
     17 C18       -18.6210  -21.7840  -13.9800 C.3       1 X0D        -0.0631
     18 C15       -16.1640  -25.4350  -12.7600 C.2       1 X0D         0.2358
     19 O15       -15.4910  -26.4460  -12.8920 O.2       1 X0D        -0.3742
     20 C11       -15.4910  -24.3570  -11.9430 C.ar      1 X0D         0.0561
     21 C10       -14.5780  -23.4830  -12.5550 C.ar      1 X0D        -0.0267
     22 C12       -15.7150  -24.2510  -10.5800 C.ar      1 X0D        -0.0419
     23 C13       -15.0480  -23.2610   -9.8550 C.ar      1 X0D        -0.0556
     24 C14       -14.1520  -22.3820  -10.4670 C.ar      1 X0D        -0.0429
     25 C9        -13.8980  -22.4880  -11.8300 C.ar      1 X0D         0.0287
     26 C8        -13.0740  -21.6800  -12.4440 C.1       1 X0D        -0.0642
     27 C7        -12.3310  -20.9440  -13.0330 C.1       1 X0D        -0.0647
     28 C1        -11.5270  -20.1460  -13.6870 C.ar      1 X0D         0.0558
     29 C6        -11.5980  -18.7550  -13.6260 C.ar      1 X0D        -0.0491
     30 C5        -10.6970  -17.9890  -14.3780 C.ar      1 X0D        -0.0304
     31 C4         -9.7280  -18.5710  -15.1910 C.ar      1 X0D         0.1317
     32 F4         -8.8620  -17.8280  -15.9290 F         1 X0D        -0.1836
     33 C3         -9.6620  -19.9530  -15.2410 C.ar      1 X0D         0.0074
     34 C2        -10.5590  -20.7190  -14.4950 C.ar      1 X0D         0.1477
     35 F2        -10.4920  -22.0590  -14.5420 F         1 X0D        -0.1817
     36 H         -18.2582  -27.7191  -16.2511 H         1 X0D         0.0732
     37 H         -16.0268  -28.2039  -16.8707 H         1 X0D         0.0417
     38 H         -16.8051  -29.8158  -16.7200 H         1 X0D         0.0417
     39 H         -16.2962  -31.4659  -15.5354 H         1 X0D         0.0379
     40 H         -16.0378  -31.2652  -13.7691 H         1 X0D         0.0379
     41 H         -14.0017  -32.1907  -13.8306 H         1 X0D         0.0303
     42 H         -12.2385  -31.8363  -15.5201 H         1 X0D         0.0233
     43 H         -12.8984  -30.2902  -14.8870 H         1 X0D         0.0233
     44 H         -13.3897  -30.8781  -16.5117 H         1 X0D         0.0233
     45 H         -15.3489  -33.7929  -15.1594 H         1 X0D         0.0233
     46 H         -13.5956  -33.8585  -15.5443 H         1 X0D         0.0233
     47 H         -14.7307  -33.0318  -16.6645 H         1 X0D         0.0233
     48 H         -16.3857  -27.5879  -13.9489 H         1 X0D         0.1876
     49 H         -17.9807  -23.6661  -12.1249 H         1 X0D         0.0573
     50 H         -19.2414  -24.3142  -13.2282 H         1 X0D         0.0573
     51 H         -17.9715  -23.4458  -15.1824 H         1 X0D         0.0286
     52 H         -16.7206  -22.7884  -14.0735 H         1 X0D         0.0286
     53 H         -18.3435  -21.0355  -14.7368 H         1 X0D         0.0231
     54 H         -18.4364  -21.3756  -12.9755 H         1 X0D         0.0231
     55 H         -19.6873  -22.0330  -14.0844 H         1 X0D         0.0231
     56 H         -14.3917  -23.5781  -13.6186 H         1 X0D         0.0679
     57 H         -16.3996  -24.9282  -10.0823 H         1 X0D         0.0665
     58 H         -15.2305  -23.1727   -8.7901 H         1 X0D         0.0628
     59 H         -13.6551  -21.6179   -9.8802 H         1 X0D         0.0660
     60 H         -12.3421  -18.2712  -13.0036 H         1 X0D         0.0611
     61 H         -10.7564  -16.9079  -14.3250 H         1 X0D         0.0573
     62 H          -8.9152  -20.4391  -15.8583 H         1 X0D         0.0592
@<TRIPOS>BOND
     1    1    2 ar 
     2    2    3 ar 
     3    2    4 1  
     4    4    5 1  
     5    4   11 1  
     6    5    6 1  
     7    6    7 1  
     8    7    8 1  
     9    8    9 1  
    10    8   10 1  
    11   11   12 am 
    12   12   13 2  
    13   12   14 am 
    14   14   15 1  
    15   14   18 am 
    16   15   16 1  
    17   16   17 1  
    18   18   19 2  
    19   18   20 1  
    20   20   21 ar 
    21   20   22 ar 
    22   21   25 ar 
    23   22   23 ar 
    24   23   24 ar 
    25   24   25 ar 
    26   25   26 1  
    27   26   27 3  
    28   27   28 1  
    29   28   29 ar 
    30   28   34 ar 
    31   29   30 ar 
    32   30   31 ar 
    33   31   32 1  
    34   31   33 ar 
    35   33   34 ar 
    36   34   35 1  
    37    4   36 1  
    38    5   37 1  
    39    5   38 1  
    40    7   39 1  
    41    7   40 1  
    42    8   41 1  
    43    9   42 1  
    44    9   43 1  
    45    9   44 1  
    46   10   45 1  
    47   10   46 1  
    48   10   47 1  
    49   11   48 1  
    50   15   49 1  
    51   15   50 1  
    52   16   51 1  
    53   16   52 1  
    54   17   53 1  
    55   17   54 1  
    56   17   55 1  
    57   21   56 1  
    58   22   57 1  
    59   23   58 1  
    60   24   59 1  
    61   29   60 1  
    62   30   61 1  
    63   33   62 1  
@<TRIPOS>SUBSTRUCTURE
     1 X0D         1

