### 
### Created by X-TOOL on Mon Sep 10 21:13:17 2018
### 

@<TRIPOS>MOLECULE
4c5d_ligand
   63    65     1     0     0
SMALL
GAST_HUCK


@<TRIPOS>ATOM
      1 BR        -11.9640  -32.1310  -14.4820 Br        1 X0R        -0.0561
      2 C28       -13.4420  -31.0430  -14.9130 C.ar      1 X0R         0.0056
      3 C27       -14.3580  -31.5090  -15.8660 C.ar      1 X0R        -0.0590
      4 C26       -15.4420  -30.7040  -16.2030 C.ar      1 X0R        -0.0567
      5 C29       -13.6200  -29.8090  -14.2700 C.ar      1 X0R        -0.0590
      6 C30       -14.7210  -29.0120  -14.5960 C.ar      1 X0R        -0.0567
      7 C25       -15.6220  -29.4690  -15.5780 C.ar      1 X0R        -0.0303
      8 C24       -16.8020  -28.6120  -15.9740 C.3       1 X0R         0.0290
      9 S23       -18.2710  -29.5400  -15.8180 S.3       1 X0R        -0.1424
     10 C22       -18.3240  -29.5170  -14.0670 C.3       1 X0R         0.0305
     11 C20       -19.1420  -28.3110  -13.6420 C.3       1 X0R         0.1043
     12 C21       -20.1020  -28.8710  -12.6400 C.2       1 X0R         0.0607
     13 O2        -21.3300  -28.7960  -12.8790 O.co2     1 X0R        -0.5666
     14 O1        -19.6160  -29.4240  -11.6250 O.co2     1 X0R        -0.5666
     15 N19       -18.2880  -27.2250  -13.1570 N.am      1 X0R        -0.2520
     16 C19       -18.5400  -25.9540  -13.4800 C.2       1 X0R         0.2915
     17 O19       -19.5180  -25.7360  -14.1750 O.2       1 X0R        -0.3913
     18 N15       -17.7600  -24.9460  -13.0310 N.am      1 X0R        -0.1705
     19 C16       -18.3330  -23.6560  -12.7140 C.3       1 X0R         0.0584
     20 C17       -18.3430  -22.9290  -14.0400 C.3       1 X0R        -0.0312
     21 C18       -19.2670  -21.7320  -13.9630 C.3       1 X0R        -0.0631
     22 C15       -16.5200  -25.2390  -12.6410 C.2       1 X0R         0.2358
     23 O15       -16.0110  -26.3170  -12.8920 O.2       1 X0R        -0.3742
     24 C11       -15.7110  -24.2420  -11.8570 C.ar      1 X0R         0.0561
     25 C10       -14.7870  -23.4050  -12.4950 C.ar      1 X0R        -0.0267
     26 C12       -15.8650  -24.1490  -10.4720 C.ar      1 X0R        -0.0419
     27 C13       -15.0980  -23.2200   -9.7510 C.ar      1 X0R        -0.0556
     28 C14       -14.1770  -22.3920  -10.3870 C.ar      1 X0R        -0.0429
     29 C9        -14.0040  -22.4890  -11.7710 C.ar      1 X0R         0.0287
     30 C8        -13.1650  -21.7190  -12.4000 C.1       1 X0R        -0.0642
     31 C7        -12.3910  -21.0110  -12.9780 C.1       1 X0R        -0.0647
     32 C1        -11.5680  -20.2550  -13.6480 C.ar      1 X0R         0.0558
     33 C6        -11.6570  -18.8660  -13.5970 C.ar      1 X0R        -0.0491
     34 C5        -10.7170  -18.0960  -14.2940 C.ar      1 X0R        -0.0304
     35 C4         -9.6880  -18.6770  -15.0520 C.ar      1 X0R         0.1317
     36 F4         -8.7640  -17.9500  -15.7550 F         1 X0R        -0.1836
     37 C3         -9.6030  -20.0490  -15.0730 C.ar      1 X0R         0.0074
     38 C2        -10.5170  -20.8230  -14.3680 C.ar      1 X0R         0.1477
     39 F2        -10.3570  -22.1620  -14.4060 F         1 X0R        -0.1817
     40 H         -14.2245  -32.4786  -16.3320 H         1 X0R         0.0626
     41 H         -16.1493  -31.0374  -16.9538 H         1 X0R         0.0564
     42 H         -12.9075  -29.4753  -13.5243 H         1 X0R         0.0626
     43 H         -14.8787  -28.0599  -14.1024 H         1 X0R         0.0564
     44 H         -16.6840  -28.2846  -17.0175 H         1 X0R         0.0544
     45 H         -16.8529  -27.7313  -15.3169 H         1 X0R         0.0544
     46 H         -17.3039  -29.4381  -13.6630 H         1 X0R         0.0419
     47 H         -18.7955  -30.4385  -13.6950 H         1 X0R         0.0419
     48 H         -19.7088  -27.9248  -14.5020 H         1 X0R         0.0732
     49 H         -17.5036  -27.4385  -12.5746 H         1 X0R         0.1876
     50 H         -17.7129  -23.1218  -11.9791 H         1 X0R         0.0573
     51 H         -19.3542  -23.7670  -12.3205 H         1 X0R         0.0573
     52 H         -18.6947  -23.6114  -14.8278 H         1 X0R         0.0286
     53 H         -17.3242  -22.5889  -14.2775 H         1 X0R         0.0286
     54 H         -19.2696  -21.2080  -14.9302 H         1 X0R         0.0231
     55 H         -18.9161  -21.0479  -13.1763 H         1 X0R         0.0231
     56 H         -20.2866  -22.0704  -13.7266 H         1 X0R         0.0231
     57 H         -14.6730  -23.4648  -13.5713 H         1 X0R         0.0679
     58 H         -16.5718  -24.7897   -9.9573 H         1 X0R         0.0665
     59 H         -15.2255  -23.1459   -8.6771 H         1 X0R         0.0628
     60 H         -13.5982  -21.6772   -9.8133 H         1 X0R         0.0660
     61 H         -12.4436  -18.3869  -13.0253 H         1 X0R         0.0611
     62 H         -10.7865  -17.0153  -14.2465 H         1 X0R         0.0573
     63 H          -8.8173  -20.5307  -15.6437 H         1 X0R         0.0592
@<TRIPOS>BOND
     1    1    2 1  
     2    2    3 ar 
     3    2    5 ar 
     4    3    4 ar 
     5    4    7 ar 
     6    5    6 ar 
     7    6    7 ar 
     8    7    8 1  
     9    8    9 1  
    10    9   10 1  
    11   10   11 1  
    12   11   12 1  
    13   11   15 1  
    14   12   13 ar 
    15   12   14 ar 
    16   15   16 am 
    17   16   17 2  
    18   16   18 am 
    19   18   19 1  
    20   18   22 am 
    21   19   20 1  
    22   20   21 1  
    23   22   23 2  
    24   22   24 1  
    25   24   25 ar 
    26   24   26 ar 
    27   25   29 ar 
    28   26   27 ar 
    29   27   28 ar 
    30   28   29 ar 
    31   29   30 1  
    32   30   31 3  
    33   31   32 1  
    34   32   33 ar 
    35   32   38 ar 
    36   33   34 ar 
    37   34   35 ar 
    38   35   36 1  
    39   35   37 ar 
    40   37   38 ar 
    41   38   39 1  
    42    3   40 1  
    43    4   41 1  
    44    5   42 1  
    45    6   43 1  
    46    8   44 1  
    47    8   45 1  
    48   10   46 1  
    49   10   47 1  
    50   11   48 1  
    51   15   49 1  
    52   19   50 1  
    53   19   51 1  
    54   20   52 1  
    55   20   53 1  
    56   21   54 1  
    57   21   55 1  
    58   21   56 1  
    59   25   57 1  
    60   26   58 1  
    61   27   59 1  
    62   28   60 1  
    63   33   61 1  
    64   34   62 1  
    65   37   63 1  
@<TRIPOS>SUBSTRUCTURE
     1 X0R         1

