### 
### Created by X-TOOL on Mon Sep 10 21:13:17 2018
### 

@<TRIPOS>MOLECULE
4c5w_ligand
   25    24     1     0     0
SMALL
GAST_HUCK


@<TRIPOS>ATOM
      1 N1         22.5500   31.9820   87.7510 N.4       1 NM3         0.2369
      2 C8         23.9350   31.6850   87.2940 C.3       1 NM3        -0.0418
      3 O4         20.9210   26.5240   88.5520 O.co2     1 NM3        -0.5690
      4 C5         21.5770   27.4570   88.0510 C.2       1 NM3         0.0350
      5 O7         22.8290   27.4880   88.0170 O.co2     1 NM3        -0.5690
      6 C6         20.7650   28.5440   87.3940 C.3       1 NM3         0.0050
      7 C2         21.8650   30.7030   88.0860 C.3       1 NM3        -0.0293
      8 C9         22.5740   32.8170   88.9830 C.3       1 NM3        -0.0418
      9 C10        21.8550   32.7430   86.6970 C.3       1 NM3        -0.0418
     10 C3         21.5580   29.7670   86.9280 C.3       1 NM3        -0.0009
     11 H          24.4483   32.6253   87.0444 H         1 NM3         0.0778
     12 H          23.8970   31.0404   86.4035 H         1 NM3         0.0778
     13 H          24.4834   31.1698   88.0964 H         1 NM3         0.0778
     14 H          20.0084   28.8854   88.1158 H         1 NM3         0.0432
     15 H          20.2645   28.1097   86.5160 H         1 NM3         0.0432
     16 H          20.9112   30.9538   88.5732 H         1 NM3         0.0816
     17 H          22.5061   30.1574   88.7940 H         1 NM3         0.0816
     18 H          23.0752   33.7724   88.7687 H         1 NM3         0.0778
     19 H          23.1212   32.2856   89.7755 H         1 NM3         0.0778
     20 H          21.5433   33.0101   89.3152 H         1 NM3         0.0778
     21 H          21.8239   32.1459   85.7737 H         1 NM3         0.0778
     22 H          22.3938   33.6831   86.5077 H         1 NM3         0.0778
     23 H          20.8288   32.9677   87.0231 H         1 NM3         0.0778
     24 H          20.9682   30.3105   86.1752 H         1 NM3         0.0335
     25 H          22.5043   29.4304   86.4794 H         1 NM3         0.0335
@<TRIPOS>BOND
     1    1    2 1  
     2    7    1 1  
     3    1    8 1  
     4    1    9 1  
     5    4    3 ar 
     6    4    5 ar 
     7    6    4 1  
     8   10    6 1  
     9    7   10 1  
    10    2   11 1  
    11    2   12 1  
    12    2   13 1  
    13    6   14 1  
    14    6   15 1  
    15    7   16 1  
    16    7   17 1  
    17    8   18 1  
    18    8   19 1  
    19    8   20 1  
    20    9   21 1  
    21    9   22 1  
    22    9   23 1  
    23   10   24 1  
    24   10   25 1  
@<TRIPOS>SUBSTRUCTURE
     1 NM3         1

