### 
### Created by X-TOOL on Mon Sep 10 21:13:18 2018
### 

@<TRIPOS>MOLECULE
4c61_ligand
   44    47     1     0     0
SMALL
GAST_HUCK


@<TRIPOS>ATOM
      1 F28        10.6370    7.4690   43.5650 F         1 LMM        -0.1730
      2 C25        11.6050    6.5200   43.6400 C.ar      1 LMM         0.1779
      3 C26        11.3470    5.2000   44.0990 C.ar      1 LMM         0.0551
      4 N27        12.3470    4.3160   44.2220 N.ar      1 LMM        -0.2640
      5 C22        13.5630    4.7640   43.8730 C.ar      1 LMM         0.1254
      6 N23        13.9020    5.9700   43.3940 N.ar      1 LMM        -0.2640
      7 C24        12.9050    6.8560   43.2790 C.ar      1 LMM         0.0551
      8 C19        14.7600    3.7720   44.0640 C.3       1 LMM         0.1041
      9 C21        15.3030    3.9670   45.4770 C.3       1 LMM        -0.0266
     10 N18        15.8400    4.0140   43.0940 N.pl3     1 LMM        -0.2787
     11 C8         15.7910    3.7760   41.7670 C.ar      1 LMM         0.1564
     12 N7         16.8960    4.0740   41.0670 N.ar      1 LMM        -0.2951
     13 C6         16.8500    3.7280   39.7710 C.ar      1 LMM         0.0314
     14 C2         17.9670    3.8670   38.8050 C.2       1 LMM        -0.0316
     15 C1         19.3600    4.3440   39.0980 C.3       1 LMM        -0.0393
     16 N9         14.6680    3.2120   41.2840 N.ar      1 LMM        -0.2523
     17 C10        14.6160    2.8840   39.9840 C.ar      1 LMM         0.1409
     18 C5         15.7420    3.1300   39.1490 C.ar      1 LMM         0.0918
     19 S4         16.0220    2.7760   37.4790 S.3       1 LMM        -0.0438
     20 C3         17.6150    3.4150   37.5660 C.2       1 LMM        -0.0014
     21 N11        13.4650    2.2720   39.4490 N.pl3     1 LMM        -0.2671
     22 C12        12.3020    1.9500   40.1300 C.2       1 LMM         0.1018
     23 N16        11.2970    1.3210   39.4640 N.2       1 LMM        -0.3007
     24 C15        10.3140    1.1200   40.3110 C.2       1 LMM         0.0922
     25 N14        10.6860    1.6190   41.5660 N.pl3     1 LMM        -0.2667
     26 C17         9.9000    1.6050   42.8030 C.3       1 LMM         0.0430
     27 C13        11.9420    2.1320   41.4280 C.2       1 LMM         0.0512
     28 H          10.3346    4.9061   44.3514 H         1 LMM         0.0907
     29 H          13.1142    7.8494   42.8990 H         1 LMM         0.0907
     30 H          14.3975    2.7405   43.9435 H         1 LMM         0.0786
     31 H          16.1477    3.2822   45.6429 H         1 LMM         0.0280
     32 H          14.5089    3.7536   46.2077 H         1 LMM         0.0280
     33 H          15.6438    5.0057   45.5988 H         1 LMM         0.0280
     34 H          16.7189    4.4030   43.4643 H         1 LMM         0.1874
     35 H          19.9533    4.3341   38.1718 H         1 LMM         0.0344
     36 H          19.8269    3.6792   39.8396 H         1 LMM         0.0344
     37 H          19.3205    5.3682   39.4972 H         1 LMM         0.0344
     38 H          18.2847    3.4557   36.7082 H         1 LMM         0.0730
     39 H          13.4909    2.0395   38.4459 H         1 LMM         0.2084
     40 H           9.3637    0.6428   40.0760 H         1 LMM         0.1197
     41 H          10.4795    2.0755   43.6110 H         1 LMM         0.0580
     42 H           9.6659    0.5657   43.0770 H         1 LMM         0.0580
     43 H           8.9648    2.1634   42.6495 H         1 LMM         0.0580
     44 H          12.5417    2.5982   42.2083 H         1 LMM         0.0678
@<TRIPOS>BOND
     1    1    2 1  
     2    2    3 ar 
     3    2    7 ar 
     4    3    4 ar 
     5    4    5 ar 
     6    5    6 ar 
     7    5    8 1  
     8    6    7 ar 
     9    8    9 1  
    10    8   10 1  
    11   10   11 1  
    12   11   12 ar 
    13   11   16 ar 
    14   12   13 ar 
    15   13   14 1  
    16   13   18 ar 
    17   14   15 1  
    18   14   20 2  
    19   16   17 ar 
    20   17   18 ar 
    21   17   21 1  
    22   18   19 1  
    23   19   20 1  
    24   21   22 1  
    25   22   23 1  
    26   22   27 2  
    27   23   24 2  
    28   24   25 1  
    29   25   26 1  
    30   25   27 1  
    31    3   28 1  
    32    7   29 1  
    33    8   30 1  
    34    9   31 1  
    35    9   32 1  
    36    9   33 1  
    37   10   34 1  
    38   15   35 1  
    39   15   36 1  
    40   15   37 1  
    41   20   38 1  
    42   21   39 1  
    43   24   40 1  
    44   26   41 1  
    45   26   42 1  
    46   26   43 1  
    47   27   44 1  
@<TRIPOS>SUBSTRUCTURE
     1 LMM         1

