### 
### Created by X-TOOL on Mon Sep 10 21:13:15 2018
### 

@<TRIPOS>MOLECULE
4c66_ligand
   38    41     1     0     0
SMALL
GAST_HUCK


@<TRIPOS>ATOM
      1 C          29.3350   51.2990    1.7690 C.3       1 H4C        -0.0549
      2 N          23.7170   50.2220    0.2760 N.pl3     1 H4C        -0.1470
      3 S          26.0480   50.9790    1.5380 S.3       1 H4C         0.0184
      4 CL         25.0280   53.4370   -4.4410 Cl        1 H4C        -0.0629
      5 C1         28.5100   52.3040    1.1120 C.3       1 H4C        -0.0145
      6 N1         21.9810   48.9480    0.7390 N.2       1 H4C        -0.2795
      7 C2         27.2170   51.7740    0.5390 C.2       1 H4C         0.0125
      8 N2         21.5650   49.9550   -0.1250 N.2       1 H4C        -0.2787
      9 C3         26.8550   51.9090   -0.7510 C.2       1 H4C        -0.0727
     10 N3         23.5990   51.4980   -2.4850 N.2       1 H4C        -0.3485
     11 C4         25.5650   51.3440   -0.9650 C.2       1 H4C         0.0258
     12 C5         25.0150   50.8180    0.1850 C.2       1 H4C         0.1870
     13 C6         23.2570   49.1190    0.9810 C.2       1 H4C         0.1468
     14 C7         24.0940   48.2520    1.8550 C.3       1 H4C         0.0171
     15 C8         22.6130   50.6900   -0.4040 C.2       1 H4C         0.1578
     16 C9         22.7190   51.8370   -1.3530 C.3       1 H4C         0.0718
     17 C10        24.9200   51.3200   -2.2450 C.2       1 H4C         0.0258
     18 C11        25.7970   51.0380   -3.4140 C.ar      1 H4C         0.0216
     19 C12        26.5650   49.8710   -3.4620 C.ar      1 H4C        -0.0438
     20 C13        27.3280   49.5790   -4.5790 C.ar      1 H4C        -0.0545
     21 C14        27.3610   50.4470   -5.6470 C.ar      1 H4C        -0.0554
     22 C15        26.6430   51.6280   -5.6060 C.ar      1 H4C        -0.0406
     23 C16        25.8710   51.9170   -4.4890 C.ar      1 H4C         0.0587
     24 H1         30.2509   51.7711    2.1539 H         1 H4C         0.0253
     25 H2         29.6029   50.5146    1.0458 H         1 H4C         0.0253
     26 H3         28.7742   50.8525    2.6033 H         1 H4C         0.0253
     27 H4         29.0943   52.7455    0.2912 H         1 H4C         0.0431
     28 H5         28.2656   53.0834    1.8487 H         1 H4C         0.0431
     29 H6         27.4621   52.3827   -1.5211 H         1 H4C         0.0262
     30 H7         23.4703   47.4553    2.2865 H         1 H4C         0.0469
     31 H8         24.5276   48.8572    2.6647 H         1 H4C         0.0469
     32 H9         24.9025   47.8028    1.2597 H         1 H4C         0.0469
     33 H10        21.7173   52.0826   -1.7355 H         1 H4C         0.0593
     34 H11        23.1325   52.7073   -0.8224 H         1 H4C         0.0593
     35 H12        26.5629   49.1901   -2.6185 H         1 H4C         0.0681
     36 H13        27.9034   48.6609   -4.6132 H         1 H4C         0.0635
     37 H14        27.9517   50.2039   -6.5228 H         1 H4C         0.0666
     38 H15        26.6826   52.3216   -6.4381 H         1 H4C         0.0640
@<TRIPOS>BOND
     1    5    1 1  
     2   12    2 1  
     3    2   13 1  
     4    2   15 1  
     5    3    7 1  
     6   12    3 1  
     7   23    4 1  
     8    7    5 1  
     9    8    6 1  
    10   13    6 2  
    11    9    7 2  
    12   15    8 2  
    13   11    9 1  
    14   10   16 1  
    15   17   10 2  
    16   11   12 2  
    17   17   11 1  
    18   13   14 1  
    19   16   15 1  
    20   18   17 1  
    21   18   19 ar 
    22   18   23 ar 
    23   19   20 ar 
    24   20   21 ar 
    25   21   22 ar 
    26   22   23 ar 
    27    1   24 1  
    28    1   25 1  
    29    1   26 1  
    30    5   27 1  
    31    5   28 1  
    32    9   29 1  
    33   14   30 1  
    34   14   31 1  
    35   14   32 1  
    36   16   33 1  
    37   16   34 1  
    38   19   35 1  
    39   20   36 1  
    40   21   37 1  
    41   22   38 1  
@<TRIPOS>SUBSTRUCTURE
     1 H4C         1

