### 
### Created by X-TOOL on Mon Sep 10 21:13:13 2018
### 

@<TRIPOS>MOLECULE
4c6u_ligand
   30    30     1     0     0
SMALL
GAST_HUCK


@<TRIPOS>ATOM
      1 S         -20.0210   35.1090  -31.9860 S.3       1 TLG        -0.1374
      2 C1        -16.1630   37.6180  -32.6960 C.3       1 TLG         0.0012
      3 C3        -19.2070   35.9450  -29.4810 C.3       1 TLG        -0.1034
      4 C4        -18.6320   35.2540  -30.7290 C.3       1 TLG         0.0191
      5 O6        -17.4850   33.6000  -29.3000 O.3       1 TLG        -0.3303
      6 C7        -18.4990   39.4250  -32.2290 C.2       1 TLG        -0.0429
      7 C8        -18.5020   38.1560  -31.8940 C.2       1 TLG         0.0061
      8 C9        -17.4170   37.1560  -32.0050 C.2       1 TLG        -0.0032
      9 C10       -17.4490   35.9210  -31.4200 C.2       1 TLG        -0.0987
     10 C11       -20.0830   33.2970  -31.9150 C.2       1 TLG         0.1845
     11 O11       -20.9030   32.6560  -32.5350 O.2       1 TLG        -0.3680
     12 C12       -19.0530   32.8370  -30.9790 C.2       1 TLG         0.1230
     13 C13       -18.7700   31.4310  -30.6930 C.2       1 TLG         0.1422
     14 C14       -17.7160   31.0530  -29.6980 C.3       1 TLG         0.0111
     15 C15       -18.3440   33.8140  -30.3190 C.2       1 TLG         0.0660
     16 ONA       -19.3070   30.5460  -31.3640 O.2       1 TLG        -0.3789
     17 H1        -16.3200   38.6272  -33.1044 H         1 TLG         0.0557
     18 H2        -15.9189   36.9251  -33.5147 H         1 TLG         0.0557
     19 H3        -15.3333   37.6396  -31.9742 H         1 TLG         0.0557
     20 H4        -18.4176   36.0465  -28.7217 H         1 TLG         0.0026
     21 H5        -20.0314   35.3408  -29.0744 H         1 TLG         0.0026
     22 H6        -19.5831   36.9419  -29.7543 H         1 TLG         0.0026
     23 H7        -17.3982   32.6657  -29.1514 H         1 TLG         0.2599
     24 H8        -19.3924   40.0296  -32.0800 H         1 TLG         0.1086
     25 H9        -17.6031   39.8733  -32.6559 H         1 TLG         0.1086
     26 H10       -19.4364   37.7862  -31.4744 H         1 TLG         0.0803
     27 H11       -16.5232   35.3484  -31.4514 H         1 TLG         0.0434
     28 H12       -17.6561   29.9570  -29.6259 H         1 TLG         0.0446
     29 H13       -17.9737   31.4716  -28.7140 H         1 TLG         0.0446
     30 H14       -16.7443   31.4527  -30.0235 H         1 TLG         0.0446
@<TRIPOS>BOND
     1    4    1 1  
     2    1   10 1  
     3    8    2 1  
     4    4    3 1  
     5    9    4 1  
     6    4   15 1  
     7   15    5 1  
     8    7    6 2  
     9    8    7 1  
    10    8    9 2  
    11   10   11 2  
    12   10   12 1  
    13   12   13 1  
    14   12   15 2  
    15   13   14 1  
    16   13   16 2  
    17    2   17 1  
    18    2   18 1  
    19    2   19 1  
    20    3   20 1  
    21    3   21 1  
    22    3   22 1  
    23    5   23 1  
    24    6   24 1  
    25    6   25 1  
    26    7   26 1  
    27    9   27 1  
    28   14   28 1  
    29   14   29 1  
    30   14   30 1  
@<TRIPOS>SUBSTRUCTURE
     1 TLG         1

