### 
### Created by X-TOOL on Mon Sep 10 21:13:13 2018
### 

@<TRIPOS>MOLECULE
4c6v_ligand
   30    30     1     0     0
SMALL
GAST_HUCK


@<TRIPOS>ATOM
      1 S          40.1450    0.1850   31.9240 S.3       1 TLG        -0.1374
      2 C1         40.2230    4.8800   32.5890 C.3       1 TLG         0.0012
      3 C3         40.6810    1.3790   29.4590 C.3       1 TLG        -0.1034
      4 C4         39.6980    1.4940   30.6510 C.3       1 TLG         0.0191
      5 O6         37.7010    1.8450   29.1680 O.3       1 TLG        -0.3303
      6 C7         43.0690    4.0170   32.2050 C.2       1 TLG        -0.0429
      7 C8         42.0470    3.2910   31.8210 C.2       1 TLG         0.0061
      8 C9         40.6020    3.5920   31.9110 C.2       1 TLG        -0.0032
      9 C10        39.6180    2.8260   31.3720 C.2       1 TLG        -0.0987
     10 C11        38.6000   -0.7370   31.7800 C.2       1 TLG         0.1845
     11 O11        38.3840   -1.7420   32.4280 O.2       1 TLG        -0.3680
     12 C12        37.7620   -0.0620   30.7680 C.2       1 TLG         0.1230
     13 C13        36.4320   -0.5230   30.4120 C.2       1 TLG         0.1422
     14 C14        35.6350    0.1610   29.3420 C.3       1 TLG         0.0111
     15 C15        38.3010    1.0790   30.1580 C.2       1 TLG         0.0660
     16 ONA        35.9010   -1.4170   31.0730 O.2       1 TLG        -0.3789
     17 H1         41.1291    5.3754   32.9679 H         1 TLG         0.0557
     18 H2         39.5438    4.6669   33.4276 H         1 TLG         0.0557
     19 H3         39.7190    5.5397   31.8674 H         1 TLG         0.0557
     20 H4         40.4324    2.1395   28.7041 H         1 TLG         0.0026
     21 H5         40.5990    0.3776   29.0114 H         1 TLG         0.0026
     22 H6         41.7095    1.5384   29.8151 H         1 TLG         0.0026
     23 H7         36.8490    1.4801   28.9595 H         1 TLG         0.2599
     24 H8         44.0834    3.6461   32.0657 H         1 TLG         0.1086
     25 H9         42.9035    4.9909   32.6632 H         1 TLG         0.1086
     26 H10        42.2976    2.3308   31.3725 H         1 TLG         0.0803
     27 H11        38.6129    3.2326   31.4737 H         1 TLG         0.0434
     28 H12        34.6633   -0.3422   29.2304 H         1 TLG         0.0446
     29 H13        36.1836    0.1143   28.3897 H         1 TLG         0.0446
     30 H14        35.4733    1.2127   29.6209 H         1 TLG         0.0446
@<TRIPOS>BOND
     1    4    1 1  
     2    1   10 1  
     3    8    2 1  
     4    4    3 1  
     5    9    4 1  
     6    4   15 1  
     7   15    5 1  
     8    7    6 2  
     9    8    7 1  
    10    8    9 2  
    11   10   11 2  
    12   10   12 1  
    13   12   13 1  
    14   12   15 2  
    15   13   14 1  
    16   13   16 2  
    17    2   17 1  
    18    2   18 1  
    19    2   19 1  
    20    3   20 1  
    21    3   21 1  
    22    3   22 1  
    23    5   23 1  
    24    6   24 1  
    25    6   25 1  
    26    7   26 1  
    27    9   27 1  
    28   14   28 1  
    29   14   29 1  
    30   14   30 1  
@<TRIPOS>SUBSTRUCTURE
     1 TLG         1

