### 
### Created by X-TOOL on Mon Sep 10 21:13:12 2018
### 

@<TRIPOS>MOLECULE
4c6x_ligand
   28    28     1     0     0
SMALL
GAST_HUCK


@<TRIPOS>ATOM
      1 S1         -5.0700  -21.2760    8.1500 S.3       1 TLM        -0.1420
      2 C1         -5.0680  -23.0880    7.9740 C.2       1 TLM         0.1938
      3 C2         -6.0730  -23.4770    7.0080 C.2       1 TLM         0.0642
      4 C3         -6.7650  -22.4580    6.4870 C.2       1 TLM         0.0431
      5 C4         -6.3780  -21.0140    6.8400 C.3       1 TLM        -0.0011
      6 C5         -7.5250  -20.2430    7.3420 C.2       1 TLM        -0.1178
      7 C6         -7.5440  -19.0680    8.0120 C.2       1 TLM        -0.0181
      8 C7         -8.8020  -18.5330    8.5710 C.2       1 TLM        -0.0071
      9 C8         -8.8860  -17.3130    9.0820 C.2       1 TLM        -0.0529
     10 O1         -4.3000  -23.8410    8.5290 O.2       1 TLM        -0.3545
     11 C9         -6.3220  -24.9220    6.6890 C.3       1 TLM        -0.0054
     12 O2         -7.8120  -22.6040    5.6860 O.3       1 TLM        -0.3496
     13 C10        -5.6560  -20.4310    5.6400 C.3       1 TLM        -0.1105
     14 C11        -6.2710  -18.3260    8.3180 C.3       1 TLM        -0.0051
     15 H1         -8.5020  -20.6821    7.1457 H         1 TLM         0.0341
     16 H2         -9.6907  -19.1623    8.5630 H         1 TLM         0.0763
     17 H3         -9.8325  -16.9553    9.4847 H         1 TLM         0.0985
     18 H4         -8.0085  -16.6683    9.0992 H         1 TLM         0.0985
     19 H5         -5.6146  -25.5489    7.2517 H         1 TLM         0.0485
     20 H6         -6.1823  -25.0889    5.6108 H         1 TLM         0.0485
     21 H7         -7.3516  -25.1876    6.9708 H         1 TLM         0.0485
     22 H8         -7.9649  -23.5289    5.5320 H         1 TLM         0.2477
     23 H9         -6.3774  -20.2530    4.8289 H         1 TLM         0.0013
     24 H10        -4.8855  -21.1372    5.2969 H         1 TLM         0.0013
     25 H11        -5.1816  -19.4801    5.9239 H         1 TLM         0.0013
     26 H12        -5.4238  -18.8381    7.8384 H         1 TLM         0.0529
     27 H13        -6.1147  -18.2993    9.4065 H         1 TLM         0.0529
     28 H14        -6.3439  -17.2983    7.9327 H         1 TLM         0.0529
@<TRIPOS>BOND
     1    1    2 1  
     2    1    5 1  
     3    2    3 1  
     4    2   10 2  
     5    3    4 2  
     6    3   11 1  
     7    4    5 1  
     8    4   12 1  
     9    5    6 1  
    10    5   13 1  
    11    6    7 2  
    12    7    8 1  
    13    7   14 1  
    14    8    9 2  
    15    6   15 1  
    16    8   16 1  
    17    9   17 1  
    18    9   18 1  
    19   11   19 1  
    20   11   20 1  
    21   11   21 1  
    22   12   22 1  
    23   13   23 1  
    24   13   24 1  
    25   13   25 1  
    26   14   26 1  
    27   14   27 1  
    28   14   28 1  
@<TRIPOS>SUBSTRUCTURE
     1 TLM         1

