### 
### Created by X-TOOL on Mon Sep 10 21:13:12 2018
### 

@<TRIPOS>MOLECULE
4c6z_ligand
   31    31     1     0     0
SMALL
GAST_HUCK


@<TRIPOS>ATOM
      1 C          -8.5150  -17.5250    9.1190 C.2       1 TLE        -0.0529
      2 O          -3.8350  -23.9010    8.5220 O.2       1 TLE        -0.3545
      3 S          -4.6970  -21.5000    8.1490 S.3       1 TLE        -0.1420
      4 C1         -8.3810  -18.6940    8.4730 C.2       1 TLE        -0.0071
      5 O1         -7.4960  -22.8200    5.6340 O.3       1 TLE        -0.3496
      6 C2         -7.1720  -19.3510    7.9860 C.2       1 TLE        -0.0181
      7 C3         -5.8480  -18.6950    8.2780 C.3       1 TLE        -0.0051
      8 C4         -7.1730  -20.4750    7.2700 C.2       1 TLE        -0.1178
      9 C5         -5.9840  -21.2470    6.7940 C.3       1 TLE        -0.0011
     10 C6         -5.2450  -20.5480    5.6590 C.3       1 TLE        -0.1105
     11 C7         -4.6730  -23.2870    7.9330 C.2       1 TLE         0.1941
     12 C8         -5.6520  -23.6940    6.8940 C.2       1 TLE         0.0670
     13 C9         -5.8600  -25.1290    6.4920 C.3       1 TLE         0.0036
     14 C10        -6.1240  -26.0560    7.6940 C.3       1 TLE        -0.0495
     15 C11        -6.3570  -22.6760    6.3910 C.2       1 TLE         0.0433
     16 H1         -9.5034  -17.1767    9.4151 H         1 TLE         0.0985
     17 H2         -7.6353  -16.9249    9.3469 H         1 TLE         0.0985
     18 H3         -9.3098  -19.2305    8.2848 H         1 TLE         0.0763
     19 H4         -7.3984  -22.3367    4.8219 H         1 TLE         0.2477
     20 H5         -5.0360  -19.3022    7.8514 H         1 TLE         0.0529
     21 H6         -5.7115  -18.6130    9.3664 H         1 TLE         0.0529
     22 H7         -5.8295  -17.6908    7.8294 H         1 TLE         0.0529
     23 H8         -8.1491  -20.8763    7.0014 H         1 TLE         0.0341
     24 H9         -5.9400  -20.3666    4.8259 H         1 TLE         0.0013
     25 H10        -4.4169  -21.1845    5.3137 H         1 TLE         0.0013
     26 H11        -4.8448  -19.5884    6.0181 H         1 TLE         0.0013
     27 H12        -4.9589  -25.4811    5.9685 H         1 TLE         0.0517
     28 H13        -6.7231  -25.1815    5.8121 H         1 TLE         0.0517
     29 H14        -6.2674  -27.0867    7.3376 H         1 TLE         0.0264
     30 H15        -7.0287  -25.7218    8.2231 H         1 TLE         0.0264
     31 H16        -5.2644  -26.0214    8.3795 H         1 TLE         0.0264
@<TRIPOS>BOND
     1    4    1 2  
     2   11    2 2  
     3    9    3 1  
     4    3   11 1  
     5    6    4 1  
     6   15    5 1  
     7    6    7 1  
     8    8    6 2  
     9    9    8 1  
    10    9   10 1  
    11    9   15 1  
    12   11   12 1  
    13   12   13 1  
    14   12   15 2  
    15   13   14 1  
    16    1   16 1  
    17    1   17 1  
    18    4   18 1  
    19    5   19 1  
    20    7   20 1  
    21    7   21 1  
    22    7   22 1  
    23    8   23 1  
    24   10   24 1  
    25   10   25 1  
    26   10   26 1  
    27   13   27 1  
    28   13   28 1  
    29   14   29 1  
    30   14   30 1  
    31   14   31 1  
@<TRIPOS>SUBSTRUCTURE
     1 TLE         1

