### 
### Created by X-TOOL on Mon Sep 10 21:13:12 2018
### 

@<TRIPOS>MOLECULE
4c70_ligand
   34    34     1     0     0
SMALL
GAST_HUCK


@<TRIPOS>ATOM
      1 C          -9.0420  -17.5140    9.3310 C.2       1 TLJ        -0.0529
      2 O          -4.0940  -23.9120    8.3910 O.2       1 TLJ        -0.3545
      3 S          -5.1920  -21.5570    8.4310 S.3       1 TLJ        -0.1420
      4 C1         -8.7600  -18.5790    8.5770 C.2       1 TLJ        -0.0071
      5 O1         -7.7320  -22.6680    5.5500 O.3       1 TLJ        -0.3496
      6 C2         -7.5040  -19.2210    8.0540 C.2       1 TLJ        -0.0181
      7 C3         -6.1610  -18.6030    8.3350 C.3       1 TLJ        -0.0051
      8 C4         -7.5040  -20.3790    7.3720 C.2       1 TLJ        -0.1178
      9 C5         -6.3140  -21.1850    6.9380 C.3       1 TLJ        -0.0011
     10 C6         -5.4760  -20.4740    5.8380 C.3       1 TLJ        -0.1105
     11 C7         -5.0070  -23.3050    7.9220 C.2       1 TLJ         0.1941
     12 C8         -5.8860  -23.6470    6.7630 C.2       1 TLJ         0.0673
     13 C9         -5.9910  -25.0310    6.1770 C.3       1 TLJ         0.0062
     14 C10        -6.9690  -25.9850    7.0390 C.3       1 TLJ        -0.0402
     15 C11        -6.3680  -26.6890    8.2800 C.3       1 TLJ        -0.0625
     16 C12        -6.6650  -22.5930    6.3920 C.2       1 TLJ         0.0433
     17 H1        -10.0775  -17.2709    9.5644 H         1 TLJ         0.0985
     18 H2         -8.2365  -16.8884    9.7127 H         1 TLJ         0.0985
     19 H3         -9.6566  -19.1124    8.2648 H         1 TLJ         0.0763
     20 H4         -7.5707  -22.1253    4.7871 H         1 TLJ         0.2477
     21 H5         -5.3721  -19.2143    7.8725 H         1 TLJ         0.0529
     22 H6         -5.9989  -18.5566    9.4220 H         1 TLJ         0.0529
     23 H7         -6.1302  -17.5865    7.9159 H         1 TLJ         0.0529
     24 H8         -8.4804  -20.7792    7.1029 H         1 TLJ         0.0341
     25 H9         -6.1179  -20.2558    4.9718 H         1 TLJ         0.0013
     26 H10        -4.6493  -21.1292    5.5259 H         1 TLJ         0.0013
     27 H11        -5.0680  -19.5341    6.2380 H         1 TLJ         0.0013
     28 H12        -4.9881  -25.4821    6.1515 H         1 TLJ         0.0520
     29 H13        -6.3843  -24.9533    5.1527 H         1 TLJ         0.0520
     30 H14        -7.3433  -26.7690    6.3644 H         1 TLJ         0.0297
     31 H15        -7.8104  -25.3672    7.3858 H         1 TLJ         0.0297
     32 H16        -7.1426  -27.3008    8.7654 H         1 TLJ         0.0232
     33 H17        -6.0008  -25.9323    8.9889 H         1 TLJ         0.0232
     34 H18        -5.5337  -27.3341    7.9674 H         1 TLJ         0.0232
@<TRIPOS>BOND
     1    4    1 2  
     2   11    2 2  
     3    9    3 1  
     4    3   11 1  
     5    6    4 1  
     6   16    5 1  
     7    6    7 1  
     8    8    6 2  
     9    9    8 1  
    10    9   10 1  
    11    9   16 1  
    12   11   12 1  
    13   12   13 1  
    14   12   16 2  
    15   13   14 1  
    16   14   15 1  
    17    1   17 1  
    18    1   18 1  
    19    4   19 1  
    20    5   20 1  
    21    7   21 1  
    22    7   22 1  
    23    7   23 1  
    24    8   24 1  
    25   10   25 1  
    26   10   26 1  
    27   10   27 1  
    28   13   28 1  
    29   13   29 1  
    30   14   30 1  
    31   14   31 1  
    32   15   32 1  
    33   15   33 1  
    34   15   34 1  
@<TRIPOS>SUBSTRUCTURE
     1 TLJ         1

