### 
### Created by X-TOOL on Mon Sep 10 21:13:12 2018
### 

@<TRIPOS>MOLECULE
4c71_ligand
   39    39     1     0     0
SMALL
GAST_HUCK


@<TRIPOS>ATOM
      1 N2         -4.2910  -28.9980    9.7810 N.1       1 7RD         0.2334
      2 N1         -4.9200  -28.0670    9.5950 N.1       1 7RD         0.1292
      3 N          -5.4680  -27.0200    9.3080 N.2       1 7RD         0.1658
      4 C12        -5.1130  -26.4880    8.0250 C.3       1 7RD         0.2092
      5 C11        -6.3740  -25.7460    7.6630 C.3       1 7RD         0.0056
      6 C10        -6.2750  -25.1960    6.2980 C.3       1 7RD        -0.0326
      7 C9         -4.9330  -24.4960    6.1860 C.3       1 7RD         0.0066
      8 C8         -4.8750  -23.1530    6.8630 C.2       1 7RD         0.0673
      9 C7         -3.9810  -22.8900    7.9520 C.2       1 7RD         0.1941
     10 O          -3.2320  -23.6050    8.5510 O.2       1 7RD        -0.3545
     11 S          -4.0820  -21.1100    8.4080 S.3       1 7RD        -0.1420
     12 C13        -5.5110  -22.0400    6.3920 C.2       1 7RD         0.0433
     13 O1         -6.4360  -22.0330    5.4140 O.3       1 7RD        -0.3496
     14 C5         -5.2520  -20.6870    6.9980 C.3       1 7RD        -0.0011
     15 C6         -4.4960  -19.8610    5.9380 C.3       1 7RD        -0.1105
     16 C4         -6.5070  -20.0030    7.4890 C.2       1 7RD        -0.1178
     17 C2         -6.6130  -18.8940    8.2000 C.2       1 7RD        -0.0181
     18 C3         -5.3750  -18.1180    8.5840 C.3       1 7RD        -0.0051
     19 C1         -7.9340  -18.3720    8.6210 C.2       1 7RD        -0.0071
     20 C          -8.0830  -17.1840    9.2620 C.2       1 7RD        -0.0529
     21 H1         -4.8934  -27.2879    7.3026 H         1 7RD         0.0958
     22 H2         -4.2503  -25.8090    8.0938 H         1 7RD         0.0958
     23 H3         -6.5264  -24.9218    8.3753 H         1 7RD         0.0318
     24 H4         -7.2282  -26.4372    7.7138 H         1 7RD         0.0318
     25 H5         -7.0893  -24.4777    6.1222 H         1 7RD         0.0301
     26 H6         -6.3375  -26.0090    5.5597 H         1 7RD         0.0301
     27 H7         -4.7070  -24.3536    5.1189 H         1 7RD         0.0520
     28 H8         -4.1681  -25.1434    6.6396 H         1 7RD         0.0520
     29 H9         -6.0543  -22.3798    4.6162 H         1 7RD         0.2477
     30 H10        -5.1784  -19.6122    5.1119 H         1 7RD         0.0013
     31 H11        -3.6500  -20.4478    5.5507 H         1 7RD         0.0013
     32 H12        -4.1203  -18.9337    6.3951 H         1 7RD         0.0013
     33 H13        -7.4456  -20.4866    7.2224 H         1 7RD         0.0341
     34 H14        -5.6641  -17.2327    9.1693 H         1 7RD         0.0529
     35 H15        -4.8452  -17.7991    7.6743 H         1 7RD         0.0529
     36 H16        -4.7143  -18.7571    9.1881 H         1 7RD         0.0529
     37 H17        -8.8220  -18.9652    8.4077 H         1 7RD         0.0763
     38 H18        -9.0756  -16.8424    9.5517 H         1 7RD         0.0985
     39 H19        -7.2099  -16.5730    9.4862 H         1 7RD         0.0985
@<TRIPOS>BOND
     1    1    2 3  
     2    2    3 2  
     3    3    4 1  
     4    4    5 1  
     5    5    6 1  
     6    6    7 1  
     7    7    8 1  
     8    8    9 1  
     9    8   12 2  
    10    9   10 2  
    11    9   11 1  
    12   11   14 1  
    13   12   13 1  
    14   12   14 1  
    15   14   15 1  
    16   14   16 1  
    17   16   17 2  
    18   17   18 1  
    19   17   19 1  
    20   19   20 2  
    21    4   21 1  
    22    4   22 1  
    23    5   23 1  
    24    5   24 1  
    25    6   25 1  
    26    6   26 1  
    27    7   27 1  
    28    7   28 1  
    29   13   29 1  
    30   15   30 1  
    31   15   31 1  
    32   15   32 1  
    33   16   33 1  
    34   18   34 1  
    35   18   35 1  
    36   18   36 1  
    37   19   37 1  
    38   20   38 1  
    39   20   39 1  
@<TRIPOS>SUBSTRUCTURE
     1 7RD         1

