### 
### Created by X-TOOL on Mon Sep 10 21:13:12 2018
### 

@<TRIPOS>MOLECULE
4c72_ligand
   30    30     1     0     0
SMALL
GAST_HUCK


@<TRIPOS>ATOM
      1 S          -4.9490  -21.2920    8.2670 S.3       1 TLG        -0.1374
      2 C1         -6.0810  -18.2660    8.4540 C.3       1 TLG         0.0012
      3 C3         -5.4480  -20.3720    5.7440 C.3       1 TLG        -0.1034
      4 C4         -6.2050  -21.0010    6.9230 C.3       1 TLG         0.0191
      5 O6         -7.7030  -22.4460    5.7810 O.3       1 TLG        -0.3303
      6 C7         -8.7700  -17.3110    9.1810 C.2       1 TLG        -0.0429
      7 C8         -8.6110  -18.5020    8.5740 C.2       1 TLG         0.0061
      8 C9         -7.3280  -19.0460    8.1040 C.2       1 TLG        -0.0032
      9 C10        -7.3210  -20.1950    7.4580 C.2       1 TLG        -0.0987
     10 C11        -4.9850  -23.0810    8.0520 C.2       1 TLG         0.1845
     11 O11        -4.1970  -23.6960    8.6710 O.2       1 TLG        -0.3680
     12 C12        -5.9900  -23.4780    7.1070 C.2       1 TLG         0.1230
     13 C13        -6.2770  -24.8370    6.8180 C.2       1 TLG         0.1422
     14 C14        -7.5460  -25.2810    6.1490 C.3       1 TLG         0.0111
     15 C15        -6.6240  -22.4180    6.5510 C.2       1 TLG         0.0660
     16 ONA        -5.4690  -25.6940    7.1260 O.2       1 TLG        -0.3789
     17 H1         -6.3616  -17.3473    8.9900 H         1 TLG         0.0557
     18 H2         -5.5424  -18.0025    7.5318 H         1 TLG         0.0557
     19 H3         -5.4318  -18.8806    9.0949 H         1 TLG         0.0557
     20 H4         -6.1494  -20.1793    4.9188 H         1 TLG         0.0026
     21 H5         -4.6617  -21.0616    5.4033 H         1 TLG         0.0026
     22 H6         -4.9908  -19.4245    6.0653 H         1 TLG         0.0026
     23 H7         -7.5287  -21.9724    4.9762 H         1 TLG         0.2599
     24 H8         -9.7612  -16.9886    9.4963 H         1 TLG         0.1086
     25 H9         -7.9074  -16.6699    9.3567 H         1 TLG         0.1086
     26 H10        -9.5013  -19.1097    8.4190 H         1 TLG         0.0803
     27 H11        -8.3079  -20.6237    7.2899 H         1 TLG         0.0434
     28 H12        -7.5365  -26.3749    6.0340 H         1 TLG         0.0446
     29 H13        -7.6229  -24.8089    5.1585 H         1 TLG         0.0446
     30 H14        -8.4081  -24.9846    6.7645 H         1 TLG         0.0446
@<TRIPOS>BOND
     1    4    1 1  
     2    1   10 1  
     3    8    2 1  
     4    4    3 1  
     5    9    4 1  
     6    4   15 1  
     7   15    5 1  
     8    7    6 2  
     9    8    7 1  
    10    8    9 2  
    11   10   11 2  
    12   10   12 1  
    13   12   13 1  
    14   12   15 2  
    15   13   14 1  
    16   13   16 2  
    17    2   17 1  
    18    2   18 1  
    19    2   19 1  
    20    3   20 1  
    21    3   21 1  
    22    3   22 1  
    23    5   23 1  
    24    6   24 1  
    25    6   25 1  
    26    7   26 1  
    27    9   27 1  
    28   14   28 1  
    29   14   29 1  
    30   14   30 1  
@<TRIPOS>SUBSTRUCTURE
     1 TLG         1

