### 
### Created by X-TOOL on Mon Sep 10 21:13:12 2018
### 

@<TRIPOS>MOLECULE
4c73_ligand
   30    30     1     0     0
SMALL
GAST_HUCK


@<TRIPOS>ATOM
      1 F2         -6.5690  -26.2630    5.3210 F         1 TLH        -0.1718
      2 C10        -6.8570  -25.0490    5.6950 C.3       1 TLH         0.4591
      3 F          -8.1810  -25.0220    5.9280 F         1 TLH        -0.1718
      4 F1         -6.5270  -24.2860    4.6670 F         1 TLH        -0.1718
      5 C9         -6.0570  -24.6260    6.9440 C.2       1 TLH         0.2665
      6 O1         -5.7760  -25.5120    7.7210 O.2       1 TLH        -0.3189
      7 C8         -5.8490  -23.2330    7.1790 C.2       1 TLH         0.1342
      8 C7         -4.8560  -22.9030    8.1420 C.2       1 TLH         0.1856
      9 O          -4.0780  -23.6410    8.6840 O.2       1 TLH        -0.3673
     10 S          -4.8250  -21.1130    8.3560 S.3       1 TLH        -0.1371
     11 C11        -6.5010  -22.1780    6.6430 C.2       1 TLH         0.0671
     12 O2         -7.5720  -22.1940    5.8700 O.3       1 TLH        -0.3299
     13 C5         -6.0710  -20.7710    7.0160 C.3       1 TLH         0.0194
     14 C6         -5.3580  -20.1950    5.8200 C.3       1 TLH        -0.1034
     15 C4         -7.2480  -19.9990    7.5130 C.2       1 TLH        -0.0984
     16 C2         -7.2810  -18.8590    8.1860 C.2       1 TLH        -0.0029
     17 C3         -6.0160  -18.1350    8.5980 C.3       1 TLH         0.0013
     18 C1         -8.5610  -18.2730    8.5540 C.2       1 TLH         0.0063
     19 C          -8.6840  -17.0880    9.1410 C.2       1 TLH        -0.0428
     20 H1         -7.3825  -22.6839    5.0783 H         1 TLH         0.2603
     21 H2         -6.0871  -19.9896    5.0224 H         1 TLH         0.0026
     22 H3         -4.6104  -20.9155    5.4567 H         1 TLH         0.0026
     23 H4         -4.8561  -19.2595    6.1078 H         1 TLH         0.0026
     24 H5         -8.2200  -20.4365    7.2899 H         1 TLH         0.0437
     25 H6         -6.2801  -17.2167    9.1430 H         1 TLH         0.0557
     26 H7         -5.4339  -17.8748    7.7016 H         1 TLH         0.0557
     27 H8         -5.4154  -18.7876    9.2487 H         1 TLH         0.0557
     28 H9         -9.4671  -18.8365    8.3363 H         1 TLH         0.0804
     29 H10        -9.6719  -16.7044    9.3915 H         1 TLH         0.1088
     30 H11        -7.7969  -16.5000    9.3718 H         1 TLH         0.1088
@<TRIPOS>BOND
     1    1    2 1  
     2    2    3 1  
     3    2    4 1  
     4    2    5 1  
     5    5    6 2  
     6    5    7 1  
     7    7    8 1  
     8    7   11 2  
     9    8    9 2  
    10    8   10 1  
    11   10   13 1  
    12   11   12 1  
    13   11   13 1  
    14   13   14 1  
    15   13   15 1  
    16   15   16 2  
    17   16   17 1  
    18   16   18 1  
    19   18   19 2  
    20   12   20 1  
    21   14   21 1  
    22   14   22 1  
    23   14   23 1  
    24   15   24 1  
    25   17   25 1  
    26   17   26 1  
    27   17   27 1  
    28   18   28 1  
    29   19   29 1  
    30   19   30 1  
@<TRIPOS>SUBSTRUCTURE
     1 TLH         1

