### 
### Created by X-TOOL on Mon Sep 10 21:13:19 2018
### 

@<TRIPOS>MOLECULE
4c7t_ligand
   52    54     1     0     0
SMALL
GAST_HUCK


@<TRIPOS>ATOM
      1 CAB        -8.5800    5.3280   -5.8090 C.3       1 5RI         0.0562
      2 OAS        -9.2990    4.6840   -4.7440 O.3       1 5RI        -0.3305
      3 CBA       -10.6130    5.0080   -4.5260 C.ar      1 5RI         0.1030
      4 CAK       -11.3300    5.9370   -5.3040 C.ar      1 5RI        -0.0279
      5 CBD       -11.2310    4.3520   -3.4530 C.ar      1 5RI         0.1355
      6 OAU       -10.5450    3.4130   -2.7080 O.3       1 5RI        -0.3365
      7 CAD        -9.5980    3.9330   -1.7590 C.3       1 5RI         0.0518
      8 CBB       -12.5580    4.6110   -3.1570 C.ar      1 5RI         0.1030
      9 OAT       -13.1360    3.9250   -2.1140 O.3       1 5RI        -0.3305
     10 CAC       -14.2330    4.5510   -1.4430 C.3       1 5RI         0.0562
     11 CAL       -13.2700    5.5390   -3.9370 C.ar      1 5RI        -0.0279
     12 CAW       -12.6750    6.2120   -4.9960 C.ar      1 5RI         0.0405
     13 NAQ       -13.4730    7.0660   -5.6710 N.pl3     1 5RI        -0.2485
     14 CAX       -13.1610    8.1230   -6.4090 C.ar      1 5RI         0.2071
     15 NAO       -11.8990    8.5640   -6.5210 N.ar      1 5RI        -0.2089
     16 NAM       -14.1580    8.7760   -7.0590 N.ar      1 5RI        -0.2387
     17 CAH       -13.8880    9.8380   -7.8020 C.ar      1 5RI         0.0734
     18 NAN       -12.6470   10.2750   -7.9250 N.ar      1 5RI        -0.2381
     19 CAY       -11.6420    9.6350   -7.2810 C.ar      1 5RI         0.2107
     20 NAR       -10.4090   10.0860   -7.4310 N.pl3     1 5RI        -0.2338
     21 CAZ        -9.2890    9.5890   -6.8510 C.ar      1 5RI         0.0889
     22 CAI        -9.2100    9.4470   -5.4650 C.ar      1 5RI        -0.0312
     23 CAF        -8.0510    8.9750   -4.8650 C.ar      1 5RI        -0.0665
     24 CAG        -6.9420    8.6530   -5.6510 C.ar      1 5RI        -0.0672
     25 CAJ        -7.0000    8.7980   -7.0380 C.ar      1 5RI        -0.0508
     26 CBC        -8.1770    9.2690   -7.6370 C.ar      1 5RI         0.0737
     27 CAV        -8.2180    9.4230   -9.1650 C.2       1 5RI         0.1984
     28 OAE        -8.9650   10.2410   -9.7060 O.2       1 5RI        -0.3910
     29 NAP        -7.4050    8.6020   -9.8280 N.am      1 5RI        -0.2912
     30 CAA        -7.3560    8.7020  -11.2900 C.3       1 5RI         0.0188
     31 H          -7.5479    4.9486   -5.8364 H         1 5RI         0.0572
     32 H          -8.5668    6.4145   -5.6380 H         1 5RI         0.0572
     33 H          -9.0750    5.1137   -6.7677 H         1 5RI         0.0572
     34 H         -10.8482    6.4378   -6.1360 H         1 5RI         0.0349
     35 H          -9.1158    3.0992   -1.2277 H         1 5RI         0.0564
     36 H         -10.1198    4.5762   -1.0351 H         1 5RI         0.0564
     37 H          -8.8339    4.5213   -2.2882 H         1 5RI         0.0564
     38 H         -14.5931    3.8942   -0.6375 H         1 5RI         0.0572
     39 H         -15.0470    4.7313   -2.1605 H         1 5RI         0.0572
     40 H         -13.9026    5.5089   -1.0149 H         1 5RI         0.0572
     41 H         -14.3109    5.7343   -3.7057 H         1 5RI         0.0349
     42 H         -14.4810    6.8657   -5.6023 H         1 5RI         0.2183
     43 H         -14.6923   10.3537   -8.3141 H         1 5RI         0.1144
     44 H         -10.2863   10.8984   -8.0522 H         1 5RI         0.2234
     45 H         -10.0636    9.7083   -4.8500 H         1 5RI         0.0553
     46 H          -8.0064    8.8564   -3.7884 H         1 5RI         0.0624
     47 H          -6.0344    8.2897   -5.1827 H         1 5RI         0.0536
     48 H          -6.1400    8.5479   -7.6486 H         1 5RI         0.0640
     49 H          -6.8422    7.9342   -9.3408 H         1 5RI         0.1837
     50 H          -6.6433    7.9627  -11.6844 H         1 5RI         0.0483
     51 H          -7.0322    9.7131  -11.5777 H         1 5RI         0.0483
     52 H          -8.3556    8.5051  -11.7047 H         1 5RI         0.0483
@<TRIPOS>BOND
     1    1    2 1  
     2    2    3 1  
     3    3    4 ar 
     4    3    5 ar 
     5    4   12 ar 
     6    5    6 1  
     7    5    8 ar 
     8    6    7 1  
     9    8    9 1  
    10    8   11 ar 
    11    9   10 1  
    12   11   12 ar 
    13   12   13 1  
    14   13   14 1  
    15   14   15 ar 
    16   14   16 ar 
    17   15   19 ar 
    18   16   17 ar 
    19   17   18 ar 
    20   18   19 ar 
    21   19   20 1  
    22   20   21 1  
    23   21   22 ar 
    24   21   26 ar 
    25   22   23 ar 
    26   23   24 ar 
    27   24   25 ar 
    28   25   26 ar 
    29   26   27 1  
    30   27   28 2  
    31   27   29 am 
    32   29   30 1  
    33    1   31 1  
    34    1   32 1  
    35    1   33 1  
    36    4   34 1  
    37    7   35 1  
    38    7   36 1  
    39    7   37 1  
    40   10   38 1  
    41   10   39 1  
    42   10   40 1  
    43   11   41 1  
    44   13   42 1  
    45   17   43 1  
    46   20   44 1  
    47   22   45 1  
    48   23   46 1  
    49   24   47 1  
    50   25   48 1  
    51   29   49 1  
    52   30   50 1  
    53   30   51 1  
    54   30   52 1  
@<TRIPOS>SUBSTRUCTURE
     1 5RI         1

