### 
### Created by X-TOOL on Mon Sep 10 21:13:19 2018
### 

@<TRIPOS>MOLECULE
4c8r_ligand
   37    38     1     0     0
SMALL
GAST_HUCK


@<TRIPOS>ATOM
      1 CAK       -31.5050   31.0030  -24.0530 C.ar      1 6YT        -0.0316
      2 CAF       -30.9590   30.3780  -22.9720 C.ar      1 6YT        -0.0488
      3 CAE       -30.0190   31.0190  -22.2200 C.ar      1 6YT        -0.0410
      4 CAH       -29.6190   32.3030  -22.5560 C.ar      1 6YT         0.0028
      5 NAN       -30.1640   32.9270  -23.6400 N.ar      1 6YT        -0.2972
      6 CAU       -31.1000   32.2850  -24.3960 C.ar      1 6YT         0.0379
      7 CAL       -31.7110   32.9710  -25.5990 C.3       1 6YT         0.0431
      8 SAQ       -33.4050   33.3780  -25.2920 S.3       1 6YT        -0.1402
      9 CB        -33.1250   34.7150  -24.1560 C.3       1 6YT         0.0308
     10 CA        -34.0680   35.8740  -24.3840 C.3       1 6YT         0.1029
     11 C         -33.6950   36.5380  -25.6940 C.2       1 6YT         0.0609
     12 O         -34.5370   36.4580  -26.6290 O.co2     1 6YT        -0.5666
     13 OXT       -32.5720   37.1140  -25.7500 O.co2     1 6YT        -0.5666
     14 N         -35.4190   35.4290  -24.4270 N.am      1 6YT        -0.2697
     15 CAS       -36.0240   34.9640  -23.3160 C.2       1 6YT         0.2198
     16 OAB       -35.3830   34.5970  -22.1870 O.2       1 6YT        -0.3851
     17 CAV       -37.4020   34.8750  -23.3570 C.ar      1 6YT         0.1508
     18 NAO       -38.0480   33.9480  -22.5960 N.ar      1 6YT        -0.2870
     19 CAI       -39.4070   33.8650  -22.6300 C.ar      1 6YT         0.0055
     20 CAG       -40.1300   34.7300  -23.4320 C.ar      1 6YT        -0.0382
     21 CAJ       -39.4810   35.6640  -24.1890 C.ar      1 6YT        -0.0072
     22 CAT       -38.1180   35.7440  -24.1540 C.ar      1 6YT         0.1372
     23 OAD       -37.4200   36.6970  -24.9220 O.3       1 6YT        -0.3198
     24 H         -32.2579   30.4971  -24.6466 H         1 6YT         0.0651
     25 H         -31.2712   29.3734  -22.7104 H         1 6YT         0.0719
     26 H         -29.5844   30.5241  -21.3590 H         1 6YT         0.0652
     27 H         -28.8725   32.8118  -21.9569 H         1 6YT         0.0803
     28 H         -31.6528   32.2978  -26.4670 H         1 6YT         0.0568
     29 H         -31.1508   33.8934  -25.8121 H         1 6YT         0.0568
     30 H         -32.0916   35.0715  -24.2783 H         1 6YT         0.0419
     31 H         -33.2654   34.3423  -23.1307 H         1 6YT         0.0419
     32 H         -33.9580   36.5979  -23.5631 H         1 6YT         0.0734
     33 H         -35.9241   35.4616  -25.2894 H         1 6YT         0.1867
     34 H         -39.9211   33.1228  -22.0300 H         1 6YT         0.0748
     35 H         -41.2118   34.6667  -23.4598 H         1 6YT         0.0713
     36 H         -40.0478   36.3415  -24.8173 H         1 6YT         0.0676
     37 H         -36.4870   36.6029  -24.7698 H         1 6YT         0.2535
@<TRIPOS>BOND
     1    1    2 ar 
     2    1    6 ar 
     3    2    3 ar 
     4    3    4 ar 
     5    4    5 ar 
     6    5    6 ar 
     7    6    7 1  
     8    7    8 1  
     9    8    9 1  
    10    9   10 1  
    11   10   11 1  
    12   10   14 1  
    13   11   12 ar 
    14   11   13 ar 
    15   14   15 am 
    16   15   16 2  
    17   15   17 1  
    18   17   18 ar 
    19   17   22 ar 
    20   18   19 ar 
    21   19   20 ar 
    22   20   21 ar 
    23   21   22 ar 
    24   22   23 1  
    25    1   24 1  
    26    2   25 1  
    27    3   26 1  
    28    4   27 1  
    29    7   28 1  
    30    7   29 1  
    31    9   30 1  
    32    9   31 1  
    33   10   32 1  
    34   14   33 1  
    35   19   34 1  
    36   20   35 1  
    37   21   36 1  
    38   23   37 1  
@<TRIPOS>SUBSTRUCTURE
     1 6YT         1

