### 
### Created by X-TOOL on Mon Sep 10 21:13:13 2018
### 

@<TRIPOS>MOLECULE
4c94_ligand
   35    37     1     0     0
SMALL
GAST_HUCK


@<TRIPOS>ATOM
      1 O94       -38.2490  -22.6620   -1.1000 O.3       1 KXN        -0.3414
      2 C94       -39.5830  -22.3950   -1.1700 C.ar      1 KXN         0.1088
      3 C93       -40.2230  -23.2120   -2.0670 C.ar      1 KXN         0.1099
      4 O93       -39.3510  -24.0580   -2.6500 O.3       1 KXN        -0.3385
      5 C92       -41.5980  -23.1450   -2.2910 C.ar      1 KXN        -0.0372
      6 C95       -40.2690  -21.4040   -0.4430 C.ar      1 KXN        -0.0481
      7 C96       -41.6340  -21.3060   -0.6700 C.ar      1 KXN        -0.0772
      8 C91       -42.2540  -22.1880   -1.5800 C.ar      1 KXN        -0.0272
      9 C2        -43.5430  -22.0610   -1.9030 C.3       1 KXN         0.1326
     10 O1        -44.3850  -22.2980   -0.8230 O.3       1 KXN        -0.3107
     11 C3        -43.8480  -20.4550   -2.1980 C.3       1 KXN         0.0984
     12 O3        -43.0090  -19.7900   -3.1610 O.3       1 KXN        -0.3856
     13 C4        -45.1540  -20.2440   -2.7780 C.3       1 KXN         0.0023
     14 C10       -46.0460  -21.0650   -2.1040 C.ar      1 KXN         0.0061
     15 C9        -45.6960  -22.0640   -1.1710 C.ar      1 KXN         0.0794
     16 C8        -46.6890  -22.7930   -0.5620 C.ar      1 KXN        -0.0224
     17 C5        -47.3760  -20.8150   -2.4080 C.ar      1 KXN         0.0729
     18 O51       -47.6300  -19.8150   -3.3370 O.3       1 KXN        -0.3424
     19 C6        -48.3780  -21.5580   -1.8070 C.ar      1 KXN        -0.0228
     20 C7        -48.0250  -22.5510   -0.8960 C.ar      1 KXN         0.0640
     21 O71       -48.9970  -23.2980   -0.3090 O.3       1 KXN        -0.3427
     22 H1        -37.8557  -22.5312   -1.9548 H         1 KXN         0.2420
     23 H2        -38.9400  -24.5962   -1.9837 H         1 KXN         0.2442
     24 H3        -42.1073  -23.8074   -2.9816 H         1 KXN         0.0451
     25 H4        -39.7581  -20.7524    0.2567 H         1 KXN         0.0492
     26 H5        -42.2206  -20.5564   -0.1514 H         1 KXN         0.0437
     27 H6        -43.7885  -22.7040   -2.7610 H         1 KXN         0.0816
     28 H7        -43.7728  -19.9317   -1.2334 H         1 KXN         0.0659
     29 H8        -43.2794  -18.8830   -3.2421 H         1 KXN         0.2103
     30 H9        -45.1372  -20.5047   -3.8465 H         1 KXN         0.0387
     31 H10       -45.4511  -19.1913   -2.6620 H         1 KXN         0.0387
     32 H11       -46.4384  -23.5502    0.1721 H         1 KXN         0.0359
     33 H12       -48.5679  -19.7336   -3.4646 H         1 KXN         0.2451
     34 H13       -49.4195  -21.3701   -2.0414 H         1 KXN         0.0359
     35 H14       -49.4887  -23.7586   -0.9787 H         1 KXN         0.2455
@<TRIPOS>BOND
     1    1    2 1  
     2    2    3 ar 
     3    2    6 ar 
     4    3    4 1  
     5    3    5 ar 
     6    5    8 ar 
     7    6    7 ar 
     8    7    8 ar 
     9    8    9 1  
    10    9   10 1  
    11    9   11 1  
    12   10   15 1  
    13   11   12 1  
    14   11   13 1  
    15   13   14 1  
    16   14   15 ar 
    17   14   17 ar 
    18   15   16 ar 
    19   16   20 ar 
    20   17   18 1  
    21   17   19 ar 
    22   19   20 ar 
    23   20   21 1  
    24    1   22 1  
    25    4   23 1  
    26    5   24 1  
    27    6   25 1  
    28    7   26 1  
    29    9   27 1  
    30   11   28 1  
    31   12   29 1  
    32   13   30 1  
    33   13   31 1  
    34   16   32 1  
    35   18   33 1  
    36   19   34 1  
    37   21   35 1  
@<TRIPOS>SUBSTRUCTURE
     1 KXN         1

