### 
### Created by X-TOOL on Mon Sep 10 21:13:16 2018
### 

@<TRIPOS>MOLECULE
4c9w_ligand
   40    42     1     0     0
SMALL
GAST_HUCK


@<TRIPOS>ATOM
      1 CL        -17.6440  -12.3060   12.8260 Cl        1 VGH        -0.0808
      2 C13       -16.4780  -12.3450   11.5900 C.ar      1 VGH         0.0403
      3 C3        -16.7260  -11.5950   10.4390 C.ar      1 VGH        -0.0561
      4 C2        -15.7950  -11.5880    9.4090 C.ar      1 VGH        -0.0339
      5 C12       -14.6240  -12.3370    9.5450 C.ar      1 VGH         0.1404
      6 F         -13.6770  -12.3850    8.5780 F         1 VGH        -0.1842
      7 C17       -15.3100  -13.1140   11.7150 C.ar      1 VGH         0.0160
      8 C18       -14.3910  -13.0910   10.6760 C.ar      1 VGH         0.0774
      9 CL2       -12.9470  -13.9520   10.7290 Cl        1 VGH        -0.0787
     10 C21       -14.9820  -13.8760   12.8370 C.3       1 VGH         0.1115
     11 C1        -16.0710  -13.9440   13.8860 C.3       1 VGH        -0.0242
     12 O27       -14.5790  -15.2770   12.5440 O.3       1 VGH        -0.3010
     13 C15       -15.4400  -16.2030   11.9900 C.ar      1 VGH         0.1362
     14 C4        -16.7530  -15.9300   11.5520 C.ar      1 VGH        -0.0252
     15 C19       -14.9260  -17.4980   11.8370 C.ar      1 VGH         0.1368
     16 N22       -13.6710  -17.7560   12.2550 N.pl3     1 VGH        -0.3267
     17 N23       -15.6920  -18.4640   11.3070 N.ar      1 VGH        -0.3009
     18 C5        -17.0000  -18.2100   10.8620 C.ar      1 VGH        -0.0161
     19 C14       -17.5540  -16.9310   10.9910 C.ar      1 VGH        -0.0311
     20 C16       -18.8170  -16.6820   10.5680 C.2       1 VGH        -0.0030
     21 C6        -19.8190  -17.5490   10.5530 C.2       1 VGH         0.0048
     22 C7        -19.2990  -15.5370   10.0750 C.2       1 VGH         0.0615
     23 N26       -20.5910  -15.7440    9.7750 N.pl3     1 VGH        -0.2070
     24 N24       -20.8870  -16.9090   10.0610 N.2       1 VGH        -0.2144
     25 C20       -21.5690  -14.7780    9.1890 C.3       1 VGH         0.0610
     26 H         -17.6411  -11.0208   10.3498 H         1 VGH         0.0597
     27 H         -15.9747  -11.0086    8.5107 H         1 VGH         0.0547
     28 H         -14.1158  -13.3765   13.2954 H         1 VGH         0.0813
     29 H         -15.7291  -14.5611   14.7300 H         1 VGH         0.0281
     30 H         -16.9752  -14.3913   13.4474 H         1 VGH         0.0281
     31 H         -16.3001  -12.9291   14.2431 H         1 VGH         0.0281
     32 H         -17.1489  -14.9258   11.6519 H         1 VGH         0.0567
     33 H         -13.2776  -18.7021   12.1502 H         1 VGH         0.1727
     34 H         -13.1053  -17.0071   12.6793 H         1 VGH         0.1727
     35 H         -17.5829  -19.0081   10.4167 H         1 VGH         0.0640
     36 H         -19.7809  -18.5872   10.8796 H         1 VGH         0.0670
     37 H         -18.7461  -14.6083    9.9414 H         1 VGH         0.1021
     38 H         -22.5450  -15.2712    9.0700 H         1 VGH         0.0607
     39 H         -21.2069  -14.4399    8.2069 H         1 VGH         0.0607
     40 H         -21.6751  -13.9119    9.8587 H         1 VGH         0.0607
@<TRIPOS>BOND
     1    1    2 1  
     2    2    3 ar 
     3    2    7 ar 
     4    3    4 ar 
     5    4    5 ar 
     6    5    6 1  
     7    5    8 ar 
     8    7    8 ar 
     9    7   10 1  
    10    8    9 1  
    11   10   11 1  
    12   10   12 1  
    13   12   13 1  
    14   13   14 ar 
    15   13   15 ar 
    16   14   19 ar 
    17   15   16 1  
    18   15   17 ar 
    19   17   18 ar 
    20   18   19 ar 
    21   19   20 1  
    22   20   21 1  
    23   20   22 2  
    24   21   24 2  
    25   22   23 1  
    26   23   24 1  
    27   23   25 1  
    28    3   26 1  
    29    4   27 1  
    30   10   28 1  
    31   11   29 1  
    32   11   30 1  
    33   11   31 1  
    34   14   32 1  
    35   16   33 1  
    36   16   34 1  
    37   18   35 1  
    38   21   36 1  
    39   22   37 1  
    40   25   38 1  
    41   25   39 1  
    42   25   40 1  
@<TRIPOS>SUBSTRUCTURE
     1 VGH         1

