### 
### Created by X-TOOL on Mon Sep 10 21:13:16 2018
### 

@<TRIPOS>MOLECULE
4c9x_ligand
   53    56     1     0     0
SMALL
GAST_HUCK


@<TRIPOS>ATOM
      1 CL2       -12.8480  -13.9590   10.5830 Cl        1 VHS        -0.0787
      2 C18       -14.3320  -13.1490   10.5750 C.ar      1 VHS         0.0774
      3 C12       -14.6490  -12.4340    9.4210 C.ar      1 VHS         0.1404
      4 F         -13.8060  -12.4370    8.4070 F         1 VHS        -0.1842
      5 C2        -15.8360  -11.7260    9.3230 C.ar      1 VHS        -0.0339
      6 C3        -16.7160  -11.7280   10.3850 C.ar      1 VHS        -0.0561
      7 C13       -16.4030  -12.4310   11.5430 C.ar      1 VHS         0.0403
      8 CL        -17.5270  -12.3530   12.7580 Cl        1 VHS        -0.0808
      9 C17       -15.2060  -13.1680   11.6720 C.ar      1 VHS         0.0160
     10 C21       -14.9170  -13.8990   12.8830 C.3       1 VHS         0.1115
     11 C1        -13.8460  -13.2030   13.7290 C.3       1 VHS        -0.0242
     12 O27       -14.4390  -15.2460   12.6430 O.3       1 VHS        -0.3010
     13 C15       -15.2550  -16.1620   12.0530 C.ar      1 VHS         0.1362
     14 C4        -16.5650  -15.9320   11.6040 C.ar      1 VHS        -0.0252
     15 C19       -14.6820  -17.4210   11.9070 C.ar      1 VHS         0.1368
     16 N22       -13.4290  -17.6220   12.3560 N.pl3     1 VHS        -0.3267
     17 N23       -15.3980  -18.3870   11.3500 N.ar      1 VHS        -0.3009
     18 C5        -16.7100  -18.1870   10.8800 C.ar      1 VHS        -0.0161
     19 C14       -17.3290  -16.9370   11.0090 C.ar      1 VHS        -0.0311
     20 C16       -18.6050  -16.6900   10.5850 C.2       1 VHS        -0.0030
     21 C7        -19.1080  -15.5450   10.1110 C.2       1 VHS         0.0622
     22 C6        -19.6110  -17.5560   10.5800 C.2       1 VHS         0.0048
     23 N24       -20.6920  -16.9280   10.1060 N.2       1 VHS        -0.2139
     24 N26       -20.4060  -15.7590    9.8280 N.pl3     1 VHS        -0.2005
     25 C20       -21.4570  -14.8430    9.2670 C.3       1 VHS         0.0923
     26 C8        -21.8350  -15.2970    7.9270 C.3       1 VHS         0.0204
     27 C10       -22.9780  -14.4100    7.5050 C.3       1 VHS        -0.0306
     28 N25       -22.5050  -13.0360    7.3110 N.4       1 VHS         0.2271
     29 C11       -22.0600  -12.5050    8.6080 C.3       1 VHS        -0.0306
     30 C9        -20.9730  -13.4010    9.2040 C.3       1 VHS         0.0204
     31 H         -16.0710  -11.1752    8.4194 H         1 VHS         0.0547
     32 H         -17.6502  -11.1823   10.3170 H         1 VHS         0.0597
     33 H         -15.8486  -13.9565   13.4651 H         1 VHS         0.0813
     34 H         -13.6575  -13.7919   14.6388 H         1 VHS         0.0281
     35 H         -14.1953  -12.1981   14.0085 H         1 VHS         0.0281
     36 H         -12.9162  -13.1194   13.1472 H         1 VHS         0.0281
     37 H         -16.9960  -14.9445   11.7230 H         1 VHS         0.0567
     38 H         -12.9886  -18.5477   12.2564 H         1 VHS         0.1727
     39 H         -12.9107  -16.8501   12.7991 H         1 VHS         0.1727
     40 H         -17.2453  -19.0067   10.4147 H         1 VHS         0.0640
     41 H         -18.5659  -14.6099    9.9783 H         1 VHS         0.1021
     42 H         -19.5641  -18.5944   10.9046 H         1 VHS         0.0670
     43 H         -22.3412  -14.8850    9.9200 H         1 VHS         0.0683
     44 H         -22.1554  -16.3489    7.9543 H         1 VHS         0.0349
     45 H         -20.9889  -15.1893    7.2324 H         1 VHS         0.0349
     46 H         -23.7539  -14.4209    8.2846 H         1 VHS         0.0815
     47 H         -23.4008  -14.7857    6.5616 H         1 VHS         0.0815
     48 H         -23.2545  -12.4667    6.9502 H         1 VHS         0.2013
     49 H         -21.7355  -13.0306    6.6599 H         1 VHS         0.2013
     50 H         -22.9164  -12.4661    9.2973 H         1 VHS         0.0815
     51 H         -21.6571  -11.4913    8.4661 H         1 VHS         0.0815
     52 H         -20.0723  -13.3471    8.5749 H         1 VHS         0.0349
     53 H         -20.7323  -13.0537   10.2196 H         1 VHS         0.0349
@<TRIPOS>BOND
     1    1    2 1  
     2    2    3 ar 
     3    2    9 ar 
     4    3    4 1  
     5    3    5 ar 
     6    5    6 ar 
     7    6    7 ar 
     8    7    8 1  
     9    7    9 ar 
    10    9   10 1  
    11   10   11 1  
    12   10   12 1  
    13   12   13 1  
    14   13   14 ar 
    15   13   15 ar 
    16   14   19 ar 
    17   15   16 1  
    18   15   17 ar 
    19   17   18 ar 
    20   18   19 ar 
    21   19   20 1  
    22   20   21 2  
    23   20   22 1  
    24   21   24 1  
    25   22   23 2  
    26   23   24 1  
    27   24   25 1  
    28   25   26 1  
    29   25   30 1  
    30   26   27 1  
    31   27   28 1  
    32   28   29 1  
    33   29   30 1  
    34    5   31 1  
    35    6   32 1  
    36   10   33 1  
    37   11   34 1  
    38   11   35 1  
    39   11   36 1  
    40   14   37 1  
    41   16   38 1  
    42   16   39 1  
    43   18   40 1  
    44   21   41 1  
    45   22   42 1  
    46   25   43 1  
    47   26   44 1  
    48   26   45 1  
    49   27   46 1  
    50   27   47 1  
    51   28   48 1  
    52   28   49 1  
    53   29   50 1  
    54   29   51 1  
    55   30   52 1  
    56   30   53 1  
@<TRIPOS>SUBSTRUCTURE
     1 VHS         1

