### 
### Created by X-TOOL on Mon Sep 10 21:13:18 2018
### 

@<TRIPOS>MOLECULE
4ca4_ligand
   45    45     1     0     0
SMALL
GAST_HUCK


@<TRIPOS>ATOM
      1 O6          1.2180  -33.9890   34.8000 O.3       1 KGM        -0.3924
      2 C6          1.6130  -35.0000   35.7310 C.3       1 KGM         0.0730
      3 C5          0.9090  -36.3220   35.4030 C.3       1 KGM         0.1130
      4 C10         0.0890  -39.8150   40.5130 C.3       1 KGM        -0.0530
      5 O5         -0.5440  -36.1970   35.4500 O.3       1 KGM        -0.3405
      6 C4          1.3010  -36.8660   34.0360 C.3       1 KGM         0.1119
      7 O4          2.7400  -36.9700   33.9580 O.3       1 KGM        -0.3865
      8 C3          0.6500  -38.2260   33.8300 C.3       1 KGM         0.1141
      9 O3          1.0010  -38.7290   32.5290 O.3       1 KGM        -0.3864
     10 C2         -0.8660  -38.0530   33.9120 C.3       1 KGM         0.1341
     11 O2         -1.2920  -37.1400   32.8850 O.3       1 KGM        -0.3841
     12 C1         -1.2440  -37.4710   35.2670 C.3       1 KGM         0.1879
     13 O1         -0.8320  -38.3670   36.3560 O.3       1 KGM        -0.3487
     14 C7         -1.3190  -37.7340   37.5710 C.3       1 KGM         0.0508
     15 C8         -0.5910  -38.1330   38.8700 C.3       1 KGM        -0.0294
     16 C9         -0.6880  -39.6230   39.2100 C.3       1 KGM        -0.0510
     17 C13         0.9820  -42.7750   42.8050 C.3       1 KGM        -0.0653
     18 C12         0.9160  -41.3440   42.2630 C.3       1 KGM        -0.0559
     19 C11         0.0920  -41.2720   40.9690 C.3       1 KGM        -0.0533
     20 H1          1.6594  -33.1749   35.0120 H         1 KGM         0.2095
     21 H2          1.3391  -34.6847   36.7486 H         1 KGM         0.0584
     22 H3          2.7020  -35.1434   35.6722 H         1 KGM         0.0584
     23 H4          1.2153  -37.0552   36.1636 H         1 KGM         0.0647
     24 H5         -0.3750  -39.1987   41.2971 H         1 KGM         0.0265
     25 H6          1.1282  -39.4896   40.3578 H         1 KGM         0.0265
     26 H7          0.9479  -36.1769   33.2547 H         1 KGM         0.0647
     27 H8          3.1256  -36.1106   34.0814 H         1 KGM         0.2100
     28 H9          0.9910  -38.9276   34.6056 H         1 KGM         0.0648
     29 H10         0.5952  -39.5781   32.3989 H         1 KGM         0.2100
     30 H11        -1.3581  -39.0271   33.7749 H         1 KGM         0.0671
     31 H12        -1.0553  -37.4896   32.0340 H         1 KGM         0.2101
     32 H13        -2.3319  -37.3138   35.3076 H         1 KGM         0.0937
     33 H14        -2.3816  -37.9944   37.6854 H         1 KGM         0.0561
     34 H15        -1.2194  -36.6454   37.4484 H         1 KGM         0.0561
     35 H16        -1.0285  -37.5601   39.7009 H         1 KGM         0.0287
     36 H17         0.4722  -37.8716   38.7642 H         1 KGM         0.0287
     37 H18        -1.7396  -39.9152   39.3466 H         1 KGM         0.0266
     38 H19        -0.2409  -40.2272   38.4069 H         1 KGM         0.0266
     39 H20         1.5780  -42.7898   43.7294 H         1 KGM         0.0230
     40 H21         1.4512  -43.4296   42.0558 H         1 KGM         0.0230
     41 H22        -0.0357  -43.1333   43.0191 H         1 KGM         0.0230
     42 H23         1.9375  -40.9920   42.0567 H         1 KGM         0.0263
     43 H24         0.4506  -40.6957   43.0200 H         1 KGM         0.0263
     44 H25         0.5489  -41.9074   40.1960 H         1 KGM         0.0265
     45 H26        -0.9377  -41.6090   41.1593 H         1 KGM         0.0265
@<TRIPOS>BOND
     1    2    1 1  
     2    3    2 1  
     3    5    3 1  
     4    3    6 1  
     5    4   16 1  
     6   19    4 1  
     7   12    5 1  
     8    6    7 1  
     9    8    6 1  
    10    8    9 1  
    11   10    8 1  
    12   10   11 1  
    13   12   10 1  
    14   13   12 1  
    15   14   13 1  
    16   15   14 1  
    17   16   15 1  
    18   18   17 1  
    19   18   19 1  
    20    1   20 1  
    21    2   21 1  
    22    2   22 1  
    23    3   23 1  
    24    4   24 1  
    25    4   25 1  
    26    6   26 1  
    27    7   27 1  
    28    8   28 1  
    29    9   29 1  
    30   10   30 1  
    31   11   31 1  
    32   12   32 1  
    33   14   33 1  
    34   14   34 1  
    35   15   35 1  
    36   15   36 1  
    37   16   37 1  
    38   16   38 1  
    39   17   39 1  
    40   17   40 1  
    41   17   41 1  
    42   18   42 1  
    43   18   43 1  
    44   19   44 1  
    45   19   45 1  
@<TRIPOS>SUBSTRUCTURE
     1 KGM         1

