### 
### Created by X-TOOL on Mon Sep 10 21:13:19 2018
### 

@<TRIPOS>MOLECULE
4cae_ligand
   54    58     1     0     0
SMALL
GAST_HUCK


@<TRIPOS>ATOM
      1 C          21.6580   49.3420   63.5070 C.3       1 3F3         0.0592
      2 O          22.9450   49.5620   64.1260 O.3       1 3F3        -0.3229
      3 C1         24.0720   48.8350   63.8240 C.ar      1 3F3         0.0846
      4 C22        25.2260   49.1650   64.5210 C.ar      1 3F3        -0.0397
      5 C21        26.4110   48.5210   64.3300 C.ar      1 3F3        -0.0766
      6 C20        26.5280   47.4810   63.3850 C.ar      1 3F3        -0.0685
      7 C3         25.3480   47.1050   62.6830 C.ar      1 3F3        -0.0319
      8 C2         24.1090   47.7870   62.8870 C.ar      1 3F3        -0.0294
      9 C4         25.4940   45.9780   61.6870 C.3       1 3F3         0.0692
     10 C5         25.3870   44.6370   62.4060 C.2       1 3F3         0.2042
     11 O1         24.2770   43.9200   62.7040 O.3       1 3F3        -0.1982
     12 C6         24.7090   42.8340   63.3730 C.2       1 3F3         0.2074
     13 N1         25.9760   42.8030   63.6030 N.2       1 3F3        -0.2655
     14 N          26.4150   43.9810   62.9700 N.2       1 3F3        -0.2569
     15 C7         23.7230   41.8390   63.8040 C.2       1 3F3         0.1157
     16 S          22.1840   41.8120   63.0780 S.3       1 3F3        -0.0440
     17 C19        21.6890   40.5500   64.0910 C.ar      1 3F3         0.0394
     18 C18        20.4610   39.9780   64.0550 C.ar      1 3F3        -0.0474
     19 C17        20.1940   38.9090   64.9300 C.ar      1 3F3        -0.0678
     20 C16        21.1390   38.4500   65.8270 C.ar      1 3F3        -0.0684
     21 C15        22.4550   38.9430   65.9140 C.ar      1 3F3        -0.0581
     22 C14        22.7370   39.9960   65.0390 C.ar      1 3F3         0.0245
     23 C8         23.9100   40.8310   64.8600 C.2       1 3F3         0.1172
     24 O2         25.0650   40.6150   65.5830 O.3       1 3F3        -0.3158
     25 C9         24.8110   40.5490   67.0110 C.3       1 3F3         0.0906
     26 C13        25.6670   39.4340   67.5940 C.3       1 3F3         0.0184
     27 C12        27.1540   39.7090   67.3360 C.3       1 3F3        -0.0309
     28 N2         27.5070   41.0000   67.9340 N.4       1 3F3         0.2271
     29 C11        26.6850   42.1320   67.4790 C.3       1 3F3        -0.0309
     30 C10        25.1740   41.9330   67.6020 C.3       1 3F3         0.0184
     31 H          20.9261   50.0513   63.9208 H         1 3F3         0.0577
     32 H          21.3255   48.3130   63.7081 H         1 3F3         0.0577
     33 H          21.7426   49.4944   62.4209 H         1 3F3         0.0577
     34 H          25.1825   49.9684   65.2474 H         1 3F3         0.0489
     35 H          27.2770   48.8124   64.9132 H         1 3F3         0.0573
     36 H          27.4761   46.9888   63.2009 H         1 3F3         0.0470
     37 H          23.2207   47.5039   62.3339 H         1 3F3         0.0484
     38 H          26.4746   46.0509   61.1940 H         1 3F3         0.0683
     39 H          24.6975   46.0522   60.9320 H         1 3F3         0.0683
     40 H          19.7023   40.3356   63.3683 H         1 3F3         0.0574
     41 H          19.2207   38.4328   64.8994 H         1 3F3         0.0592
     42 H          20.8484   37.6586   66.5084 H         1 3F3         0.0561
     43 H          23.1887   38.5394   66.6024 H         1 3F3         0.0604
     44 H          23.7496   40.3328   67.2024 H         1 3F3         0.0655
     45 H          25.3883   38.4796   67.1235 H         1 3F3         0.0346
     46 H          25.4928   39.3729   68.6784 H         1 3F3         0.0346
     47 H          27.3416   39.7400   66.2526 H         1 3F3         0.0815
     48 H          27.7615   38.9127   67.7907 H         1 3F3         0.0815
     49 H          28.4688   41.1989   67.7071 H         1 3F3         0.2013
     50 H          27.4070   40.9210   68.9339 H         1 3F3         0.2013
     51 H          26.9183   42.3175   66.4202 H         1 3F3         0.0815
     52 H          26.9613   43.0140   68.0754 H         1 3F3         0.0815
     53 H          24.8795   41.9730   68.6611 H         1 3F3         0.0346
     54 H          24.6492   42.7234   67.0454 H         1 3F3         0.0346
@<TRIPOS>BOND
     1    1    2 1  
     2    2    3 1  
     3    3    4 ar 
     4    3    8 ar 
     5    4    5 ar 
     6    5    6 ar 
     7    6    7 ar 
     8    7    8 ar 
     9    7    9 1  
    10    9   10 1  
    11   10   11 1  
    12   10   14 2  
    13   11   12 1  
    14   12   13 2  
    15   12   15 1  
    16   13   14 1  
    17   15   16 1  
    18   15   23 2  
    19   16   17 1  
    20   17   18 ar 
    21   17   22 ar 
    22   18   19 ar 
    23   19   20 ar 
    24   20   21 ar 
    25   21   22 ar 
    26   22   23 1  
    27   23   24 1  
    28   24   25 1  
    29   25   26 1  
    30   25   30 1  
    31   26   27 1  
    32   27   28 1  
    33   28   29 1  
    34   29   30 1  
    35    1   31 1  
    36    1   32 1  
    37    1   33 1  
    38    4   34 1  
    39    5   35 1  
    40    6   36 1  
    41    8   37 1  
    42    9   38 1  
    43    9   39 1  
    44   18   40 1  
    45   19   41 1  
    46   20   42 1  
    47   21   43 1  
    48   25   44 1  
    49   26   45 1  
    50   26   46 1  
    51   27   47 1  
    52   27   48 1  
    53   28   49 1  
    54   28   50 1  
    55   29   51 1  
    56   29   52 1  
    57   30   53 1  
    58   30   54 1  
@<TRIPOS>SUBSTRUCTURE
     1 3F3         1

