### 
### Created by X-TOOL on Mon Sep 10 21:13:17 2018
### 

@<TRIPOS>MOLECULE
4caf_ligand
   53    57     1     0     0
SMALL
GAST_HUCK


@<TRIPOS>ATOM
      1 C          25.9950   48.5210   64.0860 C.3       1 370        -0.0316
      2 N          26.3550   44.0400   63.0270 N.2       1 370        -0.2590
      3 O          24.0900   43.8710   62.8470 O.3       1 370        -0.1997
      4 S          22.1310   41.7120   63.1080 S.3       1 370        -0.0441
      5 C1         24.5780   48.1230   63.7180 C.2       1 370        -0.0025
      6 N1         25.9540   42.7850   63.5020 N.2       1 370        -0.2663
      7 O1         25.0100   40.5200   65.4240 O.3       1 370        -0.3159
      8 C2         24.2200   46.9760   62.8310 C.2       1 370        -0.0115
      9 N2         27.5190   40.8930   67.7390 N.4       1 370         0.2271
     10 C3         25.2250   46.0830   62.1280 C.3       1 370         0.0526
     11 N3         22.3090   48.0160   63.5620 N.pl3     1 370        -0.2358
     12 C4         25.2400   44.6800   62.6470 C.2       1 370         0.1959
     13 N4         23.4210   48.6770   64.1330 N.2       1 370        -0.2484
     14 C5         24.6460   42.7430   63.2890 C.2       1 370         0.2069
     15 C6         23.7060   41.6990   63.6710 C.2       1 370         0.1155
     16 C7         23.8460   40.6930   64.7490 C.2       1 370         0.1170
     17 C8         24.8390   40.5370   66.8670 C.3       1 370         0.0906
     18 C9         25.2640   41.9000   67.4770 C.3       1 370         0.0184
     19 C10        26.7920   42.1040   67.3080 C.3       1 370        -0.0309
     20 C11        27.1300   39.5880   67.2280 C.3       1 370        -0.0309
     21 C12        25.6420   39.3660   67.4460 C.3       1 370         0.0184
     22 C13        22.5990   39.9070   64.9890 C.ar      1 370         0.0244
     23 C14        22.3140   38.7930   65.8670 C.ar      1 370        -0.0581
     24 C15        21.0040   38.2690   65.8290 C.ar      1 370        -0.0684
     25 C16        19.9970   38.7880   64.9810 C.ar      1 370        -0.0679
     26 C17        20.2540   39.8730   64.0460 C.ar      1 370        -0.0475
     27 C18        21.5660   40.4000   64.0210 C.ar      1 370         0.0393
     28 C19        22.7350   47.0010   62.7960 C.2       1 370         0.0581
     29 C20        21.7970   46.0900   62.0750 C.3       1 370        -0.0080
     30 H          25.9689   49.3976   64.7500 H         1 370         0.0367
     31 H          26.5550   48.7695   63.1725 H         1 370         0.0367
     32 H          26.4884   47.6845   64.6025 H         1 370         0.0367
     33 H          27.4386   40.8477   68.7428 H         1 370         0.2013
     34 H          28.4850   41.0282   67.4850 H         1 370         0.2013
     35 H          26.2279   46.5146   62.2615 H         1 370         0.0586
     36 H          24.9772   46.0555   61.0566 H         1 370         0.0586
     37 H          21.3232   48.2744   63.7115 H         1 370         0.2450
     38 H          23.7750   40.3813   67.0985 H         1 370         0.0655
     39 H          25.0109   41.9147   68.5474 H         1 370         0.0346
     40 H          24.7291   42.7119   66.9625 H         1 370         0.0346
     41 H          27.0168   42.3056   66.2503 H         1 370         0.0815
     42 H          27.1144   42.9587   67.9208 H         1 370         0.0815
     43 H          27.6960   38.8066   67.7562 H         1 370         0.0815
     44 H          27.3519   39.5374   66.1518 H         1 370         0.0815
     45 H          25.3371   38.4346   66.9465 H         1 370         0.0346
     46 H          25.4412   39.2863   68.5246 H         1 370         0.0346
     47 H          23.0713   38.3800   66.5235 H         1 370         0.0604
     48 H          20.7592   37.4345   66.4761 H         1 370         0.0561
     49 H          19.0009   38.3631   65.0295 H         1 370         0.0591
     50 H          19.4754   40.2596   63.3983 H         1 370         0.0574
     51 H          22.3733   45.3390   61.5148 H         1 370         0.0415
     52 H          21.1814   46.6757   61.3764 H         1 370         0.0415
     53 H          21.1453   45.5842   62.8026 H         1 370         0.0415
@<TRIPOS>BOND
     1    5    1 1  
     2    6    2 1  
     3    2   12 2  
     4    3   12 1  
     5   14    3 1  
     6   15    4 1  
     7    4   27 1  
     8    8    5 1  
     9    5   13 2  
    10   14    6 2  
    11    7   16 1  
    12   17    7 1  
    13   10    8 1  
    14    8   28 2  
    15   19    9 1  
    16    9   20 1  
    17   12   10 1  
    18   11   13 1  
    19   28   11 1  
    20   15   14 1  
    21   16   15 2  
    22   16   22 1  
    23   18   17 1  
    24   17   21 1  
    25   18   19 1  
    26   20   21 1  
    27   22   23 ar 
    28   22   27 ar 
    29   23   24 ar 
    30   24   25 ar 
    31   25   26 ar 
    32   26   27 ar 
    33   28   29 1  
    34    1   30 1  
    35    1   31 1  
    36    1   32 1  
    37    9   33 1  
    38    9   34 1  
    39   10   35 1  
    40   10   36 1  
    41   11   37 1  
    42   17   38 1  
    43   18   39 1  
    44   18   40 1  
    45   19   41 1  
    46   19   42 1  
    47   20   43 1  
    48   20   44 1  
    49   21   45 1  
    50   21   46 1  
    51   23   47 1  
    52   24   48 1  
    53   25   49 1  
    54   26   50 1  
    55   29   51 1  
    56   29   52 1  
    57   29   53 1  
@<TRIPOS>SUBSTRUCTURE
     1 370         1

