### 
### Created by X-TOOL on Mon Sep 10 21:13:15 2018
### 

@<TRIPOS>MOLECULE
4cbt_ligand
   42    45     1     0     0
SMALL
GAST_HUCK


@<TRIPOS>ATOM
      1 F26        -0.1740    3.8830  133.6610 F         1 9F4        -0.1683
      2 C23         0.9760    4.1340  134.2920 C.ar      1 9F4         0.1841
      3 C22         2.1880    3.9940  133.6660 C.ar      1 9F4         0.0607
      4 N21         3.3650    4.2410  134.2740 N.ar      1 9F4        -0.2631
      5 C24         1.0060    4.5450  135.6010 C.ar      1 9F4         0.0607
      6 N25         2.1520    4.7990  136.2640 N.ar      1 9F4        -0.2631
      7 C20         3.2980    4.6350  135.5660 C.ar      1 9F4         0.1197
      8 C12         4.5560    4.8970  136.2690 C.ar      1 9F4         0.0129
      9 C11         5.6510    5.4640  135.6090 C.ar      1 9F4        -0.0532
     10 C10         6.8350    5.7390  136.2920 C.ar      1 9F4        -0.0550
     11 C13         4.7010    4.5940  137.6310 C.ar      1 9F4        -0.0532
     12 C14         5.8980    4.8520  138.3060 C.ar      1 9F4        -0.0550
     13 C9          6.9890    5.4420  137.6530 C.ar      1 9F4        -0.0310
     14 C8          8.3090    5.7330  138.3050 C.3       1 9F4         0.0313
     15 C15         8.4950    6.9660  139.1410 C.3       1 9F4         0.0800
     16 C16         9.7130    7.7790  139.0540 C.2       1 9F4         0.2068
     17 N18         9.6540    8.9390  139.7730 N.am      1 9F4        -0.1637
     18 O19        10.8020    9.7280  139.8200 O.3       1 9F4        -0.2717
     19 O17        10.6830    7.4640  138.3660 O.2       1 9F4        -0.3963
     20 C7          8.5430    5.6120  139.8040 C.3       1 9F4         0.0301
     21 C6          9.7970    4.8520  140.1750 C.ar      1 9F4        -0.0348
     22 C1         10.7380    5.3220  141.0970 C.ar      1 9F4        -0.0597
     23 C5         10.0360    3.5880  139.5980 C.ar      1 9F4        -0.0597
     24 C4         11.1830    2.8530  139.8760 C.ar      1 9F4        -0.0685
     25 C3         12.1140    3.3520  140.7720 C.ar      1 9F4        -0.0687
     26 C2         11.8830    4.5730  141.3960 C.ar      1 9F4        -0.0685
     27 H1          2.1999    3.6689  132.6320 H         1 9F4         0.0923
     28 H2          0.0658    4.6711  136.1255 H         1 9F4         0.0923
     29 H3          5.5782    5.6928  134.5519 H         1 9F4         0.0638
     30 H4          7.6592    6.1951  135.7555 H         1 9F4         0.0569
     31 H5          3.8705    4.1521  138.1696 H         1 9F4         0.0638
     32 H6          5.9839    4.5907  139.3545 H         1 9F4         0.0569
     33 H7          9.1095    5.4188  137.6191 H         1 9F4         0.0526
     34 H8          7.6351    7.6291  139.3166 H         1 9F4         0.0593
     35 H9          8.8176    9.2121  140.2483 H         1 9F4         0.2216
     36 H10        11.0407    9.9906  138.9389 H         1 9F4         0.2490
     37 H11         7.7344    5.3444  140.5001 H         1 9F4         0.0518
     38 H12        10.5793    6.2766  141.5855 H         1 9F4         0.0557
     39 H13         9.3016    3.1758  138.9154 H         1 9F4         0.0557
     40 H14        11.3476    1.8957  139.3947 H         1 9F4         0.0599
     41 H15        13.0181    2.7935  140.9857 H         1 9F4         0.0559
     42 H16        12.5960    4.9487  142.1209 H         1 9F4         0.0599
@<TRIPOS>BOND
     1    1    2 1  
     2    2    3 ar 
     3    2    5 ar 
     4    3    4 ar 
     5    4    7 ar 
     6    5    6 ar 
     7    6    7 ar 
     8    7    8 1  
     9    8    9 ar 
    10    8   11 ar 
    11    9   10 ar 
    12   10   13 ar 
    13   11   12 ar 
    14   12   13 ar 
    15   13   14 1  
    16   14   15 1  
    17   14   20 1  
    18   15   16 1  
    19   15   20 1  
    20   16   17 am 
    21   16   19 2  
    22   17   18 1  
    23   20   21 1  
    24   21   22 ar 
    25   21   23 ar 
    26   22   26 ar 
    27   23   24 ar 
    28   24   25 ar 
    29   25   26 ar 
    30    3   27 1  
    31    5   28 1  
    32    9   29 1  
    33   10   30 1  
    34   11   31 1  
    35   12   32 1  
    36   14   33 1  
    37   15   34 1  
    38   17   35 1  
    39   18   36 1  
    40   20   37 1  
    41   22   38 1  
    42   23   39 1  
    43   24   40 1  
    44   25   41 1  
    45   26   42 1  
@<TRIPOS>SUBSTRUCTURE
     1 9F4         1

