### 
### Created by X-TOOL on Mon Sep 10 21:13:15 2018
### 

@<TRIPOS>MOLECULE
4cby_ligand
   40    43     1     0     0
SMALL
GAST_HUCK


@<TRIPOS>ATOM
      1 C1         23.7810    1.4040   34.7310 C.2       1 KEE         0.2067
      2 C2         24.9910    0.6710   34.1610 C.3       1 KEE         0.0793
      3 C3         26.3690    1.3150   33.9040 C.3       1 KEE         0.0291
      4 C4         26.1730    0.3580   35.0850 C.3       1 KEE         0.0294
      5 C5         26.9950    0.8340   32.6300 C.ar      1 KEE        -0.0357
      6 C6         26.9280    1.7140   31.5530 C.ar      1 KEE        -0.0603
      7 C7         27.4640    1.3910   30.3160 C.ar      1 KEE        -0.0596
      8 C8         28.0920    0.1720   30.1330 C.ar      1 KEE         0.0070
      9 C9         28.1590   -0.7360   31.1940 C.ar      1 KEE        -0.0596
     10 C10        27.6190   -0.4060   32.4460 C.ar      1 KEE        -0.0603
     11 C11        26.3780    0.9920   36.4030 C.ar      1 KEE        -0.0349
     12 C12        25.5600    0.6420   37.4650 C.ar      1 KEE        -0.0597
     13 C13        25.7900    1.2020   38.7250 C.ar      1 KEE        -0.0685
     14 C14        26.8450    2.0980   38.9230 C.ar      1 KEE        -0.0687
     15 C15        27.6800    2.4210   37.8480 C.ar      1 KEE        -0.0685
     16 C16        27.4500    1.8580   36.5950 C.ar      1 KEE        -0.0597
     17 C17        28.6240   -0.1070   28.7680 C.2       1 KEE         0.1383
     18 O18        28.5450   -1.2990   28.0900 O.3       1 KEE        -0.2297
     19 C19        29.1250   -1.1150   26.8450 C.2       1 KEE         0.1629
     20 N20        29.5420    0.1730   26.7630 N.2       1 KEE        -0.3050
     21 C21        29.2390    0.8090   27.9200 C.2       1 KEE         0.0059
     22 O22        23.7300    2.5730   35.1240 O.2       1 KEE        -0.3963
     23 N23        22.7150    0.5990   34.7040 N.am      1 KEE        -0.1637
     24 O24        21.4410    1.0290   35.0590 O.3       1 KEE        -0.2717
     25 H1         24.6319   -0.0885   33.4510 H         1 KEE         0.0591
     26 H2         26.5758    2.3811   34.0787 H         1 KEE         0.0517
     27 H3         26.5896   -0.6600   35.0873 H         1 KEE         0.0517
     28 H4         26.4448    2.6753   31.6851 H         1 KEE         0.0556
     29 H5         27.3911    2.0928   29.4931 H         1 KEE         0.0592
     30 H6         28.6311   -1.7009   31.0483 H         1 KEE         0.0592
     31 H7         27.6846   -1.1089   33.2686 H         1 KEE         0.0556
     32 H8         24.7476   -0.0609   37.3199 H         1 KEE         0.0557
     33 H9         25.1449    0.9394   39.5557 H         1 KEE         0.0599
     34 H10        27.0141    2.5378   39.8992 H         1 KEE         0.0559
     35 H11        28.5055    3.1090   37.9902 H         1 KEE         0.0599
     36 H12        28.1081    2.0952   35.7669 H         1 KEE         0.0557
     37 H13        29.2279   -1.8718   26.0687 H         1 KEE         0.1401
     38 H14        29.4414    1.8547   28.1469 H         1 KEE         0.0534
     39 H15        22.8382   -0.3510   34.4170 H         1 KEE         0.2216
     40 H16        20.8288    0.3079   34.9715 H         1 KEE         0.2490
@<TRIPOS>BOND
     1    1    2 1  
     2    1   22 2  
     3    1   23 am 
     4    2    3 1  
     5    2    4 1  
     6    3    4 1  
     7    3    5 1  
     8    4   11 1  
     9    5    6 ar 
    10    5   10 ar 
    11    6    7 ar 
    12    7    8 ar 
    13    8    9 ar 
    14    8   17 1  
    15    9   10 ar 
    16   11   12 ar 
    17   11   16 ar 
    18   12   13 ar 
    19   13   14 ar 
    20   14   15 ar 
    21   15   16 ar 
    22   17   18 1  
    23   17   21 2  
    24   18   19 1  
    25   19   20 2  
    26   20   21 1  
    27   23   24 1  
    28    2   25 1  
    29    3   26 1  
    30    4   27 1  
    31    6   28 1  
    32    7   29 1  
    33    9   30 1  
    34   10   31 1  
    35   12   32 1  
    36   13   33 1  
    37   14   34 1  
    38   15   35 1  
    39   16   36 1  
    40   19   37 1  
    41   21   38 1  
    42   23   39 1  
    43   24   40 1  
@<TRIPOS>SUBSTRUCTURE
     1 KEE         1

