### 
### Created by X-TOOL on Mon Sep 10 21:13:18 2018
### 

@<TRIPOS>MOLECULE
4cc5_ligand
   16    17     1     0     0
SMALL
GAST_HUCK


@<TRIPOS>ATOM
      1 CL1        25.9270   21.1350    7.3410 Cl        1 L5V        -0.0288
      2 C2         26.7510   20.1870    8.5410 C.ar      1 L5V         0.1483
      3 C3         26.9060   18.8330    8.3370 C.ar      1 L5V         0.0585
      4 N4         27.5310   18.0650    9.2310 N.ar      1 L5V        -0.2720
      5 C5         27.9820   18.7070   10.3110 C.ar      1 L5V         0.0523
      6 C6         27.8180   20.0750   10.5000 C.ar      1 L5V         0.1291
      7 N7         27.1860   20.8490    9.5990 N.ar      1 L5V        -0.2452
      8 C8         28.3190   20.7550   11.6920 C.2       1 L5V         0.1843
      9 N9         28.2970   22.0620   11.8930 N.2       1 L5V        -0.2405
     10 N10        28.8590   22.2920   13.1330 N.2       1 L5V        -0.2461
     11 C11        29.1950   21.1300   13.6280 C.2       1 L5V         0.1218
     12 N12        28.8750   20.1700   12.7660 N.pl3     1 L5V        -0.2260
     13 H          26.5125   18.3833    7.4326 H         1 L5V         0.0913
     14 H          28.4989   18.1368   11.0744 H         1 L5V         0.0925
     15 H          29.6649   20.9724   14.5977 H         1 L5V         0.1338
     16 H          29.0261   19.1597   12.8978 H         1 L5V         0.2466
@<TRIPOS>BOND
     1    1    2 1  
     2    2    3 ar 
     3    2    7 ar 
     4    3    4 ar 
     5    4    5 ar 
     6    5    6 ar 
     7    6    7 ar 
     8    6    8 1  
     9    8    9 2  
    10    8   12 1  
    11    9   10 1  
    12   10   11 2  
    13   11   12 1  
    14    3   13 1  
    15    5   14 1  
    16   11   15 1  
    17   12   16 1  
@<TRIPOS>SUBSTRUCTURE
     1 L5V         1

