### 
### Created by X-TOOL on Mon Sep 10 21:13:20 2018
### 

@<TRIPOS>MOLECULE
4cc6_ligand
   35    37     1     0     0
SMALL
GAST_HUCK


@<TRIPOS>ATOM
      1 O1         28.3780   13.3790    8.4130 O.3       1 L5Y        -0.3930
      2 C2         27.4720   14.3290    7.8590 C.3       1 L5Y         0.0639
      3 C3         27.6300   15.6830    8.5340 C.3       1 L5Y         0.0496
      4 N4         26.8490   16.7250    7.8590 N.pl3     1 L5Y        -0.3079
      5 C5         27.0240   18.0950    8.1730 C.ar      1 L5Y         0.0870
      6 C6         27.4520   18.5010    9.4320 C.ar      1 L5Y         0.0166
      7 C7         27.5880   19.8610    9.7120 C.ar      1 L5Y         0.0766
      8 N8         27.3120   20.8020    8.7890 N.ar      1 L5Y        -0.2825
      9 C9         26.8910   20.4090    7.5810 C.ar      1 L5Y         0.1036
     10 C10        26.6670   19.0760    7.2610 C.ar      1 L5Y         0.0120
     11 C11        26.6050   21.5350    6.5910 C.3       1 L5Y         0.3909
     12 F12        25.4010   22.0830    6.7820 F         1 L5Y        -0.2143
     13 F13        27.4930   22.5240    6.6700 F         1 L5Y        -0.2143
     14 F14        26.6430   21.1210    5.3270 F         1 L5Y        -0.2143
     15 C15        28.1420   20.3440   10.9840 C.2       1 L5Y         0.0989
     16 N16        28.2440   21.6680   11.1850 N.2       1 L5Y        -0.1772
     17 N17        28.8660   21.8300   12.3900 N.pl3     1 L5Y        -0.1975
     18 C18        29.1100   20.6210   12.9680 C.ar      1 L5Y         0.1194
     19 C19        29.7480   20.2400   14.1370 C.ar      1 L5Y         0.0385
     20 N20        29.9570   18.9540   14.4530 N.ar      1 L5Y        -0.3080
     21 C21        29.6350   18.0230   13.5490 C.ar      1 L5Y        -0.0022
     22 C22        28.9670   18.3210   12.3790 C.ar      1 L5Y        -0.0380
     23 C23        28.7260   19.6610   12.0520 C.ar      1 L5Y         0.0392
     24 H          28.2628   12.5423    7.9781 H         1 L5Y         0.2095
     25 H          26.4417   13.9719    8.0038 H         1 L5Y         0.0577
     26 H          27.6751   14.4364    6.7833 H         1 L5Y         0.0577
     27 H          28.6924   15.9674    8.5164 H         1 L5Y         0.0539
     28 H          27.2892   15.6025    9.5768 H         1 L5Y         0.0539
     29 H          26.1598   16.4552    7.1427 H         1 L5Y         0.1797
     30 H          27.6792   17.7635   10.1933 H         1 L5Y         0.0827
     31 H          26.2192   18.8066    6.3113 H         1 L5Y         0.0857
     32 H          29.1157   22.7395   12.8040 H         1 L5Y         0.2534
     33 H          30.0903   21.0087   14.8204 H         1 L5Y         0.0790
     34 H          29.9098   16.9925   13.7431 H         1 L5Y         0.0714
     35 H          28.6328   17.5272   11.7208 H         1 L5Y         0.0682
@<TRIPOS>BOND
     1    1    2 1  
     2    2    3 1  
     3    3    4 1  
     4    4    5 1  
     5    5    6 ar 
     6    5   10 ar 
     7    6    7 ar 
     8    7    8 ar 
     9    7   15 1  
    10    8    9 ar 
    11    9   10 ar 
    12    9   11 1  
    13   11   12 1  
    14   11   13 1  
    15   11   14 1  
    16   15   16 2  
    17   15   23 1  
    18   16   17 1  
    19   17   18 1  
    20   18   19 ar 
    21   18   23 ar 
    22   19   20 ar 
    23   20   21 ar 
    24   21   22 ar 
    25   22   23 ar 
    26    1   24 1  
    27    2   25 1  
    28    2   26 1  
    29    3   27 1  
    30    3   28 1  
    31    4   29 1  
    32    6   30 1  
    33   10   31 1  
    34   17   32 1  
    35   19   33 1  
    36   21   34 1  
    37   22   35 1  
@<TRIPOS>SUBSTRUCTURE
     1 L5Y         1

