### 
### Created by X-TOOL on Mon Sep 10 21:13:13 2018
### 

@<TRIPOS>MOLECULE
4ccd_ligand
   22    22     1     0     0
SMALL
GAST_HUCK


@<TRIPOS>ATOM
      1 C1         77.2510   90.5140   18.2130 C.3       1 2DG         0.0507
      2 C2         76.8220   90.3300   19.6520 C.3       1 2DG        -0.0008
      3 C3         77.9510   90.3010   20.5570 C.3       1 2DG         0.0857
      4 C4         78.9410   89.3040   20.2000 C.3       1 2DG         0.1093
      5 C5         79.4050   89.4280   18.7750 C.3       1 2DG         0.1098
      6 C6         80.3200   88.3470   18.3240 C.3       1 2DG         0.0729
      7 O3         77.5260   90.1080   21.9390 O.3       1 2DG        -0.3891
      8 O4         78.3780   88.0190   20.4240 O.3       1 2DG        -0.3866
      9 O5         78.1930   89.4600   17.8780 O.3       1 2DG        -0.3716
     10 O6         80.8620   88.5340   17.0500 O.3       1 2DG        -0.3924
     11 H1         77.7327   91.4954   18.0913 H         1 2DG         0.0561
     12 H2         76.3735   90.4518   17.5527 H         1 2DG         0.0561
     13 H3         76.2726   89.3811   19.7398 H         1 2DG         0.0313
     14 H4         76.1621   91.1634   19.9348 H         1 2DG         0.0313
     15 H5         78.4394   91.2846   20.4933 H         1 2DG         0.0621
     16 H6         79.8151   89.4307   20.8556 H         1 2DG         0.0646
     17 H7         79.9438   90.3822   18.6791 H         1 2DG         0.0646
     18 H8         79.7581   87.4013   18.3217 H         1 2DG         0.0584
     19 H9         81.1500   88.2787   19.0426 H         1 2DG         0.0584
     20 H10        78.2770   90.1918   22.5147 H         1 2DG         0.2099
     21 H11        78.0893   87.9540   21.3267 H         1 2DG         0.2100
     22 H12        81.3621   89.3415   17.0352 H         1 2DG         0.2095
@<TRIPOS>BOND
     1    1    2 1  
     2    1    9 1  
     3    2    3 1  
     4    3    4 1  
     5    3    7 1  
     6    4    5 1  
     7    4    8 1  
     8    5    6 1  
     9    5    9 1  
    10    6   10 1  
    11    1   11 1  
    12    1   12 1  
    13    2   13 1  
    14    2   14 1  
    15    3   15 1  
    16    4   16 1  
    17    5   17 1  
    18    6   18 1  
    19    6   19 1  
    20    7   20 1  
    21    8   21 1  
    22   10   22 1  
@<TRIPOS>SUBSTRUCTURE
     1 2DG         1

