### 
### Created by X-TOOL on Mon Sep 10 21:13:18 2018
### 

@<TRIPOS>MOLECULE
4cd0_ligand
   56    59     1     0     0
SMALL
GAST_HUCK


@<TRIPOS>ATOM
      1 C1        -29.8650  -16.6240   61.5060 C.ar      1 AWJ         0.1535
      2 C2        -28.7830  -16.3740   62.3790 C.ar      1 AWJ         0.1587
      3 N3        -27.7500  -17.2760   62.5280 N.ar      1 AWJ        -0.2740
      4 C4        -27.7740  -18.4490   61.8100 C.ar      1 AWJ         0.0150
      5 C5        -28.7970  -18.8000   60.9140 C.ar      1 AWJ         0.0381
      6 C6        -29.8340  -17.8500   60.7890 C.ar      1 AWJ        -0.0008
      7 O7        -30.8500  -15.6430   61.4380 O.3       1 AWJ        -0.2979
      8 N8        -28.7520  -15.1840   63.1190 N.pl3     1 AWJ        -0.3151
      9 C9        -32.0210  -15.7850   60.5740 C.3       1 AWJ         0.1122
     10 C10       -33.0600  -16.7620   61.1610 C.ar      1 AWJ         0.0288
     11 C11       -32.6020  -14.3720   60.3940 C.3       1 AWJ        -0.0250
     12 C12       -33.7390  -17.7880   60.4030 C.ar      1 AWJ         0.1356
     13 C13       -34.6800  -18.6560   61.0450 C.ar      1 AWJ        -0.0298
     14 C14       -34.9600  -18.5260   62.4220 C.ar      1 AWJ        -0.0378
     15 C15       -34.3010  -17.5270   63.1720 C.ar      1 AWJ         0.1198
     16 C16       -33.3690  -16.6570   62.5660 C.ar      1 AWJ        -0.0263
     17 F17       -34.5630  -17.4060   64.4710 F         1 AWJ        -0.1901
     18 N18       -33.5250  -18.0030   59.0160 N.pl3     1 AWJ        -0.0865
     19 N19       -32.9210  -19.1390   58.5650 N.2       1 AWJ        -0.1654
     20 C20       -32.9120  -18.9510   57.2450 C.2       1 AWJ         0.0343
     21 C21       -33.5000  -17.7270   56.9370 C.2       1 AWJ         0.0343
     22 N22       -33.8920  -17.1180   58.0570 N.2       1 AWJ        -0.1654
     23 C23       -28.8360  -20.0590   60.1410 C.2       1 AWJ         0.1118
     24 C24       -27.8510  -20.8620   59.5530 C.2       1 AWJ         0.0831
     25 N25       -28.3290  -21.9930   58.8970 N.2       1 AWJ        -0.2562
     26 C26       -29.6450  -22.0700   58.9720 C.2       1 AWJ         0.0817
     27 S27       -30.3770  -20.7870   59.8380 S.3       1 AWJ         0.0156
     28 C28       -26.3750  -20.6650   59.5350 C.3       1 AWJ        -0.0057
     29 C29       -30.4640  -23.1960   58.3400 C.3       1 AWJ         0.0614
     30 C30       -30.0550  -24.5870   58.8570 C.3       1 AWJ         0.0277
     31 O31       -31.8620  -23.0180   58.5860 O.3       1 AWJ        -0.4543
     32 C32       -30.2670  -23.1540   56.8200 C.3       1 AWJ        -0.0810
     33 O33       -30.2270  -24.6790   60.2710 O.3       1 AWJ        -0.4084
     34 H         -26.9536  -19.1447   61.9438 H         1 AWJ         0.0823
     35 H         -30.6501  -18.0678   60.1096 H         1 AWJ         0.0682
     36 H         -27.9662  -14.9949   63.7575 H         1 AWJ         0.1809
     37 H         -29.5150  -14.4986   63.0243 H         1 AWJ         0.1809
     38 H         -31.7025  -16.1727   59.5951 H         1 AWJ         0.0799
     39 H         -33.4910  -14.4207   59.7480 H         1 AWJ         0.0279
     40 H         -31.8465  -13.7213   59.9295 H         1 AWJ         0.0279
     41 H         -32.8841  -13.9637   61.3757 H         1 AWJ         0.0279
     42 H         -35.1832  -19.4221   60.4662 H         1 AWJ         0.0567
     43 H         -35.6743  -19.1868   62.8997 H         1 AWJ         0.0533
     44 H         -32.8783  -15.8988   63.1654 H         1 AWJ         0.0528
     45 H         -32.5053  -19.6506   56.5163 H         1 AWJ         0.0723
     46 H         -33.6217  -17.3267   55.9316 H         1 AWJ         0.0723
     47 H         -25.9018  -21.4897   58.9819 H         1 AWJ         0.0430
     48 H         -25.9945  -20.6497   60.5670 H         1 AWJ         0.0430
     49 H         -26.1385  -19.7102   59.0427 H         1 AWJ         0.0430
     50 H         -28.9978  -24.7655   58.6111 H         1 AWJ         0.0402
     51 H         -30.6790  -25.3499   58.3686 H         1 AWJ         0.0402
     52 H         -32.0288  -23.0811   59.5191 H         1 AWJ         0.1841
     53 H         -30.5567  -22.1632   56.4400 H         1 AWJ         0.0078
     54 H         -30.8931  -23.9253   56.3476 H         1 AWJ         0.0078
     55 H         -29.2099  -23.3433   56.5819 H         1 AWJ         0.0078
     56 H         -31.1396  -24.5292   60.4883 H         1 AWJ         0.2075
@<TRIPOS>BOND
     1    1    2 ar 
     2    1    6 ar 
     3    1    7 1  
     4    2    3 ar 
     5    2    8 1  
     6    3    4 ar 
     7    4    5 ar 
     8    5    6 ar 
     9    5   23 1  
    10    7    9 1  
    11    9   10 1  
    12    9   11 1  
    13   10   12 ar 
    14   10   16 ar 
    15   12   13 ar 
    16   12   18 1  
    17   13   14 ar 
    18   14   15 ar 
    19   15   16 ar 
    20   15   17 1  
    21   18   19 1  
    22   18   22 1  
    23   19   20 2  
    24   20   21 1  
    25   21   22 2  
    26   23   24 2  
    27   23   27 1  
    28   24   25 1  
    29   24   28 1  
    30   25   26 2  
    31   26   27 1  
    32   26   29 1  
    33   29   30 1  
    34   29   31 1  
    35   29   32 1  
    36   30   33 1  
    37    4   34 1  
    38    6   35 1  
    39    8   36 1  
    40    8   37 1  
    41    9   38 1  
    42   11   39 1  
    43   11   40 1  
    44   11   41 1  
    45   13   42 1  
    46   14   43 1  
    47   16   44 1  
    48   20   45 1  
    49   21   46 1  
    50   28   47 1  
    51   28   48 1  
    52   28   49 1  
    53   30   50 1  
    54   30   51 1  
    55   31   52 1  
    56   32   53 1  
    57   32   54 1  
    58   32   55 1  
    59   33   56 1  
@<TRIPOS>SUBSTRUCTURE
     1 AWJ         1

