### 
### Created by X-TOOL on Sat Nov 28 16:04:38 2015
### 

@<TRIPOS>MOLECULE
4cd1_ligand
   44    47     1     0     0
SMALL
GAST_HUCK


@<TRIPOS>ATOM
      1 O16        28.1120   34.5550   26.0360 O.2       1 MOL        -0.3701
      2 C10        29.1500   35.0860   25.6370 C.2       1 MOL         0.1575
      3 C14        29.1640   35.8640   24.3420 C.ar      1 MOL         0.0485
      4 C5         28.0100   35.9830   23.5440 C.ar      1 MOL        -0.0388
      5 C6         28.0970   36.6940   22.3380 C.ar      1 MOL        -0.0521
      6 C7         29.3010   37.2780   21.8900 C.ar      1 MOL        -0.0521
      7 C8         30.4620   37.1830   22.6530 C.ar      1 MOL        -0.0389
      8 C13        30.4340   36.4810   23.8790 C.ar      1 MOL         0.0483
      9 C9         31.6580   36.3350   24.7160 C.2       1 MOL         0.1568
     10 O9         32.7260   36.8540   24.3630 O.2       1 MOL        -0.3706
     11 C11        30.3710   34.9550   26.4850 C.ar      1 MOL         0.0626
     12 C12        31.6220   35.5900   26.0060 C.ar      1 MOL         0.0609
     13 C1         32.8190   35.4580   26.8600 C.ar      1 MOL         0.0718
     14 N1         34.0070   35.9600   26.4810 N.pl3     1 MOL        -0.3358
     15 C4         30.3470   34.1950   27.7910 C.ar      1 MOL         0.0729
     16 C3         31.5210   34.1090   28.5400 C.ar      1 MOL        -0.0163
     17 C2         32.7570   34.6710   28.1400 C.ar      1 MOL         0.0713
     18 S2         34.1080   34.5660   29.0680 S.o2      1 MOL        -0.1657
     19 OS2        35.1870   33.8230   28.4050 O.co2     1 MOL        -0.4811
     20 OS1        33.6960   33.8710   30.3600 O.co2     1 MOL        -0.4811
     21 OS3        34.5820   35.9090   29.4110 O.co2     1 MOL        -0.4811
     22 N4         29.1430   33.6470   28.1270 N.pl3     1 MOL        -0.2776
     23 C1'        28.9350   32.8450   29.2150 C.ar      1 MOL         0.0504
     24 C6'        27.7360   33.0250   29.9240 C.ar      1 MOL        -0.0470
     25 C5'        27.3770   32.2560   31.0580 C.ar      1 MOL        -0.0789
     26 C4'        28.3080   31.3160   31.4550 C.ar      1 MOL        -0.0729
     27 C3'        29.4880   31.1310   30.7770 C.ar      1 MOL        -0.0568
     28 C7'        30.4260   30.1010   31.2730 C.3       1 MOL        -0.0339
     29 C2'        29.8430   31.8580   29.6180 C.ar      1 MOL        -0.0395
     30 H          27.0736   35.5344   23.8553 H         1 MOL         0.0681
     31 H          27.2071   36.7987   21.7280 H         1 MOL         0.0663
     32 H          29.3223   37.8054   20.9432 H         1 MOL         0.0663
     33 H          31.3806   37.6443   22.3089 H         1 MOL         0.0681
     34 H          34.0820   36.5035   25.6093 H         1 MOL         0.1716
     35 H          34.8423   35.8011   27.0623 H         1 MOL         0.1716
     36 H          31.4843   33.5798   29.4854 H         1 MOL         0.0576
     37 H          28.3364   33.8513   27.5200 H         1 MOL         0.2074
     38 H          27.0495   33.7926   29.5856 H         1 MOL         0.0472
     39 H          26.4364   32.3955   31.5785 H         1 MOL         0.0568
     40 H          28.1012   30.7065   32.3272 H         1 MOL         0.0454
     41 H          31.3166   30.0751   30.6280 H         1 MOL         0.0388
     42 H          29.9330   29.1178   31.2570 H         1 MOL         0.0388
     43 H          30.7262   30.3439   32.3030 H         1 MOL         0.0388
     44 H          30.7608   31.6637   29.0750 H         1 MOL         0.0463
@<TRIPOS>BOND
     1    1    2 2  
     2    2    3 1  
     3    2   11 1  
     4    3    4 ar 
     5    3    8 ar 
     6    4    5 ar 
     7    5    6 ar 
     8    6    7 ar 
     9    7    8 ar 
    10    8    9 1  
    11    9   10 2  
    12    9   12 1  
    13   11   12 ar 
    14   11   15 ar 
    15   12   13 ar 
    16   13   14 1  
    17   13   17 ar 
    18   15   16 ar 
    19   15   22 1  
    20   16   17 ar 
    21   17   18 1  
    22   18   19 ar 
    23   18   20 ar 
    24   18   21 ar 
    25   22   23 1  
    26   23   24 ar 
    27   23   29 ar 
    28   24   25 ar 
    29   25   26 ar 
    30   26   27 ar 
    31   27   28 1  
    32   27   29 ar 
    33    4   30 1  
    34    5   31 1  
    35    6   32 1  
    36    7   33 1  
    37   14   34 1  
    38   14   35 1  
    39   16   36 1  
    40   22   37 1  
    41   24   38 1  
    42   25   39 1  
    43   26   40 1  
    44   28   41 1  
    45   28   42 1  
    46   28   43 1  
    47   29   44 1  
@<TRIPOS>SUBSTRUCTURE
     1 MOL         1

