### 
### Created by X-TOOL on Mon Sep 10 21:13:16 2018
### 

@<TRIPOS>MOLECULE
4cd4_ligand
   45    46     1     0     0
SMALL
GAST_HUCK


@<TRIPOS>ATOM
      1 C1         12.2490   20.3440   15.0440 C.3       1 BMA         0.1883
      2 C2         13.4370   19.9450   15.8790 C.3       1 BMA         0.1341
      3 C3         13.0320   20.0210   17.3450 C.3       1 BMA         0.1141
      4 C4         12.5690   21.4380   17.6640 C.3       1 BMA         0.1119
      5 C5         11.4970   21.9160   16.6740 C.3       1 BMA         0.1130
      6 C6         11.1680   23.4010   16.8460 C.3       1 BMA         0.0730
      7 O2         14.5570   20.8140   15.6450 O.3       1 BMA        -0.3841
      8 O3         14.1650   19.6440   18.1680 O.3       1 BMA        -0.3864
      9 O4         12.0170   21.4980   18.9910 O.3       1 BMA        -0.3865
     10 O5         11.9380   21.7260   15.3170 O.3       1 BMA        -0.3405
     11 O6         12.3170   24.2210   16.7040 O.3       1 BMA        -0.3924
     12 O4         12.6400   20.3480   13.6860 O.3       1 IFM        -0.3421
     13 C4         11.7210   19.9690   12.6670 C.3       1 IFM         0.1023
     14 C3         10.4140   20.7680   12.7210 C.3       1 IFM         0.1213
     15 O3          9.5900   20.3610   13.8230 O.3       1 IFM        -0.3839
     16 C2          9.5740   20.5150   11.4610 C.3       1 IFM        -0.0045
     17 N          10.3440   20.7780   10.2380 N.4       1 IFM         0.2292
     18 C1         11.5380   19.9470   10.1570 C.3       1 IFM        -0.0261
     19 C5         12.4360   20.2670   11.3490 C.3       1 IFM         0.0511
     20 C6         13.7650   19.5290   11.2240 C.3       1 IFM         0.0543
     21 O6         13.6060   18.1080   11.2230 O.3       1 IFM        -0.3945
     22 H          11.3909   19.6808   15.2281 H         1 BMA         0.0938
     23 H          13.7263   18.9137   15.6286 H         1 BMA         0.0671
     24 H          12.2034   19.3223   17.5327 H         1 BMA         0.0648
     25 H          13.4367   22.1113   17.6032 H         1 BMA         0.0647
     26 H          10.5837   21.3269   16.8438 H         1 BMA         0.0647
     27 H          10.7427   23.5565   17.8485 H         1 BMA         0.0584
     28 H          10.4287   23.6912   16.0850 H         1 BMA         0.0584
     29 H          15.2864   20.5424   16.1898 H         1 BMA         0.2101
     30 H          14.4330   18.7591   17.9498 H         1 BMA         0.2100
     31 H          12.6685   21.2050   19.6173 H         1 BMA         0.2100
     32 H          12.9591   23.9811   17.3618 H         1 BMA         0.2095
     33 H          11.4917   18.8964   12.7498 H         1 BMA         0.0630
     34 H          10.6533   21.8381   12.8076 H         1 BMA         0.0673
     35 H           9.3751   19.4400   13.7331 H         1 BMA         0.2101
     36 H           8.6950   21.1761   11.4788 H         1 BMA         0.0840
     37 H           9.2437   19.4658   11.4565 H         1 BMA         0.0840
     38 H          10.6207   21.7472   10.2294 H         1 BMA         0.2014
     39 H           9.7603   20.5881    9.4385 H         1 BMA         0.2014
     40 H          12.0749   20.1600    9.2209 H         1 BMA         0.0818
     41 H          11.2528   18.8849   10.1826 H         1 BMA         0.0818
     42 H          12.6525   21.3453   11.3284 H         1 BMA         0.0401
     43 H          14.4061   19.8113   12.0721 H         1 BMA         0.0562
     44 H          14.2483   19.8302   10.2829 H         1 BMA         0.0562
     45 H          13.1956   17.8358   12.0353 H         1 BMA         0.2094
@<TRIPOS>BOND
     1    1    2 1  
     2    1   10 1  
     3    1   12 1  
     4    2    3 1  
     5    2    7 1  
     6    3    4 1  
     7    3    8 1  
     8    4    5 1  
     9    4    9 1  
    10    5    6 1  
    11    5   10 1  
    12    6   11 1  
    13   12   13 1  
    14   13   14 1  
    15   13   19 1  
    16   14   15 1  
    17   14   16 1  
    18   16   17 1  
    19   17   18 1  
    20   18   19 1  
    21   19   20 1  
    22   20   21 1  
    23    1   22 1  
    24    2   23 1  
    25    3   24 1  
    26    4   25 1  
    27    5   26 1  
    28    6   27 1  
    29    6   28 1  
    30    7   29 1  
    31    8   30 1  
    32    9   31 1  
    33   11   32 1  
    34   13   33 1  
    35   14   34 1  
    36   15   35 1  
    37   16   36 1  
    38   16   37 1  
    39   17   38 1  
    40   17   39 1  
    41   18   40 1  
    42   18   41 1  
    43   19   42 1  
    44   20   43 1  
    45   20   44 1  
    46   21   45 1  
@<TRIPOS>SUBSTRUCTURE
     1 BMA         1

