### 
### Created by X-TOOL on Mon Sep 10 21:13:16 2018
### 

@<TRIPOS>MOLECULE
4cd5_ligand
   47    49     1     0     0
SMALL
GAST_HUCK


@<TRIPOS>ATOM
      1 C1        -12.0880  -20.3130   15.2340 C.3       1 BMA         0.1885
      2 C2        -13.2040  -19.9120   16.1850 C.3       1 BMA         0.1341
      3 C3        -12.7140  -20.0380   17.6250 C.3       1 BMA         0.1141
      4 C4        -12.2470  -21.4560   17.8960 C.3       1 BMA         0.1119
      5 C5        -11.2380  -21.8910   16.8300 C.3       1 BMA         0.1130
      6 C6        -10.8720  -23.3690   16.9470 C.3       1 BMA         0.0730
      7 O2        -14.3590  -20.7180   15.9870 O.3       1 BMA        -0.3841
      8 O3        -13.7850  -19.6670   18.5060 O.3       1 BMA        -0.3864
      9 O4        -11.6810  -21.5590   19.2030 O.3       1 BMA        -0.3865
     10 O5        -11.7440  -21.6750   15.5070 O.3       1 BMA        -0.3405
     11 O6        -12.0150  -24.2020   16.7850 O.3       1 BMA        -0.3924
     12 C1        -10.6770  -20.4450   10.3360 C.2       1 MVL         0.1465
     13 N10       -11.6490  -19.5660   10.5460 N.pl3     1 MVL        -0.2404
     14 C3        -10.6150  -21.1020   12.7080 C.3       1 MVL         0.1257
     15 C4        -11.6880  -20.0100   12.8790 C.3       1 MVL         0.1248
     16 C5        -12.5960  -19.7830   11.6560 C.3       1 MVL         0.1200
     17 C6        -13.5730  -18.6330   11.8040 C.3       1 MVL         0.0773
     18 C7        -10.5050  -18.8420    8.8370 C.2       1 MVL        -0.0364
     19 C8        -11.5910  -18.5630    9.6340 C.2       1 MVL         0.0285
     20 N1         -9.9790  -20.0210    9.2710 N.2       1 MVL        -0.3367
     21 O3         -9.3420  -20.5540   13.1100 O.3       1 MVL        -0.3839
     22 O2         -9.3660  -22.3650   11.0210 O.3       1 MVL        -0.3699
     23 O4        -12.5650  -20.2690   13.9700 O.3       1 MVL        -0.3394
     24 C2        -10.5590  -21.6210   11.2870 C.3       1 MVL         0.1586
     25 O6        -12.9580  -17.3870   12.1770 O.3       1 MVL        -0.3918
     26 H         -11.2166  -19.6520   15.3508 H         1 BMA         0.0938
     27 H         -13.4723  -18.8630   15.9912 H         1 BMA         0.0671
     28 H         -11.8681  -19.3524   17.7809 H         1 BMA         0.0648
     29 H         -13.1183  -22.1254   17.8433 H         1 BMA         0.0647
     30 H         -10.3259  -21.2908   16.9634 H         1 BMA         0.0647
     31 H         -10.4339  -23.5517   17.9393 H         1 BMA         0.0584
     32 H         -10.1349  -23.6178   16.1693 H         1 BMA         0.0584
     33 H         -15.0474  -20.4331   16.5764 H         1 BMA         0.2101
     34 H         -13.4864  -19.7215   19.4062 H         1 BMA         0.2100
     35 H         -10.9148  -21.0003   19.2600 H         1 BMA         0.2100
     36 H         -12.6540  -23.9951   17.4569 H         1 BMA         0.2095
     37 H         -10.8630  -21.9449   13.3699 H         1 BMA         0.0675
     38 H         -11.1510  -19.0713   13.0800 H         1 BMA         0.0658
     39 H         -13.1825  -20.6945   11.4684 H         1 BMA         0.0704
     40 H         -14.3081  -18.9009   12.5772 H         1 BMA         0.0589
     41 H         -14.0877  -18.4904   10.8424 H         1 BMA         0.0589
     42 H         -10.1350  -18.2338    8.0130 H         1 BMA         0.0408
     43 H         -12.2655  -17.7121    9.5502 H         1 BMA         0.0796
     44 H          -8.6679  -21.2160   13.0105 H         1 BMA         0.2103
     45 H          -9.3773  -22.6682   10.1207 H         1 BMA         0.2138
     46 H         -11.4177  -22.2901   11.1292 H         1 BMA         0.0858
     47 H         -12.5170  -17.4903   13.0121 H         1 BMA         0.2095
@<TRIPOS>BOND
     1    1    2 1  
     2    1   10 1  
     3   23    1 1  
     4    2    3 1  
     5    2    7 1  
     6    3    4 1  
     7    3    8 1  
     8    5    4 1  
     9    4    9 1  
    10    5    6 1  
    11   10    5 1  
    12    6   11 1  
    13   13   12 1  
    14   12   20 2  
    15   24   12 1  
    16   16   13 1  
    17   13   19 1  
    18   15   14 1  
    19   14   21 1  
    20   14   24 1  
    21   15   16 1  
    22   15   23 1  
    23   16   17 1  
    24   17   25 1  
    25   19   18 2  
    26   18   20 1  
    27   24   22 1  
    28    1   26 1  
    29    2   27 1  
    30    3   28 1  
    31    4   29 1  
    32    5   30 1  
    33    6   31 1  
    34    6   32 1  
    35    7   33 1  
    36    8   34 1  
    37    9   35 1  
    38   11   36 1  
    39   14   37 1  
    40   15   38 1  
    41   16   39 1  
    42   17   40 1  
    43   17   41 1  
    44   18   42 1  
    45   19   43 1  
    46   21   44 1  
    47   22   45 1  
    48   24   46 1  
    49   25   47 1  
@<TRIPOS>SUBSTRUCTURE
     1 BMA         1

