### 
### Created by X-TOOL on Mon Sep 10 21:13:17 2018
### 

@<TRIPOS>MOLECULE
4cd8_ligand
   47    49     1     0     0
SMALL
GAST_HUCK


@<TRIPOS>ATOM
      1 C1         15.0700  -19.3520  -21.4970 C.2       1 MVL         0.1465
      2 N10        16.0080  -19.1930  -22.4150 N.pl3     1 MVL        -0.2404
      3 C3         16.2470  -17.9800  -19.8530 C.3       1 MVL         0.1257
      4 C4         17.3220  -17.8280  -20.9530 C.3       1 MVL         0.1248
      5 C5         16.7590  -17.9400  -22.3840 C.3       1 MVL         0.1200
      6 C6         17.8040  -17.9300  -23.5030 C.3       1 MVL         0.0773
      7 C7         15.1000  -21.1300  -22.7700 C.2       1 MVL        -0.0364
      8 C8         16.0560  -20.2530  -23.2380 C.2       1 MVL         0.0285
      9 N1         14.4910  -20.5400  -21.7090 N.2       1 MVL        -0.3367
     10 O3         16.5590  -19.0130  -18.9190 O.3       1 MVL        -0.3839
     11 O2         13.9960  -18.7320  -19.3930 O.3       1 MVL        -0.3699
     12 C2         14.8660  -18.3030  -20.4470 C.3       1 MVL         0.1586
     13 O6         18.7730  -18.9890  -23.3800 O.3       1 MVL        -0.3918
     14 C1         19.1540  -16.5170  -20.2970 C.3       1 BMA         0.1885
     15 C2         19.8840  -15.2000  -20.5150 C.3       1 BMA         0.1341
     16 C3         21.1490  -15.2040  -19.6610 C.3       1 BMA         0.1141
     17 C4         20.7820  -15.5780  -18.2300 C.3       1 BMA         0.1119
     18 C5         20.0600  -16.9250  -18.1830 C.3       1 BMA         0.1130
     19 C6         19.7940  -17.4440  -16.7710 C.3       1 BMA         0.0730
     20 O1         17.9570  -16.5240  -21.0540 O.3       1 BMA        -0.3394
     21 O2         19.1810  -14.0520  -20.1270 O.3       1 BMA        -0.3841
     22 O3         21.8060  -13.9270  -19.7070 O.3       1 BMA        -0.3864
     23 O4         22.0240  -15.7050  -17.5620 O.3       1 BMA        -0.3865
     24 O5         18.8450  -16.7350  -18.9170 O.3       1 BMA        -0.3405
     25 O6         18.7560  -18.4380  -16.7850 O.3       1 BMA        -0.3924
     26 H          16.1847  -17.0246  -19.3114 H         1 MVL         0.0675
     27 H          18.0820  -18.6031  -20.7755 H         1 MVL         0.0658
     28 H          16.0758  -17.0955  -22.5574 H         1 MVL         0.0704
     29 H          18.3336  -16.9662  -23.4790 H         1 MVL         0.0589
     30 H          17.2858  -18.0397  -24.4671 H         1 MVL         0.0589
     31 H          14.8748  -22.1148  -23.1766 H         1 MVL         0.0408
     32 H          16.7126  -20.3912  -24.0957 H         1 MVL         0.0796
     33 H          17.3855  -18.8154  -18.4943 H         1 MVL         0.2103
     34 H          13.1401  -18.9335  -19.7527 H         1 MVL         0.2138
     35 H          14.4392  -17.4034  -20.9145 H         1 MVL         0.0858
     36 H          18.3286  -19.8281  -23.4077 H         1 MVL         0.2095
     37 H          19.8014  -17.3361  -20.6432 H         1 MVL         0.0938
     38 H          20.1411  -15.1184  -21.5814 H         1 MVL         0.0671
     39 H          21.8399  -15.9625  -20.0577 H         1 MVL         0.0648
     40 H          20.1574  -14.7985  -17.7692 H         1 MVL         0.0647
     41 H          20.6792  -17.6740  -18.6983 H         1 MVL         0.0647
     42 H          19.4832  -16.6057  -16.1302 H         1 MVL         0.0584
     43 H          20.7161  -17.8899  -16.3699 H         1 MVL         0.0584
     44 H          19.7156  -13.2840  -20.2912 H         1 MVL         0.2101
     45 H          21.2262  -13.2610  -19.3566 H         1 MVL         0.2100
     46 H          22.4814  -14.8727  -17.5853 H         1 MVL         0.2100
     47 H          17.9573  -18.0553  -17.1285 H         1 MVL         0.2095
@<TRIPOS>BOND
     1    2    1 1  
     2    1    9 2  
     3   12    1 1  
     4    5    2 1  
     5    2    8 1  
     6    4    3 1  
     7    3   10 1  
     8    3   12 1  
     9    4    5 1  
    10   20    4 1  
    11    5    6 1  
    12    6   13 1  
    13    8    7 2  
    14    7    9 1  
    15   12   11 1  
    16   14   15 1  
    17   14   20 1  
    18   14   24 1  
    19   15   16 1  
    20   15   21 1  
    21   16   17 1  
    22   16   22 1  
    23   17   18 1  
    24   17   23 1  
    25   18   19 1  
    26   18   24 1  
    27   19   25 1  
    28    3   26 1  
    29    4   27 1  
    30    5   28 1  
    31    6   29 1  
    32    6   30 1  
    33    7   31 1  
    34    8   32 1  
    35   10   33 1  
    36   11   34 1  
    37   12   35 1  
    38   13   36 1  
    39   14   37 1  
    40   15   38 1  
    41   16   39 1  
    42   17   40 1  
    43   18   41 1  
    44   19   42 1  
    45   19   43 1  
    46   21   44 1  
    47   22   45 1  
    48   23   46 1  
    49   25   47 1  
@<TRIPOS>SUBSTRUCTURE
     1 MVL         1

