### 
### Created by X-TOOL on Mon Sep 10 21:13:19 2018
### 

@<TRIPOS>MOLECULE
4ce1_ligand
   52    53     1     0     0
SMALL
GAST_HUCK


@<TRIPOS>ATOM
      1 O3         19.8830   -1.9180   -6.1750 O.2       1 7FK        -0.3991
      2 C19        18.9630   -2.7070   -6.0140 C.2       1 7FK         0.1897
      3 N          17.9460   -2.8520   -6.8860 N.am      1 7FK        -0.2782
      4 C          16.9460   -3.9220   -6.7610 C.3       1 7FK         0.0216
      5 C18        19.0060   -3.5920   -4.7950 C.ar      1 7FK         0.0717
      6 C17        19.9400   -4.6660   -4.7570 C.ar      1 7FK         0.0957
      7 O2         20.7510   -4.8690   -5.7990 O.3       1 7FK        -0.3316
      8 C16        19.9990   -5.5180   -3.6690 C.ar      1 7FK        -0.0048
      9 C15        19.1500   -5.3140   -2.5960 C.ar      1 7FK         0.0929
     10 O1         19.1190   -6.1560   -1.5350 O.3       1 7FK        -0.3331
     11 C14        18.2580   -4.2200   -2.6520 C.ar      1 7FK         0.0652
     12 CL         17.3230   -3.9730   -1.2430 Cl        1 7FK        -0.0933
     13 C13        18.1240   -3.3460   -3.7240 C.ar      1 7FK        -0.0068
     14 C12        17.1160   -2.2100   -3.7550 C.3       1 7FK         0.0538
     15 C11        15.6760   -2.6260   -3.5330 C.2       1 7FK         0.1170
     16 O          15.2630   -3.6740   -3.9720 O.2       1 7FK        -0.3883
     17 C10        14.7950   -1.7110   -2.7250 C.3       1 7FK         0.0232
     18 C9         13.3100   -2.0370   -2.7370 C.3       1 7FK        -0.0370
     19 C8         12.5790   -1.1470   -3.6910 C.3       1 7FK        -0.0508
     20 C7         12.9500   -1.4330   -5.1370 C.3       1 7FK        -0.0514
     21 C6         12.4950   -0.4060   -6.1570 C.3       1 7FK        -0.0464
     22 C5         12.8930   -0.8180   -7.5780 C.3       1 7FK        -0.0365
     23 C4         14.3220   -0.4340   -7.8830 C.2       1 7FK        -0.0986
     24 C3         15.4070   -1.0410   -7.4100 C.2       1 7FK        -0.0968
     25 C2         16.8540   -0.6740   -7.6690 C.3       1 7FK        -0.0161
     26 C1         17.7480   -1.8840   -7.9650 C.3       1 7FK         0.0388
     27 H          16.2177   -3.8409   -7.5814 H         1 7FK         0.0485
     28 H          16.4247   -3.8259   -5.7972 H         1 7FK         0.0485
     29 H          17.4471   -4.8999   -6.8110 H         1 7FK         0.0485
     30 H          21.3103   -5.6163   -5.6227 H         1 7FK         0.2507
     31 H          20.7057   -6.3399   -3.6572 H         1 7FK         0.0425
     32 H          18.8829   -7.0274   -1.8305 H         1 7FK         0.2501
     33 H          17.1824   -1.7215   -4.7383 H         1 7FK         0.0662
     34 H          17.3884   -1.4904   -2.9689 H         1 7FK         0.0662
     35 H          14.9191   -0.6908   -3.1171 H         1 7FK         0.0495
     36 H          15.1394   -1.7470   -1.6809 H         1 7FK         0.0495
     37 H          12.9013   -1.8947   -1.7257 H         1 7FK         0.0290
     38 H          13.1731   -3.0844   -3.0439 H         1 7FK         0.0290
     39 H          12.8275   -0.1004   -3.4613 H         1 7FK         0.0267
     40 H          11.4976   -1.3034   -3.5646 H         1 7FK         0.0267
     41 H          12.5060   -2.4008   -5.4131 H         1 7FK         0.0267
     42 H          14.0462   -1.5024   -5.1956 H         1 7FK         0.0267
     43 H          12.9595    0.5629   -5.9216 H         1 7FK         0.0285
     44 H          11.4004   -0.3101   -6.1052 H         1 7FK         0.0285
     45 H          12.2268   -0.3171   -8.2958 H         1 7FK         0.0388
     46 H          12.7863   -1.9082   -7.6778 H         1 7FK         0.0388
     47 H          14.4774    0.4140   -8.5484 H         1 7FK         0.0450
     48 H          15.2357   -1.8998   -6.7627 H         1 7FK         0.0451
     49 H          17.2474   -0.1597   -6.7798 H         1 7FK         0.0408
     50 H          16.8915    0.0062   -8.5326 H         1 7FK         0.0408
     51 H          17.3039   -2.4228   -8.8149 H         1 7FK         0.0541
     52 H          18.7386   -1.5008   -8.2510 H         1 7FK         0.0541
@<TRIPOS>BOND
     1    1    2 2  
     2    2    3 am 
     3    2    5 1  
     4    3    4 1  
     5    3   26 1  
     6    5    6 ar 
     7    5   13 ar 
     8    6    7 1  
     9    6    8 ar 
    10    8    9 ar 
    11    9   10 1  
    12    9   11 ar 
    13   11   12 1  
    14   11   13 ar 
    15   13   14 1  
    16   14   15 1  
    17   15   16 2  
    18   15   17 1  
    19   17   18 1  
    20   18   19 1  
    21   19   20 1  
    22   20   21 1  
    23   21   22 1  
    24   22   23 1  
    25   23   24 2  
    26   24   25 1  
    27   25   26 1  
    28    4   27 1  
    29    4   28 1  
    30    4   29 1  
    31    7   30 1  
    32    8   31 1  
    33   10   32 1  
    34   14   33 1  
    35   14   34 1  
    36   17   35 1  
    37   17   36 1  
    38   18   37 1  
    39   18   38 1  
    40   19   39 1  
    41   19   40 1  
    42   20   41 1  
    43   20   42 1  
    44   21   43 1  
    45   21   44 1  
    46   22   45 1  
    47   22   46 1  
    48   23   47 1  
    49   24   48 1  
    50   25   49 1  
    51   25   50 1  
    52   26   51 1  
    53   26   52 1  
@<TRIPOS>SUBSTRUCTURE
     1 7FK         1

