### 
### Created by X-TOOL on Mon Sep 10 21:13:18 2018
### 

@<TRIPOS>MOLECULE
4ce2_ligand
   49    50     1     0     0
SMALL
GAST_HUCK


@<TRIPOS>ATOM
      1 O3         19.9770   -2.0660   -6.4070 O.2       1 BO5        -0.3991
      2 C18        19.0240   -2.7650   -6.1270 C.2       1 BO5         0.1897
      3 N          17.9210   -2.8350   -6.8980 N.am      1 BO5        -0.2782
      4 C          16.8340   -3.7860   -6.6380 C.3       1 BO5         0.0216
      5 C17        19.1380   -3.6220   -4.8830 C.ar      1 BO5         0.0717
      6 C16        20.1060   -4.6690   -4.9100 C.ar      1 BO5         0.0957
      7 O2         20.9270   -4.8390   -5.9880 O.3       1 BO5        -0.3316
      8 C15        20.2250   -5.5520   -3.8470 C.ar      1 BO5        -0.0048
      9 C14        19.4020   -5.4290   -2.7440 C.ar      1 BO5         0.0929
     10 O1         19.4430   -6.3140   -1.7030 O.3       1 BO5        -0.3331
     11 C13        18.4890   -4.4110   -2.7000 C.ar      1 BO5         0.0652
     12 CL         17.4910   -4.3360   -1.3010 Cl        1 BO5        -0.0933
     13 C12        18.3230   -3.4890   -3.7320 C.ar      1 BO5        -0.0068
     14 C11        17.2850   -2.4070   -3.5170 C.3       1 BO5         0.0538
     15 C10        15.8830   -2.9460   -3.3270 C.2       1 BO5         0.1170
     16 O          15.5750   -4.0310   -3.7700 O.2       1 BO5        -0.3883
     17 C9         14.9070   -2.1090   -2.5410 C.3       1 BO5         0.0232
     18 C8         13.5870   -1.8270   -3.2270 C.3       1 BO5        -0.0368
     19 C7         13.7250   -0.8540   -4.3710 C.3       1 BO5        -0.0494
     20 C6         13.0070   -1.2800   -5.6550 C.3       1 BO5        -0.0463
     21 C5         13.2570   -0.3480   -6.8420 C.3       1 BO5        -0.0365
     22 C4         14.7280   -0.1810   -7.0150 C.2       1 BO5        -0.0986
     23 C3         15.5120   -0.9380   -7.7080 C.2       1 BO5        -0.0968
     24 C2         16.9750   -0.7610   -7.8150 C.3       1 BO5        -0.0161
     25 C1         17.7960   -2.0160   -8.1060 C.3       1 BO5         0.0388
     26 H          16.0460   -3.6579   -7.3947 H         1 BO5         0.0485
     27 H          16.4155   -3.6001   -5.6378 H         1 BO5         0.0485
     28 H          17.2256   -4.8128   -6.6866 H         1 BO5         0.0485
     29 H          21.5028   -5.5785   -5.8326 H         1 BO5         0.2507
     30 H          20.9667   -6.3418   -3.8817 H         1 BO5         0.0425
     31 H          19.2402   -7.1857   -2.0217 H         1 BO5         0.2501
     32 H          17.2871   -1.7430   -4.3940 H         1 BO5         0.0662
     33 H          17.5615   -1.8320   -2.6210 H         1 BO5         0.0662
     34 H          15.3878   -1.1441   -2.3224 H         1 BO5         0.0495
     35 H          14.6932   -2.6340   -1.5983 H         1 BO5         0.0495
     36 H          12.8889   -1.4059   -2.4885 H         1 BO5         0.0290
     37 H          13.1827   -2.7732   -3.6160 H         1 BO5         0.0290
     38 H          14.7953   -0.7390   -4.5975 H         1 BO5         0.0268
     39 H          13.3119    0.1139   -4.0510 H         1 BO5         0.0268
     40 H          11.9255   -1.3046   -5.4555 H         1 BO5         0.0285
     41 H          13.3527   -2.2882   -5.9272 H         1 BO5         0.0285
     42 H          12.7934    0.6306   -6.6487 H         1 BO5         0.0388
     43 H          12.8241   -0.7852   -7.7538 H         1 BO5         0.0388
     44 H          15.1880    0.6645   -6.5057 H         1 BO5         0.0450
     45 H          15.0623   -1.7667   -8.2529 H         1 BO5         0.0451
     46 H          17.3312   -0.3427   -6.8621 H         1 BO5         0.0408
     47 H          17.1659   -0.0420   -8.6253 H         1 BO5         0.0408
     48 H          17.2963   -2.6021   -8.8913 H         1 BO5         0.0541
     49 H          18.7985   -1.7217   -8.4499 H         1 BO5         0.0541
@<TRIPOS>BOND
     1    1    2 2  
     2    2    3 am 
     3    2    5 1  
     4    3    4 1  
     5    3   25 1  
     6    5    6 ar 
     7    5   13 ar 
     8    6    7 1  
     9    6    8 ar 
    10    8    9 ar 
    11    9   10 1  
    12    9   11 ar 
    13   11   12 1  
    14   11   13 ar 
    15   13   14 1  
    16   14   15 1  
    17   15   16 2  
    18   15   17 1  
    19   17   18 1  
    20   18   19 1  
    21   19   20 1  
    22   20   21 1  
    23   21   22 1  
    24   22   23 2  
    25   23   24 1  
    26   24   25 1  
    27    4   26 1  
    28    4   27 1  
    29    4   28 1  
    30    7   29 1  
    31    8   30 1  
    32   10   31 1  
    33   14   32 1  
    34   14   33 1  
    35   17   34 1  
    36   17   35 1  
    37   18   36 1  
    38   18   37 1  
    39   19   38 1  
    40   19   39 1  
    41   20   40 1  
    42   20   41 1  
    43   21   42 1  
    44   21   43 1  
    45   22   44 1  
    46   23   45 1  
    47   24   46 1  
    48   24   47 1  
    49   25   48 1  
    50   25   49 1  
@<TRIPOS>SUBSTRUCTURE
     1 BO5         1

