### 
### Created by X-TOOL on Mon Sep 10 21:13:18 2018
### 

@<TRIPOS>MOLECULE
4ce3_ligand
   46    47     1     0     0
SMALL
GAST_HUCK


@<TRIPOS>ATOM
      1 C1         18.9440   -2.5540   -6.1100 C.2       1 L4V         0.1896
      2 C2         19.0140   -3.4650   -4.9000 C.ar      1 L4V         0.0717
      3 C3         19.8930   -4.5750   -4.8780 C.ar      1 L4V         0.0957
      4 C4         19.9290   -5.4450   -3.8030 C.ar      1 L4V        -0.0048
      5 C5         19.1110   -5.2270   -2.7120 C.ar      1 L4V         0.0929
      6 C6         18.2730   -4.1340   -2.7080 C.ar      1 L4V         0.0652
      7 C7         18.1830   -3.2420   -3.7740 C.ar      1 L4V        -0.0068
      8 C8         17.1720   -2.1150   -3.6950 C.3       1 L4V         0.0538
      9 C9         15.7290   -2.5730   -3.7930 C.2       1 L4V         0.1172
     10 C10        14.6450   -1.7130   -3.1990 C.3       1 L4V         0.0247
     11 C11        14.0610   -0.6730   -4.1430 C.3       1 L4V        -0.0304
     12 C12        13.1670   -1.2460   -5.2390 C.3       1 L4V        -0.0343
     13 C13        13.0250   -0.2710   -6.3790 C.2       1 L4V        -0.0985
     14 C14        13.7950   -0.1580   -7.4610 C.2       1 L4V        -0.0986
     15 C15        14.9880   -0.9980   -7.8520 C.3       1 L4V        -0.0346
     16 C16        16.3090   -0.6530   -7.1490 C.3       1 L4V        -0.0261
     17 C18        17.0560   -3.8130   -7.0700 C.3       1 L4V         0.0214
     18 O2         19.9050   -1.8310   -6.3250 O.2       1 L4V        -0.3991
     19 O3         20.7650   -4.7840   -5.8860 O.3       1 L4V        -0.3316
     20 O4         19.0890   -6.1000   -1.6750 O.3       1 L4V        -0.3331
     21 CL1        17.3230   -3.9120   -1.2940 Cl        1 L4V        -0.0933
     22 C17        17.4710   -1.4530   -7.7300 C.3       1 L4V         0.0339
     23 O5         15.4560   -3.6280   -4.3220 O.2       1 L4V        -0.3883
     24 N          17.8710   -2.6070   -6.9230 N.am      1 L4V        -0.2797
     25 H          20.5988   -6.2972   -3.8171 H         1 L4V         0.0425
     26 H          17.3694   -1.4146   -4.5199 H         1 L4V         0.0662
     27 H          17.3059   -1.5968   -2.7340 H         1 L4V         0.0662
     28 H          15.0649   -1.1868   -2.3290 H         1 L4V         0.0497
     29 H          13.8282   -2.3721   -2.8698 H         1 L4V         0.0497
     30 H          14.8938   -0.1384   -4.6232 H         1 L4V         0.0310
     31 H          13.4650    0.0349   -3.5484 H         1 L4V         0.0310
     32 H          12.1724   -1.4571   -4.8193 H         1 L4V         0.0390
     33 H          13.6116   -2.1789   -5.6159 H         1 L4V         0.0390
     34 H          12.1915    0.4265   -6.3105 H         1 L4V         0.0450
     35 H          13.5304    0.6418   -8.1511 H         1 L4V         0.0450
     36 H          15.1420   -0.8818   -8.9349 H         1 L4V         0.0389
     37 H          14.7499   -2.0479   -7.6260 H         1 L4V         0.0389
     38 H          16.2156   -0.8834   -6.0775 H         1 L4V         0.0304
     39 H          16.5134    0.4202   -7.2769 H         1 L4V         0.0304
     40 H          16.2403   -3.6197   -7.7823 H         1 L4V         0.0485
     41 H          16.6321   -4.0904   -6.0936 H         1 L4V         0.0485
     42 H          17.6827   -4.6357   -7.4447 H         1 L4V         0.0485
     43 H          21.6526   -4.7303   -5.5516 H         1 L4V         0.2507
     44 H          19.7213   -6.7915   -1.8312 H         1 L4V         0.2501
     45 H          18.3376   -0.7822   -7.8251 H         1 L4V         0.0522
     46 H          17.1762   -1.8148   -8.7261 H         1 L4V         0.0522
@<TRIPOS>BOND
     1    1    2 1  
     2    1   18 2  
     3    1   24 am 
     4    2    3 ar 
     5    2    7 ar 
     6    3    4 ar 
     7    3   19 1  
     8    4    5 ar 
     9    5    6 ar 
    10    5   20 1  
    11    6    7 ar 
    12    6   21 1  
    13    7    8 1  
    14    8    9 1  
    15    9   10 1  
    16    9   23 2  
    17   10   11 1  
    18   11   12 1  
    19   12   13 1  
    20   13   14 2  
    21   14   15 1  
    22   15   16 1  
    23   16   22 1  
    24   24   17 1  
    25   22   24 1  
    26    4   25 1  
    27    8   26 1  
    28    8   27 1  
    29   10   28 1  
    30   10   29 1  
    31   11   30 1  
    32   11   31 1  
    33   12   32 1  
    34   12   33 1  
    35   13   34 1  
    36   14   35 1  
    37   15   36 1  
    38   15   37 1  
    39   16   38 1  
    40   16   39 1  
    41   17   40 1  
    42   17   41 1  
    43   17   42 1  
    44   19   43 1  
    45   20   44 1  
    46   22   45 1  
    47   22   46 1  
@<TRIPOS>SUBSTRUCTURE
     1 L4V         1

