### 
### Created by X-TOOL on Mon Sep 10 21:13:13 2018
### 

@<TRIPOS>MOLECULE
4ceb_ligand
   75    78     1     0     0
SMALL
GAST_HUCK


@<TRIPOS>ATOM
      1 C1         11.6370   35.1200   -5.3420 C.ar      1 ZSV        -0.0630
      2 C2         12.7370   34.6770   -4.6440 C.ar      1 ZSV        -0.0640
      3 C3         10.5880   35.7510   -4.6910 C.ar      1 ZSV        -0.0483
      4 C4         12.8000   34.8700   -3.2780 C.ar      1 ZSV        -0.0493
      5 C5          9.4990   33.0320    1.8830 C.ar      1 ZSV        -0.0712
      6 C6          6.9170   36.3130    0.1180 C.ar      1 ZSV        -0.0668
      7 C7          6.4260   34.4130   -1.2340 C.ar      1 ZSV        -0.0668
      8 C8          9.4640   32.0560    2.8660 C.ar      1 ZSV        -0.0450
      9 C9          6.6630   35.5620    1.2420 C.ar      1 ZSV        -0.0395
     10 C10         6.1740   33.6440   -0.1080 C.ar      1 ZSV        -0.0395
     11 C11        10.6580   35.9400   -3.3230 C.ar      1 ZSV         0.0564
     12 C12        10.7910   31.5820    0.4780 C.ar      1 ZSV         0.0374
     13 C13         6.8020   35.7410   -1.1270 C.ar      1 ZSV        -0.0318
     14 C14        11.7640   35.4990   -2.6210 C.ar      1 ZSV         0.0219
     15 C15        10.1600   32.7990    0.6870 C.ar      1 ZSV        -0.0032
     16 C16        10.1090   30.8600    2.6750 C.ar      1 ZSV         0.1170
     17 C17        10.7550   30.6110    1.4750 C.ar      1 ZSV         0.1294
     18 C18         6.2920   34.2380    1.1320 C.ar      1 ZSV         0.0837
     19 C19        12.3900   36.8150    2.1320 C.2       1 ZSV        -0.1125
     20 C20        11.7750   35.6630    1.8410 C.2       1 ZSV        -0.0447
     21 C21         9.5300   36.6200   -2.6540 C.2       1 ZSV         0.2019
     22 C22        11.4810   31.2840   -0.8200 C.2       1 ZSV         0.0515
     23 C23        12.2680   28.7290    6.4040 C.2       1 ZSV         0.0349
     24 C24        11.2010   28.4200    2.2240 C.3       1 ZSV         0.0988
     25 C25        11.1370   29.0170    3.6090 C.3       1 ZSV         0.1061
     26 C26         5.6500   32.2160    2.1510 C.3       1 ZSV         0.0579
     27 C27         7.0760   36.5700   -2.3490 C.3       1 ZSV         0.0589
     28 C28        11.8870   35.6830   -1.1480 C.3       1 ZSV         0.0086
     29 C29        10.1880   33.8990   -0.3290 C.3       1 ZSV         0.0003
     30 C30        12.3490   34.5950    0.9630 C.3       1 ZSV        -0.0011
     31 C31        10.8560   28.3320    6.0070 C.3       1 ZSV         0.0029
     32 C32        10.9340   27.8620    4.5730 C.3       1 ZSV        -0.0087
     33 N33         8.2930   36.1490   -3.0020 N.am      1 ZSV        -0.2776
     34 N34        11.6250   34.4420   -0.3490 N.4       1 ZSV         0.2715
     35 O35        11.2640   30.1250   -1.2930 O.co2     1 ZSV        -0.5668
     36 O36        12.3200   29.7960    7.0750 O.co2     1 ZSV        -0.5690
     37 O37         9.7210   37.5290   -1.8590 O.2       1 ZSV        -0.3884
     38 O38        12.1170   32.1790   -1.4250 O.co2     1 ZSV        -0.5668
     39 O39        13.2150   27.9690    6.0590 O.co2     1 ZSV        -0.5690
     40 O40        11.4330   29.4200    1.2350 O.3       1 ZSV        -0.3168
     41 O41        10.0480   29.9320    3.7080 O.3       1 ZSV        -0.3195
     42 O42         6.0630   33.5730    2.3280 O.3       1 ZSV        -0.3257
     43 H1         11.5900   34.9737   -6.4151 H         1 ZSV         0.0572
     44 H2         13.5486   34.1799   -5.1629 H         1 ZSV         0.0635
     45 H3          9.7229   36.0922   -5.2480 H         1 ZSV         0.0651
     46 H4         13.6648   34.5266   -2.7219 H         1 ZSV         0.0570
     47 H5          9.0067   33.9832    2.0502 H         1 ZSV         0.0445
     48 H6          7.2071   37.3531    0.2135 H         1 ZSV         0.0531
     49 H7          6.3267   33.9659   -2.2165 H         1 ZSV         0.0531
     50 H8          8.9253   32.2379    3.7889 H         1 ZSV         0.0514
     51 H9          6.7552   36.0145    2.2227 H         1 ZSV         0.0525
     52 H10         5.8912   32.6016   -0.1996 H         1 ZSV         0.0525
     53 H11        11.9045   37.5428    2.7805 H         1 ZSV         0.0292
     54 H12        13.3761   37.0249    1.7204 H         1 ZSV         0.0292
     55 H13        10.7900   35.4905    2.2721 H         1 ZSV         0.0725
     56 H14        10.2471   27.9170    2.0070 H         1 ZSV         0.0641
     57 H15        12.0191   27.6856    2.1886 H         1 ZSV         0.0641
     58 H16        12.0766   29.5411    3.8378 H         1 ZSV         0.0671
     59 H17         5.4869   31.7512    3.1345 H         1 ZSV         0.0575
     60 H18         6.4311   31.6627    1.6090 H         1 ZSV         0.0575
     61 H19         4.7142   32.1899    1.5734 H         1 ZSV         0.0575
     62 H20         7.1740   37.6248   -2.0527 H         1 ZSV         0.0661
     63 H21         6.2362   36.4628   -3.0513 H         1 ZSV         0.0661
     64 H22        11.1663   36.4529   -0.8353 H         1 ZSV         0.0995
     65 H23        12.9087   36.0258   -0.9274 H         1 ZSV         0.0995
     66 H24         9.4851   34.6960   -0.0449 H         1 ZSV         0.0966
     67 H25         9.9167   33.5070   -1.3203 H         1 ZSV         0.0966
     68 H26        12.2992   33.6373    1.5018 H         1 ZSV         0.0998
     69 H27        13.3998   34.8438    0.7537 H         1 ZSV         0.0998
     70 H28        10.1804   29.1963    6.0881 H         1 ZSV         0.0431
     71 H29        10.4924   27.5204    6.6544 H         1 ZSV         0.0431
     72 H30        11.7775   27.1631    4.4733 H         1 ZSV         0.0312
     73 H31         9.9974   27.3453    4.3167 H         1 ZSV         0.0312
     74 H32         8.2290   35.4815   -3.7439 H         1 ZSV         0.1866
     75 H33        12.1282   33.7149   -0.8329 H         1 ZSV         0.2082
@<TRIPOS>BOND
     1    2    1 ar 
     2    3    1 ar 
     3    4    2 ar 
     4   11    3 ar 
     5   14    4 ar 
     6    8    5 ar 
     7    5   15 ar 
     8    6    9 ar 
     9   13    6 ar 
    10    7   10 ar 
    11   13    7 ar 
    12   16    8 ar 
    13    9   18 ar 
    14   10   18 ar 
    15   14   11 ar 
    16   11   21 1  
    17   12   15 ar 
    18   17   12 ar 
    19   12   22 1  
    20   27   13 1  
    21   28   14 1  
    22   15   29 1  
    23   16   17 ar 
    24   41   16 1  
    25   40   17 1  
    26   18   42 1  
    27   20   19 2  
    28   30   20 1  
    29   21   33 am 
    30   21   37 2  
    31   22   35 ar 
    32   22   38 ar 
    33   31   23 1  
    34   23   36 ar 
    35   23   39 ar 
    36   25   24 1  
    37   24   40 1  
    38   32   25 1  
    39   25   41 1  
    40   42   26 1  
    41   33   27 1  
    42   34   28 1  
    43   29   34 1  
    44   34   30 1  
    45   31   32 1  
    46    1   43 1  
    47    2   44 1  
    48    3   45 1  
    49    4   46 1  
    50    5   47 1  
    51    6   48 1  
    52    7   49 1  
    53    8   50 1  
    54    9   51 1  
    55   10   52 1  
    56   19   53 1  
    57   19   54 1  
    58   20   55 1  
    59   24   56 1  
    60   24   57 1  
    61   25   58 1  
    62   26   59 1  
    63   26   60 1  
    64   26   61 1  
    65   27   62 1  
    66   27   63 1  
    67   28   64 1  
    68   28   65 1  
    69   29   66 1  
    70   29   67 1  
    71   30   68 1  
    72   30   69 1  
    73   31   70 1  
    74   31   71 1  
    75   32   72 1  
    76   32   73 1  
    77   33   74 1  
    78   34   75 1  
@<TRIPOS>SUBSTRUCTURE
     1 ZSV         1

