### 
### Created by X-TOOL on Mon Sep 10 21:13:15 2018
### 

@<TRIPOS>MOLECULE
4cfe_ligand
   48    52     1     0     0
SMALL
GAST_HUCK


@<TRIPOS>ATOM
      1 C6        511.4860   45.8110 1051.4520 C.ar      1 992        -0.0274
      2 C21       512.5260   45.6400 1050.5010 C.ar      1 992        -0.0688
      3 C5        510.3600   44.9360 1051.4700 C.ar      1 992         0.0660
      4 N7        509.5620   45.3840 1052.4950 N.pl3     1 992        -0.2685
      5 C4        510.2950   43.8960 1050.5330 C.ar      1 992        -0.0425
      6 C3        511.3370   43.7440 1049.6100 C.ar      1 992        -0.0696
      7 C2        512.4330   44.5860 1049.5820 C.ar      1 992        -0.0414
      8 C1        508.2980   44.7730 1052.8669 C.3       1 992         0.0408
      9 C7        513.5010   44.3400 1048.5420 C.ar      1 992        -0.0272
     10 C10       514.8260   44.0270 1048.9110 C.ar      1 992         0.0281
     11 C11       515.7950   43.7950 1047.9160 C.ar      1 992        -0.0534
     12 C12       515.4510   43.8630 1046.5640 C.ar      1 992         0.0178
     13 C13       514.1070   44.1740 1046.1980 C.ar      1 992         0.0782
     14 C14       513.1580   44.4050 1047.1870 C.ar      1 992        -0.0374
     15 N21       516.1530   43.6910 1045.3970 N.2       1 992        -0.2944
     16 N22       514.0450   44.1780 1044.8110 N.pl3     1 992        -0.2180
     17 C23       515.2700   43.8910 1044.4260 C.2       1 992         0.2925
     18 O25       515.6380   43.7910 1043.0740 O.3       1 992        -0.2029
     19 C26       514.8140   44.5710 1042.2419 C.ar      1 992         0.1260
     20 C27       515.0810   45.8970 1042.0551 C.ar      1 992        -0.0302
     21 C28       514.2870   46.6710 1041.2340 C.ar      1 992        -0.0634
     22 C29       513.1790   46.1100 1040.5630 C.ar      1 992        -0.0409
     23 C30       512.8980   44.7170 1040.7531 C.ar      1 992         0.0047
     24 C31       513.7350   43.9740 1041.5959 C.ar      1 992        -0.0188
     25 C32       512.3080   46.9600 1039.6639 C.3       1 992        -0.0332
     26 CL1       515.2790   43.9370 1050.5840 Cl        1 992        -0.0817
     27 C8        511.2990   46.7570 1052.4860 C.2       1 992        -0.0637
     28 C9        510.0940   46.4370 1053.0920 C.2       1 992         0.0241
     29 C18       511.7540   44.0740 1040.0790 C.2       1 992         0.0565
     30 O19       510.6400   43.9820 1040.6720 O.co2     1 992        -0.5630
     31 O20       511.8910   43.6220 1038.9270 O.co2     1 992        -0.5630
     32 H1        513.3763   46.3122 1050.4858 H         1 992         0.0534
     33 H2        509.4492   43.2181 1050.5228 H         1 992         0.0547
     34 H3        511.2821   42.9354 1048.8901 H         1 992         0.0531
     35 H4        507.8613   45.3210 1053.7148 H         1 992         0.0566
     36 H5        508.4681   43.7254 1053.1559 H         1 992         0.0566
     37 H6        507.6072   44.8099 1052.0117 H         1 992         0.0566
     38 H7        516.8146   43.5621 1048.2012 H         1 992         0.0533
     39 H8        512.1379   44.6388 1046.9045 H         1 992         0.0530
     40 H9        513.2244   44.3639 1044.2169 H         1 992         0.2332
     41 H10       515.9284   46.3478 1042.5588 H         1 992         0.0564
     42 H11       514.5167   47.7222 1041.1025 H         1 992         0.0541
     43 H12       513.5395   42.9186 1041.7472 H         1 992         0.0574
     44 H13       512.6892   47.9918 1039.6531 H         1 992         0.0381
     45 H14       511.2752   46.9547 1040.0424 H         1 992         0.0381
     46 H15       512.3265   46.5516 1038.6427 H         1 992         0.0381
     47 H16       511.9679   47.5738 1052.7531 H         1 992         0.0286
     48 H17       509.6527   46.9715 1053.9319 H         1 992         0.0935
@<TRIPOS>BOND
     1    1    2 ar 
     2    1    3 ar 
     3    1   27 1  
     4    2    7 ar 
     5    3    4 1  
     6    3    5 ar 
     7    4    8 1  
     8    4   28 1  
     9    5    6 ar 
    10    6    7 ar 
    11    7    9 1  
    12    9   10 ar 
    13    9   14 ar 
    14   10   11 ar 
    15   10   26 1  
    16   11   12 ar 
    17   12   13 ar 
    18   12   15 1  
    19   13   14 ar 
    20   13   16 1  
    21   15   17 2  
    22   16   17 1  
    23   17   18 1  
    24   18   19 1  
    25   19   20 ar 
    26   19   24 ar 
    27   20   21 ar 
    28   21   22 ar 
    29   22   23 ar 
    30   22   25 1  
    31   23   24 ar 
    32   23   29 1  
    33   27   28 2  
    34   29   30 ar 
    35   29   31 ar 
    36    2   32 1  
    37    5   33 1  
    38    6   34 1  
    39    8   35 1  
    40    8   36 1  
    41    8   37 1  
    42   11   38 1  
    43   14   39 1  
    44   16   40 1  
    45   20   41 1  
    46   21   42 1  
    47   24   43 1  
    48   25   44 1  
    49   25   45 1  
    50   25   46 1  
    51   27   47 1  
    52   28   48 1  
@<TRIPOS>SUBSTRUCTURE
     1 992         1

