### 
### Created by X-TOOL on Mon Sep 10 21:13:15 2018
### 

@<TRIPOS>MOLECULE
4cff_ligand
   38    41     1     0     0
SMALL
GAST_HUCK


@<TRIPOS>ATOM
      1 OAD       -60.9620  -15.0400  145.2590 O.3       1 C1V        -0.3143
      2 CAT       -59.8520  -14.5590  145.9680 C.ar      1 C1V         0.1411
      3 CAZ       -58.7780  -13.8620  145.3060 C.ar      1 C1V         0.0453
      4 CAU       -59.7340  -14.7400  147.3850 C.ar      1 C1V         0.1725
      5 CAE       -60.7400  -15.4440  148.2770 C.1       1 C1V         0.0856
      6 NAA       -61.4450  -15.9610  149.0110 N.1       1 C1V        -0.3488
      7 CAX       -58.6020  -14.2380  148.0330 C.ar      1 C1V         0.1793
      8 OAB       -58.4810  -14.4130  149.4190 O.3       1 C1V        -0.3109
      9 NAO       -57.6470  -13.6040  147.3730 N.ar      1 C1V        -0.2685
     10 CAY       -57.6920  -13.3990  146.0520 C.ar      1 C1V         0.0968
     11 SAP       -56.6180  -12.6290  144.9810 S.3       1 C1V        -0.0213
     12 CAN       -57.4750  -12.8460  143.5430 C.2       1 C1V         0.0067
     13 CAW       -58.6540  -13.5360  143.8450 C.2       1 C1V        -0.0128
     14 CAS       -59.6500  -13.8910  142.7110 C.ar      1 C1V        -0.0325
     15 CAL       -59.2870  -14.8690  141.7900 C.ar      1 C1V        -0.0605
     16 CAJ       -60.1470  -15.2050  140.7410 C.ar      1 C1V        -0.0597
     17 CAK       -60.8650  -13.2310  142.5780 C.ar      1 C1V        -0.0605
     18 CAI       -61.7340  -13.5710  141.5280 C.ar      1 C1V        -0.0597
     19 CAR       -61.3760  -14.5580  140.6190 C.ar      1 C1V        -0.0245
     20 CAV       -62.3260  -14.9280  139.4530 C.ar      1 C1V         0.0105
     21 CAM       -62.7140  -13.9230  138.5850 C.ar      1 C1V        -0.0625
     22 CAG       -63.5610  -14.2060  137.5250 C.ar      1 C1V        -0.0723
     23 CAF       -64.0170  -15.5030  137.3310 C.ar      1 C1V        -0.0705
     24 CAH       -63.6240  -16.5110  138.1990 C.ar      1 C1V        -0.0319
     25 CAQ       -62.7810  -16.2290  139.2590 C.ar      1 C1V         0.0975
     26 OAC       -62.3900  -17.2700  140.1350 O.3       1 C1V        -0.3306
     27 H1        -61.5596  -15.4679  145.8608 H         1 C1V         0.2593
     28 H2        -59.2398  -14.8823  149.7452 H         1 C1V         0.2572
     29 H3        -57.1650  -12.5086  142.5551 H         1 C1V         0.0781
     30 H4        -58.3321  -15.3729  141.8868 H         1 C1V         0.0589
     31 H5        -59.8596  -15.9661  140.0246 H         1 C1V         0.0600
     32 H6        -61.1419  -12.4554  143.2828 H         1 C1V         0.0589
     33 H7        -62.6858  -13.0620  141.4271 H         1 C1V         0.0600
     34 H8        -62.3545  -12.9113  138.7343 H         1 C1V         0.0590
     35 H9        -63.8669  -13.4161  136.8486 H         1 C1V         0.0526
     36 H10       -64.6791  -15.7275  136.5025 H         1 C1V         0.0588
     37 H11       -63.9789  -17.5238  138.0461 H         1 C1V         0.0541
     38 H12       -61.9316  -17.9410  139.6430 H         1 C1V         0.2496
@<TRIPOS>BOND
     1    1    2 1  
     2    2    3 ar 
     3    2    4 ar 
     4    3   10 ar 
     5    3   13 1  
     6    4    5 1  
     7    4    7 ar 
     8    5    6 3  
     9    7    8 1  
    10    7    9 ar 
    11    9   10 ar 
    12   10   11 1  
    13   11   12 1  
    14   12   13 2  
    15   13   14 1  
    16   14   15 ar 
    17   14   17 ar 
    18   15   16 ar 
    19   16   19 ar 
    20   17   18 ar 
    21   18   19 ar 
    22   19   20 1  
    23   20   21 ar 
    24   20   25 ar 
    25   21   22 ar 
    26   22   23 ar 
    27   23   24 ar 
    28   24   25 ar 
    29   25   26 1  
    30    1   27 1  
    31    8   28 1  
    32   12   29 1  
    33   15   30 1  
    34   16   31 1  
    35   17   32 1  
    36   18   33 1  
    37   21   34 1  
    38   22   35 1  
    39   23   36 1  
    40   24   37 1  
    41   26   38 1  
@<TRIPOS>SUBSTRUCTURE
     1 C1V         1

