### 
### Created by X-TOOL on Mon Sep 10 21:13:18 2018
### 

@<TRIPOS>MOLECULE
4cfl_ligand
   42    45     1     0     0
SMALL
GAST_HUCK


@<TRIPOS>ATOM
      1 O          22.1830   49.0130   -0.2320 O.2       1 8DQ        -0.4341
      2 C          23.1670   49.7020   -0.5250 C.2       1 8DQ         0.0869
      3 C8         24.4840   49.4790    0.1040 C.ar      1 8DQ         0.0550
      4 C7         24.6710   48.5040    1.0850 C.ar      1 8DQ        -0.0511
      5 C6         25.9230   48.3120    1.6500 C.ar      1 8DQ        -0.0650
      6 C5         27.0040   49.0780    1.2450 C.ar      1 8DQ        -0.0555
      7 C3         25.5810   50.2490   -0.2900 C.ar      1 8DQ         0.1607
      8 C4         26.8530   50.0530    0.2630 C.ar      1 8DQ         0.0263
      9 C9         28.0510   50.8160   -0.1930 C.ar      1 8DQ        -0.0190
     10 C14        28.9190   51.4000    0.7270 C.ar      1 8DQ        -0.0564
     11 C13        30.0320   52.1060    0.3000 C.ar      1 8DQ        -0.0628
     12 C12        30.2950   52.2420   -1.0430 C.ar      1 8DQ        -0.0632
     13 C11        29.4500   51.6690   -1.9670 C.ar      1 8DQ        -0.0628
     14 C10        28.3370   50.9590   -1.5490 C.ar      1 8DQ        -0.0564
     15 O1         25.4560   51.2230   -1.2570 O.3       1 8DQ        -0.2039
     16 C2         24.2240   51.4340   -1.8540 C.2       1 8DQ         0.2140
     17 C1         23.0890   50.7370   -1.5250 C.2       1 8DQ         0.0079
     18 N          24.3730   52.4090   -2.8620 N.pl3     1 8DQ        -0.2526
     19 C18        25.6170   53.1810   -2.8980 C.3       1 8DQ         0.0773
     20 C17        26.1920   53.0900   -4.2870 C.3       1 8DQ        -0.0119
     21 N1         25.1650   53.3610   -5.3090 N.4       1 8DQ         0.2300
     22 C16        24.0290   52.4310   -5.2330 C.3       1 8DQ        -0.0119
     23 C15        23.3370   52.4990   -3.8940 C.3       1 8DQ         0.0773
     24 H          23.8344   47.8944    1.4066 H         1 8DQ         0.0641
     25 H          26.0569   47.5559    2.4152 H         1 8DQ         0.0553
     26 H          27.9761   48.9167    1.6968 H         1 8DQ         0.0631
     27 H          28.7215   51.3010    1.7882 H         1 8DQ         0.0609
     28 H          30.6989   52.5534    1.0281 H         1 8DQ         0.0614
     29 H          31.1647   52.7985   -1.3731 H         1 8DQ         0.0605
     30 H          29.6569   51.7741   -3.0259 H         1 8DQ         0.0614
     31 H          27.6807   50.5093   -2.2853 H         1 8DQ         0.0609
     32 H          22.1419   50.9627   -2.0129 H         1 8DQ         0.0124
     33 H          26.3323   52.7673   -2.1719 H         1 8DQ         0.0586
     34 H          25.4093   54.2323   -2.6500 H         1 8DQ         0.0586
     35 H          26.5947   52.0783   -4.4428 H         1 8DQ         0.0835
     36 H          27.0023   53.8269   -4.3887 H         1 8DQ         0.0835
     37 H          25.5878   53.2796   -6.2204 H         1 8DQ         0.2015
     38 H          24.8220   54.3001   -5.1803 H         1 8DQ         0.2015
     39 H          24.3965   51.4065   -5.3921 H         1 8DQ         0.0835
     40 H          23.3056   52.6876   -6.0209 H         1 8DQ         0.0835
     41 H          22.7933   53.4506   -3.7994 H         1 8DQ         0.0586
     42 H          22.6310   51.6616   -3.7924 H         1 8DQ         0.0586
@<TRIPOS>BOND
     1    1    2 2  
     2    2    3 1  
     3    2   17 1  
     4    3    4 ar 
     5    3    7 ar 
     6    4    5 ar 
     7    5    6 ar 
     8    6    8 ar 
     9    7    8 ar 
    10    7   15 1  
    11    8    9 1  
    12    9   10 ar 
    13    9   14 ar 
    14   10   11 ar 
    15   11   12 ar 
    16   12   13 ar 
    17   13   14 ar 
    18   15   16 1  
    19   16   17 2  
    20   16   18 1  
    21   18   19 1  
    22   18   23 1  
    23   19   20 1  
    24   20   21 1  
    25   21   22 1  
    26   22   23 1  
    27    4   24 1  
    28    5   25 1  
    29    6   26 1  
    30   10   27 1  
    31   11   28 1  
    32   12   29 1  
    33   13   30 1  
    34   14   31 1  
    35   17   32 1  
    36   19   33 1  
    37   19   34 1  
    38   20   35 1  
    39   20   36 1  
    40   21   37 1  
    41   21   38 1  
    42   22   39 1  
    43   22   40 1  
    44   23   41 1  
    45   23   42 1  
@<TRIPOS>SUBSTRUCTURE
     1 8DQ         1

