### 
### Created by X-TOOL on Mon Sep 10 21:13:19 2018
### 

@<TRIPOS>MOLECULE
4cfm_ligand
   48    51     1     0     0
SMALL
GAST_HUCK


@<TRIPOS>ATOM
      1 CAU        -4.7020  -20.3020   21.0160 C.3       1 4QE        -0.0477
      2 CAV        -3.8310  -19.7980   19.9450 C.3       1 4QE        -0.0527
      3 CAW        -3.1670  -20.9960   19.2670 C.3       1 4QE        -0.0530
      4 CAX        -4.2360  -21.7330   18.5010 C.3       1 4QE        -0.0527
      5 CAY        -5.2530  -22.2920   19.4680 C.3       1 4QE        -0.0477
      6 CAT        -5.7840  -21.2440   20.4780 C.3       1 4QE        -0.0121
      7 CAS        -6.2660  -22.0550   21.6280 C.3       1 4QE         0.0800
      8 O6         -7.0010  -21.2280   22.4980 O.3       1 4QE        -0.2931
      9 C6         -7.8920  -21.9750   23.2330 C.ar      1 4QE         0.1749
     10 N1         -9.1910  -21.6400   23.2160 N.ar      1 4QE        -0.2439
     11 C2        -10.0550  -22.3580   23.9410 C.ar      1 4QE         0.1559
     12 N2        -11.3340  -22.0480   23.9390 N.pl3     1 4QE        -0.3109
     13 N3         -9.6420  -23.3980   24.6710 N.ar      1 4QE        -0.2606
     14 C4         -8.3610  -23.7320   24.6920 C.ar      1 4QE         0.1422
     15 N4         -7.7600  -24.7140   25.3390 N.pl3     1 4QE        -0.2397
     16 C5         -7.4660  -23.0310   23.9770 C.ar      1 4QE         0.1021
     17 N7         -6.2760  -23.6010   24.1930 N.2       1 4QE        -0.3032
     18 C8         -6.4760  -24.6400   25.0260 C.2       1 4QE         0.1371
     19 CAJ        -5.5330  -25.4880   25.4950 C.ar      1 4QE         0.0344
     20 CAK        -5.5720  -25.9080   26.8340 C.ar      1 4QE        -0.0514
     21 CAL        -4.6040  -26.7730   27.3570 C.ar      1 4QE        -0.0643
     22 CAM        -3.5890  -27.2530   26.5320 C.ar      1 4QE        -0.0652
     23 CAN        -3.5380  -26.8570   25.1940 C.ar      1 4QE        -0.0556
     24 CAO        -4.5040  -25.9830   24.6710 C.ar      1 4QE        -0.0278
     25 CAP        -4.3900  -25.6090   23.3290 C.3       1 4QE        -0.0276
     26 H          -5.1881  -19.4480   21.5104 H         1 4QE         0.0269
     27 H          -4.0872  -20.8476   21.7470 H         1 4QE         0.0269
     28 H          -3.0615  -19.1372   20.3706 H         1 4QE         0.0265
     29 H          -4.4292  -19.2387   19.2106 H         1 4QE         0.0265
     30 H          -2.7238  -21.6585   20.0250 H         1 4QE         0.0265
     31 H          -2.3822  -20.6503   18.5782 H         1 4QE         0.0265
     32 H          -3.7785  -22.5566   17.9332 H         1 4QE         0.0265
     33 H          -4.7330  -21.0401   17.8061 H         1 4QE         0.0265
     34 H          -4.7842  -23.1124   20.0312 H         1 4QE         0.0269
     35 H          -6.1043  -22.6827   18.8913 H         1 4QE         0.0269
     36 H          -6.5968  -20.6567   20.0260 H         1 4QE         0.0328
     37 H          -5.4056  -22.4816   22.1644 H         1 4QE         0.0630
     38 H          -6.9095  -22.8683   21.2614 H         1 4QE         0.0630
     39 H         -11.6695  -21.2493   23.3818 H         1 4QE         0.1810
     40 H         -11.9996  -22.6041   24.4946 H         1 4QE         0.1810
     41 H          -8.2032  -25.4021   25.9642 H         1 4QE         0.2338
     42 H          -6.3697  -25.5544   27.4772 H         1 4QE         0.0637
     43 H          -4.6438  -27.0682   28.3993 H         1 4QE         0.0570
     44 H          -2.8417  -27.9314   26.9274 H         1 4QE         0.0626
     45 H          -2.7457  -27.2276   24.5537 H         1 4QE         0.0565
     46 H          -5.2126  -24.9272   23.0673 H         1 4QE         0.0406
     47 H          -4.4402  -26.5051   22.6931 H         1 4QE         0.0406
     48 H          -3.4277  -25.1003   23.1706 H         1 4QE         0.0406
@<TRIPOS>BOND
     1    1    2 1  
     2    1    6 1  
     3    2    3 1  
     4    3    4 1  
     5    4    5 1  
     6    5    6 1  
     7    6    7 1  
     8    7    8 1  
     9    8    9 1  
    10    9   10 ar 
    11    9   16 ar 
    12   10   11 ar 
    13   11   12 1  
    14   11   13 ar 
    15   13   14 ar 
    16   14   15 1  
    17   14   16 ar 
    18   15   18 1  
    19   16   17 1  
    20   17   18 2  
    21   18   19 1  
    22   19   20 ar 
    23   19   24 ar 
    24   20   21 ar 
    25   21   22 ar 
    26   22   23 ar 
    27   23   24 ar 
    28   24   25 1  
    29    1   26 1  
    30    1   27 1  
    31    2   28 1  
    32    2   29 1  
    33    3   30 1  
    34    3   31 1  
    35    4   32 1  
    36    4   33 1  
    37    5   34 1  
    38    5   35 1  
    39    6   36 1  
    40    7   37 1  
    41    7   38 1  
    42   12   39 1  
    43   12   40 1  
    44   15   41 1  
    45   20   42 1  
    46   21   43 1  
    47   22   44 1  
    48   23   45 1  
    49   25   46 1  
    50   25   47 1  
    51   25   48 1  
@<TRIPOS>SUBSTRUCTURE
     1 4QE         1

