### 
### Created by X-TOOL on Mon Sep 10 21:13:17 2018
### 

@<TRIPOS>MOLECULE
4cft_ligand
   44    46     1     0     0
SMALL
GAST_HUCK


@<TRIPOS>ATOM
      1 F23        17.1450   18.4350   39.1190 F         1 M48        -0.1853
      2 C25        16.9650   14.7930   39.2240 C.ar      1 M48        -0.0704
      3 C24        17.4640   16.0910   39.3490 C.ar      1 M48        -0.0352
      4 C23        16.6640   17.1810   38.9970 C.ar      1 M48         0.1258
      5 C22        15.3650   16.9700   38.5200 C.ar      1 M48        -0.0268
      6 C26        15.6670   14.5820   38.7520 C.ar      1 M48        -0.0642
      7 C21        14.8610   15.6700   38.3910 C.ar      1 M48        -0.0399
      8 C15        13.4500   15.4570   37.8730 C.3       1 M48         0.0203
      9 C14        13.4200   14.5110   36.6710 C.3       1 M48        -0.0240
     10 N13        12.8030   15.1140   35.4980 N.4       1 M48         0.2300
     11 C12        11.6340   14.5490   34.8320 C.3       1 M48        -0.0234
     12 C11        11.6750   13.0310   34.7930 C.3       1 M48         0.0224
     13 C08        10.7180   12.3940   33.8060 C.ar      1 M48        -0.0368
     14 C07        11.2160   11.3750   32.9920 C.ar      1 M48        -0.0558
     15 C06        10.3860   10.7470   32.0690 C.ar      1 M48        -0.0545
     16 C09         9.3570   12.7510   33.7170 C.ar      1 M48        -0.0481
     17 C10         8.5180   12.1050   32.7900 C.ar      1 M48         0.0193
     18 N01         7.2030   12.4150   32.6810 N.ar      1 M48        -0.2967
     19 C05         9.0460   11.1020   31.9650 C.ar      1 M48        -0.0074
     20 C04         8.2380   10.4570   31.0380 C.ar      1 M48        -0.0424
     21 C03         6.8980   10.8050   30.9210 C.ar      1 M48        -0.0117
     22 C02         6.3970   11.7910   31.7830 C.ar      1 M48         0.1045
     23 N02         5.1090   12.1110   31.7200 N.pl3     1 M48        -0.3197
     24 H          17.5863   13.9467   39.4939 H         1 M48         0.0589
     25 H          18.4702   16.2527   39.7184 H         1 M48         0.0546
     26 H          14.7459   17.8176   38.2490 H         1 M48         0.0542
     27 H          15.2818   13.5725   38.6647 H         1 M48         0.0523
     28 H          13.0315   16.4285   37.5714 H         1 M48         0.0478
     29 H          12.8364   15.0277   38.6787 H         1 M48         0.0478
     30 H          12.8500   13.6111   36.9453 H         1 M48         0.0837
     31 H          14.4529   14.2283   36.4195 H         1 M48         0.0837
     32 H          13.5260   15.1595   34.7972 H         1 M48         0.2017
     33 H          12.5412   16.0481   35.7719 H         1 M48         0.2017
     34 H          11.5955   14.9291   33.8005 H         1 M48         0.0839
     35 H          10.7302   14.8653   35.3734 H         1 M48         0.0839
     36 H          11.4298   12.6562   35.7977 H         1 M48         0.0487
     37 H          12.6967   12.7231   34.5261 H         1 M48         0.0487
     38 H          12.2531   11.0721   33.0795 H         1 M48         0.0571
     39 H          10.7880    9.9734   31.4247 H         1 M48         0.0639
     40 H           8.9565   13.5237   34.3632 H         1 M48         0.0512
     41 H           8.6532    9.6811   30.4049 H         1 M48         0.0748
     42 H           6.2594   10.3288   30.1858 H         1 M48         0.0626
     43 H           4.4941   11.6405   31.0407 H         1 M48         0.1794
     44 H           4.7254   12.8296   32.3504 H         1 M48         0.1794
@<TRIPOS>BOND
     1    4    1 1  
     2    3    2 ar 
     3    2    6 ar 
     4    3    4 ar 
     5    4    5 ar 
     6    5    7 ar 
     7    6    7 ar 
     8    7    8 1  
     9    8    9 1  
    10    9   10 1  
    11   10   11 1  
    12   11   12 1  
    13   12   13 1  
    14   13   14 ar 
    15   13   16 ar 
    16   14   15 ar 
    17   15   19 ar 
    18   16   17 ar 
    19   17   18 ar 
    20   17   19 ar 
    21   18   22 ar 
    22   19   20 ar 
    23   20   21 ar 
    24   21   22 ar 
    25   22   23 1  
    26    2   24 1  
    27    3   25 1  
    28    5   26 1  
    29    6   27 1  
    30    8   28 1  
    31    8   29 1  
    32    9   30 1  
    33    9   31 1  
    34   10   32 1  
    35   10   33 1  
    36   11   34 1  
    37   11   35 1  
    38   12   36 1  
    39   12   37 1  
    40   14   38 1  
    41   15   39 1  
    42   16   40 1  
    43   20   41 1  
    44   21   42 1  
    45   23   43 1  
    46   23   44 1  
@<TRIPOS>SUBSTRUCTURE
     1 M48         1

