### 
### Created by X-TOOL on Mon Sep 10 21:13:18 2018
### 

@<TRIPOS>MOLECULE
4cfu_ligand
   50    53     1     0     0
SMALL
GAST_HUCK


@<TRIPOS>ATOM
      1 CAW        -5.9800   21.6440  -19.4150 C.3       1 2WC        -0.0477
      2 CAX        -4.7150   22.2930  -18.9630 C.3       1 2WC        -0.0527
      3 CAY        -3.7070   21.2410  -18.3820 C.3       1 2WC        -0.0530
      4 CAZ        -3.4980   19.9830  -19.2850 C.3       1 2WC        -0.0527
      5 CBA        -4.9260   19.3880  -19.7090 C.3       1 2WC        -0.0477
      6 CAV        -5.5780   20.5560  -20.4340 C.3       1 2WC        -0.0123
      7 CAU        -6.7180   20.1050  -21.2500 C.3       1 2WC         0.0788
      8 O6         -6.4370   20.9030  -22.4360 O.3       1 2WC        -0.2937
      9 C6         -7.5220   21.5090  -23.0210 C.ar      1 2WC         0.1951
     10 N1         -8.8070   21.1460  -22.7510 N.ar      1 2WC        -0.2443
     11 C2         -9.8240   21.7830  -23.4110 C.ar      1 2WC         0.1517
     12 N2        -11.0640   21.3910  -23.1720 N.pl3     1 2WC        -0.3128
     13 N3         -9.5700   22.7450  -24.3190 N.ar      1 2WC        -0.2874
     14 C4         -8.2810   23.0830  -24.5530 C.ar      1 2WC         0.0850
     15 N9         -7.7440   24.0310  -25.3130 N.2       1 2WC        -0.2936
     16 C5         -7.2410   22.5040  -23.9010 C.ar      1 2WC         0.1503
     17 N7         -6.0650   23.0810  -24.3060 N.pl3     1 2WC        -0.2455
     18 C8         -6.3920   24.0210  -25.2050 C.2       1 2WC         0.1422
     19 CAJ        -5.5740   24.8640  -25.8910 C.ar      1 2WC         0.0440
     20 CAK        -5.8550   25.1380  -27.2340 C.ar      1 2WC        -0.0462
     21 CAL        -5.0360   25.9990  -27.9860 C.ar      1 2WC        -0.0588
     22 CAM        -3.9330   26.6480  -27.3880 C.ar      1 2WC        -0.0492
     23 CAN        -3.6380   26.3820  -26.0390 C.ar      1 2WC         0.0183
     24 CAQ        -2.5340   27.0240  -25.4230 C.2       1 2WC         0.0599
     25 OAS        -2.7560   27.8640  -24.5080 O.co2     1 2WC        -0.5629
     26 OAR        -1.3320   26.7230  -25.7160 O.co2     1 2WC        -0.5629
     27 CAO        -4.4520   25.5170  -25.2740 C.ar      1 2WC        -0.0104
     28 CAP        -4.1370   25.2740  -23.8930 C.3       1 2WC        -0.0241
     29 H          -6.6379   22.3857  -19.8915 H         1 2WC         0.0269
     30 H          -6.4999   21.1888  -18.5591 H         1 2WC         0.0269
     31 H          -4.9508   23.0314  -18.1826 H         1 2WC         0.0265
     32 H          -4.2477   22.8011  -19.8194 H         1 2WC         0.0265
     33 H          -4.0849   20.9048  -17.4052 H         1 2WC         0.0265
     34 H          -2.7331   21.7345  -18.2483 H         1 2WC         0.0265
     35 H          -2.9338   19.2208  -18.7276 H         1 2WC         0.0265
     36 H          -2.9368   20.2680  -20.1871 H         1 2WC         0.0265
     37 H          -5.5110   19.0945  -18.8249 H         1 2WC         0.0269
     38 H          -4.8114   18.5216  -20.3770 H         1 2WC         0.0269
     39 H          -4.8337   20.9922  -21.1164 H         1 2WC         0.0327
     40 H          -7.6857   20.3609  -20.7938 H         1 2WC         0.0627
     41 H          -6.6836   19.0249  -21.4553 H         1 2WC         0.0627
     42 H         -11.2461   20.6545  -22.4754 H         1 2WC         0.1795
     43 H         -11.8479   21.8222  -23.6824 H         1 2WC         0.1795
     44 H          -5.1170   22.8400  -23.9833 H         1 2WC         0.2305
     45 H          -6.7181   24.6791  -27.7025 H         1 2WC         0.0673
     46 H          -5.2532   26.1663  -29.0348 H         1 2WC         0.0582
     47 H          -3.3242   27.3394  -27.9593 H         1 2WC         0.0673
     48 H          -4.8759   24.5806  -23.4649 H         1 2WC         0.0418
     49 H          -4.1614   26.2238  -23.3387 H         1 2WC         0.0418
     50 H          -3.1327   24.8315  -23.8183 H         1 2WC         0.0418
@<TRIPOS>BOND
     1    1    2 1  
     2    1    6 1  
     3    2    3 1  
     4    3    4 1  
     5    4    5 1  
     6    5    6 1  
     7    6    7 1  
     8    7    8 1  
     9    8    9 1  
    10    9   10 ar 
    11    9   16 ar 
    12   10   11 ar 
    13   11   12 1  
    14   11   13 ar 
    15   13   14 ar 
    16   14   15 1  
    17   14   16 ar 
    18   15   18 2  
    19   16   17 1  
    20   17   18 1  
    21   18   19 1  
    22   19   20 ar 
    23   19   27 ar 
    24   20   21 ar 
    25   21   22 ar 
    26   22   23 ar 
    27   23   24 1  
    28   23   27 ar 
    29   24   25 ar 
    30   24   26 ar 
    31   27   28 1  
    32    1   29 1  
    33    1   30 1  
    34    2   31 1  
    35    2   32 1  
    36    3   33 1  
    37    3   34 1  
    38    4   35 1  
    39    4   36 1  
    40    5   37 1  
    41    5   38 1  
    42    6   39 1  
    43    7   40 1  
    44    7   41 1  
    45   12   42 1  
    46   12   43 1  
    47   17   44 1  
    48   20   45 1  
    49   21   46 1  
    50   22   47 1  
    51   28   48 1  
    52   28   49 1  
    53   28   50 1  
@<TRIPOS>SUBSTRUCTURE
     1 2WC         1

