### 
### Created by X-TOOL on Mon Sep 10 21:13:17 2018
### 

@<TRIPOS>MOLECULE
4cfv_ligand
   49    52     1     0     0
SMALL
GAST_HUCK


@<TRIPOS>ATOM
      1 N1        -32.7740  -15.8740  -29.3380 N.ar      1 75X        -0.2443
      2 C2        -32.4330  -16.1720  -28.0620 C.ar      1 75X         0.1517
      3 N2        -32.4580  -15.1450  -27.2980 N.pl3     1 75X        -0.3128
      4 N3        -32.0490  -17.4370  -27.6830 N.ar      1 75X        -0.2874
      5 C4        -32.1680  -18.4590  -28.6200 C.ar      1 75X         0.0850
      6 C5        -32.5450  -18.1820  -29.9340 C.ar      1 75X         0.1503
      7 C6        -32.8270  -16.8860  -30.2390 C.ar      1 75X         0.1951
      8 O6        -33.2400  -16.5860  -31.5210 O.3       1 75X        -0.2937
      9 N7        -32.5530  -19.3750  -30.6530 N.pl3     1 75X        -0.2458
     10 C8        -32.1790  -20.3720  -29.7750 C.2       1 75X         0.1387
     11 N9        -31.9340  -19.8090  -28.5610 N.2       1 75X        -0.2938
     12 CAK       -33.9490  -15.3050  -31.7410 C.3       1 75X         0.0788
     13 CAL       -34.6650  -15.7820  -32.9340 C.3       1 75X        -0.0123
     14 CAN       -31.8960  -21.6930  -29.9990 C.ar      1 75X         0.0318
     15 CAO       -30.6390  -22.1750  -29.4830 C.ar      1 75X        -0.0598
     16 CAP       -30.1470  -23.4780  -29.6390 C.ar      1 75X        -0.0711
     17 CAQ       -30.9270  -24.4130  -30.3180 C.ar      1 75X        -0.0347
     18 CAR       -32.1420  -23.9410  -30.8560 C.ar      1 75X         0.0956
     19 CAS       -32.6630  -22.5970  -30.7590 C.ar      1 75X         0.0039
     20 CAT       -33.9170  -22.1750  -31.3060 C.3       1 75X        -0.0286
     21 OAU       -32.8720  -24.8240  -31.5520 O.3       1 75X        -0.3357
     22 CAV       -36.2200  -15.8820  -32.7430 C.3       1 75X        -0.0477
     23 CAW       -36.6230  -16.9850  -33.7230 C.3       1 75X        -0.0527
     24 CAX       -36.3890  -16.4650  -35.1560 C.3       1 75X        -0.0530
     25 CAY       -34.9210  -15.9920  -35.4040 C.3       1 75X        -0.0527
     26 CAZ       -34.3010  -15.0410  -34.2540 C.3       1 75X        -0.0477
     27 H         -32.7611  -14.2336  -27.6700 H         1 75X         0.1795
     28 H         -32.1750  -15.2301  -26.3113 H         1 75X         0.1795
     29 H         -32.7920  -19.4908  -31.6482 H         1 75X         0.2306
     30 H         -33.2700  -14.4655  -31.9512 H         1 75X         0.0627
     31 H         -34.6207  -15.0348  -30.9129 H         1 75X         0.0627
     32 H         -34.3187  -16.8163  -33.0762 H         1 75X         0.0327
     33 H         -30.0252  -21.4733  -28.9300 H         1 75X         0.0559
     34 H         -29.1779  -23.7537  -29.2391 H         1 75X         0.0547
     35 H         -30.6166  -25.4459  -30.4264 H         1 75X         0.0563
     36 H         -34.0701  -21.1072  -31.0908 H         1 75X         0.0387
     37 H         -34.7304  -22.7606  -30.8528 H         1 75X         0.0387
     38 H         -33.9139  -22.3328  -32.3946 H         1 75X         0.0387
     39 H         -32.4350  -25.6675  -31.5480 H         1 75X         0.2456
     40 H         -36.7105  -14.9307  -32.9967 H         1 75X         0.0269
     41 H         -36.4732  -16.1610  -31.7095 H         1 75X         0.0269
     42 H         -37.6855  -17.2347  -33.5863 H         1 75X         0.0265
     43 H         -36.0101  -17.8814  -33.5474 H         1 75X         0.0265
     44 H         -37.0653  -15.6162  -35.3353 H         1 75X         0.0265
     45 H         -36.6204  -17.2742  -35.8643 H         1 75X         0.0265
     46 H         -34.8981  -15.4370  -36.3534 H         1 75X         0.0265
     47 H         -34.2848  -16.8856  -35.4861 H         1 75X         0.0265
     48 H         -33.2105  -14.9492  -34.3655 H         1 75X         0.0269
     49 H         -34.7580  -14.0409  -34.2823 H         1 75X         0.0269
@<TRIPOS>BOND
     1    1    2 ar 
     2    1    7 ar 
     3    2    3 1  
     4    2    4 ar 
     5    4    5 ar 
     6    5    6 ar 
     7    5   11 1  
     8    6    7 ar 
     9    6    9 1  
    10    7    8 1  
    11    8   12 1  
    12    9   10 1  
    13   10   11 2  
    14   10   14 1  
    15   12   13 1  
    16   13   22 1  
    17   13   26 1  
    18   14   15 ar 
    19   14   19 ar 
    20   15   16 ar 
    21   16   17 ar 
    22   17   18 ar 
    23   18   19 ar 
    24   18   21 1  
    25   19   20 1  
    26   22   23 1  
    27   23   24 1  
    28   24   25 1  
    29   25   26 1  
    30    3   27 1  
    31    3   28 1  
    32    9   29 1  
    33   12   30 1  
    34   12   31 1  
    35   13   32 1  
    36   15   33 1  
    37   16   34 1  
    38   17   35 1  
    39   20   36 1  
    40   20   37 1  
    41   20   38 1  
    42   21   39 1  
    43   22   40 1  
    44   22   41 1  
    45   23   42 1  
    46   23   43 1  
    47   24   44 1  
    48   24   45 1  
    49   25   46 1  
    50   25   47 1  
    51   26   48 1  
    52   26   49 1  
@<TRIPOS>SUBSTRUCTURE
     1 75X         1

