### 
### Created by X-TOOL on Mon Sep 10 21:13:14 2018
### 

@<TRIPOS>MOLECULE
4cfw_ligand
   53    56     1     0     0
SMALL
GAST_HUCK


@<TRIPOS>ATOM
      1 N1        -33.9570   13.6480   29.9500 N.ar      1 SQ9        -0.2443
      2 C2        -33.6890   14.1170   28.7200 C.ar      1 SQ9         0.1517
      3 N2        -33.6400   13.2870   27.7120 N.pl3     1 SQ9        -0.3128
      4 N3        -33.4540   15.4280   28.5110 N.ar      1 SQ9        -0.2874
      5 C4        -33.5050   16.2830   29.5510 C.ar      1 SQ9         0.0850
      6 C5        -33.8050   15.8550   30.8080 C.ar      1 SQ9         0.1503
      7 C6        -34.0380   14.5290   30.9920 C.ar      1 SQ9         0.1951
      8 O6        -34.2990   14.1010   32.2880 O.3       1 SQ9        -0.2937
      9 N7        -33.8060   16.9240   31.6390 N.pl3     1 SQ9        -0.2456
     10 C8        -33.5240   17.9860   30.8560 C.2       1 SQ9         0.1416
     11 N9        -33.3370   17.6010   29.5780 N.2       1 SQ9        -0.2936
     12 CAK       -35.6320   13.5710   32.5040 C.3       1 SQ9         0.0788
     13 CAL       -35.7420   13.0430   33.9460 C.3       1 SQ9        -0.0123
     14 CAM       -33.4030   19.2760   31.1890 C.ar      1 SQ9         0.0420
     15 CAO       -32.0050   21.2800   31.0350 C.ar      1 SQ9        -0.0605
     16 CAP       -34.9380   13.9660   34.8980 C.3       1 SQ9        -0.0477
     17 CAQ       -35.4510   13.8850   36.3280 C.3       1 SQ9        -0.0527
     18 CAR       -36.9190   14.5450   36.4130 C.3       1 SQ9        -0.0530
     19 CAS       -37.7250   14.3770   35.1090 C.3       1 SQ9        -0.0527
     20 CAT       -37.2760   13.0210   34.3830 C.3       1 SQ9        -0.0477
     21 CAU       -32.2410   19.9310   30.7820 C.ar      1 SQ9        -0.0486
     22 CAV       -32.9750   21.9950   31.7100 C.ar      1 SQ9        -0.0368
     23 CAW       -34.1540   21.3780   32.1290 C.ar      1 SQ9         0.1156
     24 CAX       -34.3960   20.0140   31.8640 C.ar      1 SQ9         0.0014
     25 CAY       -35.5880   19.4140   32.2530 C.3       1 SQ9        -0.0248
     26 SAZ       -35.3190   22.4880   32.9300 S.o2      1 SQ9         0.0645
     27 OBA       -34.6590   23.9120   32.9380 O.2       1 SQ9        -0.1515
     28 NBB       -35.6300   22.1260   34.2980 N.am      1 SQ9        -0.2618
     29 OBC       -36.6620   22.4720   32.1570 O.2       1 SQ9        -0.1515
     30 H1        -33.8181   12.2837   27.8619 H         1 SQ9         0.1795
     31 H2        -33.4233   13.6361   26.7675 H         1 SQ9         0.1795
     32 H3        -33.9842   16.9260   32.6535 H         1 SQ9         0.2305
     33 H4        -35.8200   12.7498   31.7967 H         1 SQ9         0.0627
     34 H5        -36.3741   14.3676   32.3468 H         1 SQ9         0.0627
     35 H6        -35.3331   12.0230   33.9953 H         1 SQ9         0.0327
     36 H7        -31.0861   21.7554   30.7114 H         1 SQ9         0.0575
     37 H8        -35.0263   15.0044   34.5461 H         1 SQ9         0.0269
     38 H9        -33.8811   13.6616   34.8809 H         1 SQ9         0.0269
     39 H10       -34.7657   14.4293   36.9944 H         1 SQ9         0.0265
     40 H11       -35.5047   12.8312   36.6387 H         1 SQ9         0.0265
     41 H12       -36.8100   15.6192   36.6230 H         1 SQ9         0.0265
     42 H13       -37.4733   14.0654   37.2332 H         1 SQ9         0.0265
     43 H14       -37.5315   15.2317   34.4442 H         1 SQ9         0.0265
     44 H15       -38.7987   14.3306   35.3435 H         1 SQ9         0.0265
     45 H16       -37.4339   12.1809   35.0753 H         1 SQ9         0.0269
     46 H17       -37.8966   12.8786   33.4861 H         1 SQ9         0.0269
     47 H18       -31.4883   19.3652   30.2450 H         1 SQ9         0.0653
     48 H19       -32.8184   23.0476   31.9165 H         1 SQ9         0.0660
     49 H20       -35.5795   18.3550   31.9558 H         1 SQ9         0.0410
     50 H21       -36.4317   19.9247   31.7658 H         1 SQ9         0.0410
     51 H22       -35.6961   19.4874   33.3452 H         1 SQ9         0.0410
     52 H23       -36.2689   22.6822   34.8295 H         1 SQ9         0.1634
     53 H24       -35.2057   21.3200   34.7107 H         1 SQ9         0.1634
@<TRIPOS>BOND
     1    1    2 ar 
     2    1    7 ar 
     3    2    3 1  
     4    2    4 ar 
     5    4    5 ar 
     6    5    6 ar 
     7    5   11 1  
     8    6    7 ar 
     9    6    9 1  
    10    7    8 1  
    11    8   12 1  
    12    9   10 1  
    13   10   11 2  
    14   10   14 1  
    15   12   13 1  
    16   13   16 1  
    17   13   20 1  
    18   14   21 ar 
    19   14   24 ar 
    20   21   15 ar 
    21   15   22 ar 
    22   16   17 1  
    23   17   18 1  
    24   18   19 1  
    25   19   20 1  
    26   22   23 ar 
    27   23   24 ar 
    28   23   26 1  
    29   24   25 1  
    30   26   27 2  
    31   26   28 am 
    32   26   29 2  
    33    3   30 1  
    34    3   31 1  
    35    9   32 1  
    36   12   33 1  
    37   12   34 1  
    38   13   35 1  
    39   15   36 1  
    40   16   37 1  
    41   16   38 1  
    42   17   39 1  
    43   17   40 1  
    44   18   41 1  
    45   18   42 1  
    46   19   43 1  
    47   19   44 1  
    48   20   45 1  
    49   20   46 1  
    50   21   47 1  
    51   22   48 1  
    52   25   49 1  
    53   25   50 1  
    54   25   51 1  
    55   28   52 1  
    56   28   53 1  
@<TRIPOS>SUBSTRUCTURE
     1 SQ9         1

