### 
### Created by X-TOOL on Mon Sep 10 21:13:19 2018
### 

@<TRIPOS>MOLECULE
4cfx_ligand
   50    53     1     0     0
SMALL
GAST_HUCK


@<TRIPOS>ATOM
      1 N1        -34.5520   14.2000   30.4040 N.ar      1 G6T        -0.2436
      2 C2        -33.9770   14.3730   29.2210 C.ar      1 G6T         0.1523
      3 N2        -33.7540   13.3300   28.4610 N.pl3     1 G6T        -0.3127
      4 N3        -33.6390   15.5950   28.7990 N.ar      1 G6T        -0.2866
      5 C4        -33.8680   16.6590   29.5690 C.ar      1 G6T         0.0873
      6 C5        -34.4360   16.5010   30.7470 C.ar      1 G6T         0.1517
      7 C6        -34.7650   15.2860   31.1460 C.ar      1 G6T         0.1960
      8 O6        -35.3500   15.2540   32.3500 O.3       1 G6T        -0.2934
      9 N7        -34.5660   17.6880   31.3240 N.pl3     1 G6T        -0.2442
     10 C8        -34.0550   18.5700   30.4830 C.2       1 G6T         0.1459
     11 N9        -33.6340   17.9450   29.3970 N.2       1 G6T        -0.2898
     12 CAL       -35.0360   14.1650   33.1930 C.3       1 G6T         0.0789
     13 CAM       -35.6410   14.5770   34.4890 C.3       1 G6T        -0.0123
     14 CAN       -37.1110   14.9610   34.2970 C.3       1 G6T        -0.0477
     15 CAO       -37.6710   15.4230   35.5740 C.3       1 G6T        -0.0527
     16 CAP       -37.5750   14.2510   36.5480 C.3       1 G6T        -0.0530
     17 CAQ       -36.1180   13.8140   36.7350 C.3       1 G6T        -0.0527
     18 CAR       -35.5480   13.4100   35.4130 C.3       1 G6T        -0.0477
     19 CAS       -33.9960   19.8870   30.6670 C.ar      1 G6T         0.0396
     20 CAT       -33.3980   20.6830   29.6920 C.ar      1 G6T        -0.0427
     21 CAU       -33.3230   22.0520   29.8350 C.ar      1 G6T        -0.0540
     22 CAV       -33.8580   22.6410   30.9600 C.ar      1 G6T        -0.0304
     23 CAW       -34.4640   21.8700   31.9360 C.ar      1 G6T         0.1137
     24 CAX       -34.5380   20.4840   31.8040 C.ar      1 G6T        -0.0161
     25 SAY       -35.0730   22.7160   33.2650 S.o2      1 G6T         0.0670
     26 OAZ       -33.8810   23.3170   34.0160 O.2       1 G6T        -0.1504
     27 NBA       -35.8410   21.8480   34.1760 N.am      1 G6T        -0.2609
     28 OBB       -35.9890   23.8270   32.7610 O.2       1 G6T        -0.1504
     29 H         -34.0153   12.3890   28.7883 H         1 G6T         0.1795
     30 H         -33.3173   13.4507   27.5360 H         1 G6T         0.1795
     31 H         -34.9828   17.8837   32.2453 H         1 G6T         0.2312
     32 H         -33.9477   14.0348   33.2858 H         1 G6T         0.0627
     33 H         -35.4866   13.2324   32.8225 H         1 G6T         0.0627
     34 H         -35.0895   15.4333   34.9045 H         1 G6T         0.0327
     35 H         -37.6753   14.0846   33.9457 H         1 G6T         0.0269
     36 H         -37.1844   15.7671   33.5522 H         1 G6T         0.0269
     37 H         -38.7218   15.7199   35.4413 H         1 G6T         0.0265
     38 H         -37.0933   16.2788   35.9533 H         1 G6T         0.0265
     39 H         -38.1568   13.4053   36.1526 H         1 G6T         0.0265
     40 H         -37.9871   14.5565   37.5210 H         1 G6T         0.0265
     41 H         -36.0766   12.9613   37.4287 H         1 G6T         0.0265
     42 H         -35.5338   14.6502   37.1466 H         1 G6T         0.0265
     43 H         -34.4954   13.1153   35.5358 H         1 G6T         0.0269
     44 H         -36.1202   12.5644   35.0036 H         1 G6T         0.0269
     45 H         -32.9843   20.2172   28.8049 H         1 G6T         0.0671
     46 H         -32.8488   22.6580   29.0715 H         1 G6T         0.0631
     47 H         -33.8037   23.7168   31.0813 H         1 G6T         0.0676
     48 H         -35.0088   19.8812   32.5722 H         1 G6T         0.0691
     49 H         -36.2541   22.2313   35.0021 H         1 G6T         0.1635
     50 H         -35.9489   20.8759   33.9679 H         1 G6T         0.1635
@<TRIPOS>BOND
     1    1    2 ar 
     2    1    7 ar 
     3    2    3 1  
     4    2    4 ar 
     5    4    5 ar 
     6    5    6 ar 
     7    5   11 1  
     8    6    7 ar 
     9    6    9 1  
    10    7    8 1  
    11    8   12 1  
    12    9   10 1  
    13   10   11 2  
    14   10   19 1  
    15   12   13 1  
    16   13   14 1  
    17   13   18 1  
    18   14   15 1  
    19   15   16 1  
    20   16   17 1  
    21   17   18 1  
    22   19   20 ar 
    23   19   24 ar 
    24   20   21 ar 
    25   21   22 ar 
    26   22   23 ar 
    27   23   24 ar 
    28   23   25 1  
    29   25   26 2  
    30   25   27 am 
    31   25   28 2  
    32    3   29 1  
    33    3   30 1  
    34    9   31 1  
    35   12   32 1  
    36   12   33 1  
    37   13   34 1  
    38   14   35 1  
    39   14   36 1  
    40   15   37 1  
    41   15   38 1  
    42   16   39 1  
    43   16   40 1  
    44   17   41 1  
    45   17   42 1  
    46   18   43 1  
    47   18   44 1  
    48   20   45 1  
    49   21   46 1  
    50   22   47 1  
    51   24   48 1  
    52   27   49 1  
    53   27   50 1  
@<TRIPOS>SUBSTRUCTURE
     1 G6T         1

