### 
### Created by X-TOOL on Mon Sep 10 21:13:19 2018
### 

@<TRIPOS>MOLECULE
4cg8_ligand
   84    88     1     0     0
SMALL
GAST_HUCK


@<TRIPOS>ATOM
      1 CL         25.0640  -10.6800   13.9720 Cl        1 G8S        -0.0830
      2 CAA        16.7420   -6.8320    7.9150 C.3       1 G8S         0.0124
      3 CAB        16.4010   -9.2820    8.6830 C.3       1 G8S         0.0124
      4 CAC        21.2630  -15.0480   10.4710 C.3       1 G8S         0.0181
      5 CAE        24.7780  -12.5550   12.0130 C.ar      1 G8S        -0.0597
      6 CAF        22.7390  -11.4100   12.6970 C.ar      1 G8S        -0.0597
      7 CAG        15.8400   -5.9100    1.2630 C.ar      1 G8S        -0.0667
      8 CAH        17.5950   -7.5920    1.0340 C.ar      1 G8S        -0.0667
      9 CAI        19.3130   -8.8020    4.7580 C.ar      1 G8S        -0.0668
     10 CAJ        21.3180   -8.3160    3.5150 C.ar      1 G8S        -0.0668
     11 CAK        14.9770   -6.9110    1.7060 C.ar      1 G8S        -0.0636
     12 CAL        16.7430   -8.5910    1.4830 C.ar      1 G8S        -0.0636
     13 CAM        19.7750  -10.1100    4.9970 C.ar      1 G8S        -0.0646
     14 CAN        21.7820   -9.6210    3.7520 C.ar      1 G8S        -0.0646
     15 CAO        24.0320  -13.2910   11.0860 C.ar      1 G8S        -0.0434
     16 CAP        21.9970  -12.1540   11.7720 C.ar      1 G8S        -0.0434
     17 CAQ        15.8570   -7.5100    5.4830 C.2       1 G8S         0.0577
     18 CAR        15.5560   -9.8460    6.0060 C.2       1 G8S         0.0577
     19 CAS        20.9600  -13.9900    7.8310 C.2       1 G8S        -0.0579
     20 CAT        22.5190  -12.2090    8.3600 C.2       1 G8S        -0.0579
     21 CAU        15.4150   -7.7910    4.2030 C.2       1 G8S         0.1328
     22 CAV        15.1150  -10.1380    4.7020 C.2       1 G8S         0.1328
     23 CAW        20.8590  -13.5050    6.5170 C.2       1 G8S         0.0077
     24 CAX        22.4300  -11.7210    7.0540 C.2       1 G8S         0.0077
     25 CAY        18.8020   -4.9590    1.8590 C.3       1 G8S        -0.0425
     26 CAZ        19.7710   -6.1060    2.3060 C.3       1 G8S        -0.0425
     27 CBA        18.0410   -5.3040    0.5270 C.3       1 G8S        -0.0222
     28 CBB        19.5790   -6.5680    3.7810 C.3       1 G8S        -0.0222
     29 CBC        14.5990   -9.2230    2.3210 C.3       1 G8S         0.1166
     30 CBD        21.4980  -11.8380    4.7090 C.3       1 G8S         0.0687
     31 CBE        24.1230  -11.6180   12.8160 C.ar      1 G8S         0.0261
     32 CBF        17.1430   -6.2700    0.9180 C.ar      1 G8S        -0.0497
     33 CBG        20.0730   -7.8890    4.0080 C.ar      1 G8S        -0.0497
     34 CBH        15.4240   -8.2430    1.7880 C.ar      1 G8S        -0.0126
     35 CBI        21.0180  -10.5260    4.5100 C.ar      1 G8S        -0.0248
     36 CBJ        15.9260   -8.5450    6.4040 C.2       1 G8S         0.0998
     37 CBK        22.6460  -13.0860   10.9600 C.ar      1 G8S         0.0426
     38 CBL        21.8000  -13.3460    8.7720 C.3       1 G8S         0.0574
     39 NBM        16.3520   -8.2360    7.6410 N.2       1 G8S        -0.3556
     40 NBN        21.9220  -13.7940   10.0510 N.pl3     1 G8S        -0.3009
     41 NBO        15.0270   -9.0870    3.7690 N.pl3     1 G8S        -0.1737
     42 NBP        21.5880  -12.3490    6.1190 N.pl3     1 G8S        -0.2822
     43 H          17.0653   -6.7390    8.9623 H         1 G8S         0.0459
     44 H          15.8811   -6.1709    7.7370 H         1 G8S         0.0459
     45 H          17.5690   -6.5445    7.2491 H         1 G8S         0.0459
     46 H          16.0696  -10.2402    8.2565 H         1 G8S         0.0459
     47 H          15.7380   -9.0022    9.5150 H         1 G8S         0.0459
     48 H          17.4318   -9.3826    9.0534 H         1 G8S         0.0459
     49 H          21.4791  -15.2380   11.5327 H         1 G8S         0.0480
     50 H          21.6432  -15.8831    9.8643 H         1 G8S         0.0480
     51 H          20.1761  -14.9565   10.3288 H         1 G8S         0.0480
     52 H          25.8469  -12.7093   12.1066 H         1 G8S         0.0589
     53 H          22.2457  -10.6737   13.3211 H         1 G8S         0.0589
     54 H          15.5080   -4.8808    1.1886 H         1 G8S         0.0540
     55 H          18.6180   -7.8357    0.7709 H         1 G8S         0.0540
     56 H          18.3544   -8.4939    5.1595 H         1 G8S         0.0540
     57 H          21.9298   -7.6279    2.9430 H         1 G8S         0.0540
     58 H          13.9600   -6.6631    1.9878 H         1 G8S         0.0541
     59 H          17.0903   -9.6118    1.5940 H         1 G8S         0.0541
     60 H          19.1616  -10.8011    5.5637 H         1 G8S         0.0540
     61 H          22.7378   -9.9330    3.3467 H         1 G8S         0.0540
     62 H          24.5260  -14.0251   10.4598 H         1 G8S         0.0516
     63 H          20.9263  -12.0075   11.6868 H         1 G8S         0.0516
     64 H          16.1448   -6.4975    5.7620 H         1 G8S         0.0921
     65 H          15.6136  -10.6539    6.7339 H         1 G8S         0.0921
     66 H          20.3882  -14.8677    8.1286 H         1 G8S         0.0345
     67 H          23.1601  -11.6972    9.0762 H         1 G8S         0.0345
     68 H          15.3613   -6.9722    3.4870 H         1 G8S         0.1544
     69 H          14.8474  -11.1553    4.4203 H         1 G8S         0.1544
     70 H          20.2196  -14.0160    5.7987 H         1 G8S         0.0811
     71 H          23.0148  -10.8510    6.7589 H         1 G8S         0.0811
     72 H          19.3883   -4.0414    1.7036 H         1 G8S         0.0287
     73 H          18.0621   -4.7909    2.6554 H         1 G8S         0.0287
     74 H          20.8048   -5.7491    2.1885 H         1 G8S         0.0287
     75 H          19.6054   -6.9726    1.6491 H         1 G8S         0.0287
     76 H          18.7337   -5.6943   -0.2331 H         1 G8S         0.0413
     77 H          17.5209   -4.4199    0.1297 H         1 G8S         0.0413
     78 H          18.5057   -6.5465    4.0208 H         1 G8S         0.0413
     79 H          20.1164   -5.8719    4.4418 H         1 G8S         0.0413
     80 H          14.8182  -10.2207    1.9128 H         1 G8S         0.0851
     81 H          13.5326   -8.9944    2.1777 H         1 G8S         0.0851
     82 H          22.5092  -11.8853    4.2786 H         1 G8S         0.0705
     83 H          20.8322  -12.5174    4.1566 H         1 G8S         0.0705
     84 H          22.6356  -13.9946    8.4702 H         1 G8S         0.0683
@<TRIPOS>BOND
     1   31    1 1  
     2   39    2 1  
     3   39    3 1  
     4   40    4 1  
     5   15    5 ar 
     6    5   31 ar 
     7   16    6 ar 
     8    6   31 ar 
     9    7   11 ar 
    10   32    7 ar 
    11    8   12 ar 
    12   32    8 ar 
    13   13    9 ar 
    14    9   33 ar 
    15   14   10 ar 
    16   10   33 ar 
    17   11   34 ar 
    18   12   34 ar 
    19   35   13 ar 
    20   35   14 ar 
    21   37   15 ar 
    22   37   16 ar 
    23   21   17 2  
    24   17   36 1  
    25   22   18 2  
    26   18   36 1  
    27   19   23 2  
    28   38   19 1  
    29   20   24 2  
    30   38   20 1  
    31   41   21 1  
    32   41   22 1  
    33   23   42 1  
    34   24   42 1  
    35   26   25 1  
    36   25   27 1  
    37   28   26 1  
    38   27   32 1  
    39   33   28 1  
    40   34   29 1  
    41   29   41 1  
    42   30   35 1  
    43   42   30 1  
    44   36   39 2  
    45   40   37 1  
    46   38   40 1  
    47    2   43 1  
    48    2   44 1  
    49    2   45 1  
    50    3   46 1  
    51    3   47 1  
    52    3   48 1  
    53    4   49 1  
    54    4   50 1  
    55    4   51 1  
    56    5   52 1  
    57    6   53 1  
    58    7   54 1  
    59    8   55 1  
    60    9   56 1  
    61   10   57 1  
    62   11   58 1  
    63   12   59 1  
    64   13   60 1  
    65   14   61 1  
    66   15   62 1  
    67   16   63 1  
    68   17   64 1  
    69   18   65 1  
    70   19   66 1  
    71   20   67 1  
    72   21   68 1  
    73   22   69 1  
    74   23   70 1  
    75   24   71 1  
    76   25   72 1  
    77   25   73 1  
    78   26   74 1  
    79   26   75 1  
    80   27   76 1  
    81   27   77 1  
    82   28   78 1  
    83   28   79 1  
    84   29   80 1  
    85   29   81 1  
    86   30   82 1  
    87   30   83 1  
    88   38   84 1  
@<TRIPOS>SUBSTRUCTURE
     1 G8S         1

