### 
### Created by X-TOOL on Mon Sep 10 21:13:20 2018
### 

@<TRIPOS>MOLECULE
4cg9_ligand
   43    45     1     0     0
SMALL
GAST_HUCK


@<TRIPOS>ATOM
      1 CAA       -20.6390   14.3650    9.3450 C.3       1 GQG         0.0124
      2 NBE       -20.7810   12.8960    9.3040 N.2       1 GQG        -0.3556
      3 CAB       -22.0750   12.2690    8.9680 C.3       1 GQG         0.0124
      4 CBA       -19.7030   12.1060    9.4620 C.2       1 GQG         0.0998
      5 CAM       -19.8650   10.7210    9.4210 C.2       1 GQG         0.0578
      6 CAP       -18.7550    9.8960    9.5500 C.2       1 GQG         0.1330
      7 CAL       -18.4150   12.6370    9.6320 C.2       1 GQG         0.0578
      8 CAO       -17.2880   11.8180    9.7770 C.2       1 GQG         0.1330
      9 NBG       -17.4590   10.4270    9.7490 N.pl3     1 GQG        -0.1725
     10 CAS       -16.3030    9.4930    9.8580 C.3       1 GQG         0.1200
     11 CAX       -16.3180    8.7750    8.6490 C.ar      1 GQG        -0.0048
     12 CAG       -15.8360    9.3570    7.4740 C.ar      1 GQG        -0.0557
     13 CAK       -15.8910    8.6350    6.2720 C.ar      1 GQG        -0.0599
     14 CAF       -16.8850    7.4990    8.6050 C.ar      1 GQG        -0.0557
     15 CAJ       -16.9460    6.7750    7.4130 C.ar      1 GQG        -0.0599
     16 CAZ       -16.4510    7.3440    6.2380 C.ar      1 GQG        -0.0242
     17 CAY       -16.5140    6.6330    5.0300 C.ar      1 GQG        -0.0221
     18 CAI       -17.6670    5.9030    4.7140 C.ar      1 GQG        -0.0557
     19 CAE       -17.7570    5.1960    3.5170 C.ar      1 GQG        -0.0622
     20 CAH       -15.4440    6.6620    4.1260 C.ar      1 GQG        -0.0557
     21 CAD       -15.5370    5.9600    2.9200 C.ar      1 GQG        -0.0622
     22 CAW       -16.6880    5.2290    2.6140 C.ar      1 GQG        -0.0627
     23 H         -21.6236   14.8328    9.1974 H         1 GQG         0.0459
     24 H         -19.9555   14.6898    8.5467 H         1 GQG         0.0459
     25 H         -20.2323   14.6670   10.3214 H         1 GQG         0.0459
     26 H         -21.9692   11.1744    8.9921 H         1 GQG         0.0459
     27 H         -22.3853   12.5853    7.9612 H         1 GQG         0.0459
     28 H         -22.8344   12.5802    9.7004 H         1 GQG         0.0459
     29 H         -20.8559   10.2892    9.2886 H         1 GQG         0.0921
     30 H         -18.8854    8.8161    9.4967 H         1 GQG         0.1544
     31 H         -18.2880   13.7184    9.6518 H         1 GQG         0.0921
     32 H         -16.2985   12.2533    9.9089 H         1 GQG         0.1544
     33 H         -16.4299    8.8150   10.7149 H         1 GQG         0.0868
     34 H         -15.3612   10.0505    9.9678 H         1 GQG         0.0868
     35 H         -15.4226   10.3589    7.4907 H         1 GQG         0.0561
     36 H         -15.4990    9.0751    5.3622 H         1 GQG         0.0609
     37 H         -17.2850    7.0630    9.5133 H         1 GQG         0.0561
     38 H         -17.3742    5.7792    7.3998 H         1 GQG         0.0609
     39 H         -18.4988    5.8880    5.4089 H         1 GQG         0.0615
     40 H         -18.6487    4.6243    3.2865 H         1 GQG         0.0615
     41 H         -14.5483    7.2259    4.3602 H         1 GQG         0.0615
     42 H         -14.7111    5.9831    2.2182 H         1 GQG         0.0615
     43 H         -16.7530    4.6875    1.6772 H         1 GQG         0.0610
@<TRIPOS>BOND
     1    1    2 1  
     2    2    3 1  
     3    2    4 2  
     4    4    5 1  
     5    4    7 1  
     6    5    6 2  
     7    6    9 1  
     8    7    8 2  
     9    8    9 1  
    10    9   10 1  
    11   10   11 1  
    12   11   12 ar 
    13   11   14 ar 
    14   12   13 ar 
    15   13   16 ar 
    16   14   15 ar 
    17   15   16 ar 
    18   16   17 1  
    19   17   18 ar 
    20   17   20 ar 
    21   18   19 ar 
    22   19   22 ar 
    23   20   21 ar 
    24   21   22 ar 
    25    1   23 1  
    26    1   24 1  
    27    1   25 1  
    28    3   26 1  
    29    3   27 1  
    30    3   28 1  
    31    5   29 1  
    32    6   30 1  
    33    7   31 1  
    34    8   32 1  
    35   10   33 1  
    36   10   34 1  
    37   12   35 1  
    38   13   36 1  
    39   14   37 1  
    40   15   38 1  
    41   18   39 1  
    42   19   40 1  
    43   20   41 1  
    44   21   42 1  
    45   22   43 1  
@<TRIPOS>SUBSTRUCTURE
     1 GQG         1

