### 
### Created by X-TOOL on Mon Sep 10 21:13:19 2018
### 

@<TRIPOS>MOLECULE
4cga_ligand
   49    51     1     0     0
SMALL
GAST_HUCK


@<TRIPOS>ATOM
      1 CAA       -21.0850   14.9330    9.3320 C.3       1 QLW         0.0124
      2 NAW       -21.3620   13.4850    9.2920 N.2       1 QLW        -0.3556
      3 CAB       -22.7110   12.9600    8.9580 C.3       1 QLW         0.0124
      4 CAV       -20.3220   12.6450    9.4650 C.2       1 QLW         0.0998
      5 CAM       -19.0480   13.1630    9.7400 C.2       1 QLW         0.0577
      6 CAO       -17.9390   12.3430    9.9060 C.2       1 QLW         0.1328
      7 CAL       -20.4740   11.2680    9.3490 C.2       1 QLW         0.0577
      8 CAN       -19.3780   10.4250    9.5020 C.2       1 QLW         0.1328
      9 NAX       -18.1070   10.9560    9.7820 N.pl3     1 QLW        -0.1737
     10 CAR       -16.9660   10.0420    9.9200 C.3       1 QLW         0.1166
     11 CAU       -16.7900    9.3090    8.7060 C.ar      1 QLW        -0.0126
     12 CAK       -16.3270    9.9370    7.5500 C.ar      1 QLW        -0.0636
     13 CAI       -16.1390    9.2230    6.3550 C.ar      1 QLW        -0.0666
     14 CAJ       -17.0770    7.9420    8.6400 C.ar      1 QLW        -0.0636
     15 CAH       -16.9070    7.2180    7.4520 C.ar      1 QLW        -0.0666
     16 CAT       -16.4480    7.8550    6.2950 C.ar      1 QLW        -0.0478
     17 CAQ       -16.2470    7.1140    5.1080 C.3       1 QLW        -0.0126
     18 CAP       -17.4270    7.1340    4.1280 C.3       1 QLW        -0.0103
     19 CAS       -17.1550    6.3010    3.0220 C.ar      1 QLW        -0.0412
     20 CAF       -16.0300    6.5140    2.2130 C.ar      1 QLW        -0.0602
     21 CAD       -15.7700    5.6830    1.1190 C.ar      1 QLW        -0.0686
     22 CAC       -16.6410    4.6300    0.8210 C.ar      1 QLW        -0.0687
     23 CAE       -17.7650    4.4190    1.6200 C.ar      1 QLW        -0.0686
     24 CAG       -18.0200    5.2500    2.7150 C.ar      1 QLW        -0.0602
     25 H         -22.0210   15.4897    9.1770 H         1 QLW         0.0459
     26 H         -20.3689   15.1914    8.5380 H         1 QLW         0.0459
     27 H         -20.6586   15.1979   10.3108 H         1 QLW         0.0459
     28 H         -22.6938   11.8605    8.9859 H         1 QLW         0.0459
     29 H         -22.9964   13.2968    7.9505 H         1 QLW         0.0459
     30 H         -23.4417   13.3339    9.6903 H         1 QLW         0.0459
     31 H         -18.9243   14.2415    9.8261 H         1 QLW         0.0921
     32 H         -16.9610   12.7676   10.1275 H         1 QLW         0.1544
     33 H         -21.4559   10.8472    9.1373 H         1 QLW         0.0921
     34 H         -19.5054    9.3479    9.4043 H         1 QLW         0.1544
     35 H         -17.1559    9.3414   10.7465 H         1 QLW         0.0851
     36 H         -16.0559   10.6220   10.1327 H         1 QLW         0.0851
     37 H         -16.1076   10.9983    7.5742 H         1 QLW         0.0541
     38 H         -15.7544    9.7295    5.4772 H         1 QLW         0.0540
     39 H         -17.4383    7.4319    9.5256 H         1 QLW         0.0541
     40 H         -17.1327    6.1580    7.4300 H         1 QLW         0.0540
     41 H         -16.0518    6.0680    5.3868 H         1 QLW         0.0435
     42 H         -15.3672    7.5264    4.5923 H         1 QLW         0.0435
     43 H         -17.5901    8.1634    3.7763 H         1 QLW         0.0447
     44 H         -18.3313    6.7740    4.6405 H         1 QLW         0.0447
     45 H         -15.3546    7.3315    2.4380 H         1 QLW         0.0557
     46 H         -14.8948    5.8546    0.5028 H         1 QLW         0.0599
     47 H         -16.4440    3.9820   -0.0254 H         1 QLW         0.0559
     48 H         -18.4445    3.6062    1.3905 H         1 QLW         0.0599
     49 H         -18.8958    5.0766    3.3298 H         1 QLW         0.0557
@<TRIPOS>BOND
     1    1    2 1  
     2    2    3 1  
     3    2    4 2  
     4    4    5 1  
     5    4    7 1  
     6    5    6 2  
     7    6    9 1  
     8    7    8 2  
     9    8    9 1  
    10    9   10 1  
    11   10   11 1  
    12   11   12 ar 
    13   11   14 ar 
    14   12   13 ar 
    15   13   16 ar 
    16   14   15 ar 
    17   15   16 ar 
    18   16   17 1  
    19   17   18 1  
    20   18   19 1  
    21   19   20 ar 
    22   19   24 ar 
    23   20   21 ar 
    24   21   22 ar 
    25   22   23 ar 
    26   23   24 ar 
    27    1   25 1  
    28    1   26 1  
    29    1   27 1  
    30    3   28 1  
    31    3   29 1  
    32    3   30 1  
    33    5   31 1  
    34    6   32 1  
    35    7   33 1  
    36    8   34 1  
    37   10   35 1  
    38   10   36 1  
    39   12   37 1  
    40   13   38 1  
    41   14   39 1  
    42   15   40 1  
    43   17   41 1  
    44   17   42 1  
    45   18   43 1  
    46   18   44 1  
    47   20   45 1  
    48   21   46 1  
    49   22   47 1  
    50   23   48 1  
    51   24   49 1  
@<TRIPOS>SUBSTRUCTURE
     1 QLW         1

