### 
### Created by X-TOOL on Mon Sep 10 21:13:13 2018
### 

@<TRIPOS>MOLECULE
4cgi_ligand
   59    62     1     0     0
SMALL
GAST_HUCK


@<TRIPOS>ATOM
      1 C27        75.0890   34.0240    0.8390 C.ar      1 NZL        -0.0755
      2 C26        75.9090   33.1590    1.5310 C.ar      1 NZL        -0.0755
      3 C28        75.5970   34.8460   -0.1370 C.ar      1 NZL        -0.0668
      4 C25        77.2500   33.0810    1.2610 C.ar      1 NZL        -0.0664
      5 C3         80.0520   32.9280    3.0280 C.ar      1 NZL        -0.0761
      6 C4         80.3430   31.8960    3.8820 C.ar      1 NZL        -0.0451
      7 C1         81.2260   31.8760    1.2020 C.ar      1 NZL         0.0327
      8 C23        76.9340   34.7670   -0.4000 C.ar      1 NZL        -0.0382
      9 C24        77.7420   33.9040    0.2810 C.ar      1 NZL        -0.0337
     10 C2         80.4750   32.9300    1.7090 C.ar      1 NZL        -0.0455
     11 C5         81.0820   30.8660    3.3840 C.ar      1 NZL         0.1200
     12 C6         81.5030   30.8600    2.0910 C.ar      1 NZL         0.1325
     13 C29        81.7340   31.7680   -0.1940 C.2       1 NZL         0.0514
     14 C14        81.1470   36.2680   -1.7290 C.2       1 NZL         0.1765
     15 C22        77.6690   35.5600   -1.3970 C.3       1 NZL         0.0036
     16 C8         82.0220   28.9940    3.0340 C.3       1 NZL         0.1864
     17 C11        79.1280   34.0040   -0.1750 C.3       1 NZL         0.0235
     18 C12        79.0750   35.3500   -0.8770 C.3       1 NZL         0.0634
     19 C10        80.0760   34.1630    0.9620 C.3       1 NZL        -0.0104
     20 C16        82.3490   35.7650   -2.4440 C.3       1 NZL         0.0372
     21 C17        82.3120   36.3390   -3.8300 C.3       1 NZL        -0.0359
     22 C18        83.4040   35.6810   -4.6300 C.3       1 NZL        -0.0462
     23 C19        83.1630   35.9460   -6.0930 C.3       1 NZL        -0.0125
     24 C20        83.8730   34.8920   -6.9050 C.3       1 NZL        -0.0354
     25 N13        80.0730   35.4290   -1.9080 N.am      1 NZL        -0.2799
     26 N21        83.6640   35.2370   -8.3260 N.4       1 NZL         0.2185
     27 O31        81.7330   30.6260   -0.7390 O.co2     1 NZL        -0.5668
     28 O30        82.1410   32.8110   -0.7640 O.co2     1 NZL        -0.5668
     29 O15        81.1520   37.3020   -1.0740 O.2       1 NZL        -0.3971
     30 O9         81.4580   29.7690    4.0970 O.3       1 NZL        -0.2947
     31 O7         82.2180   29.7270    1.8180 O.3       1 NZL        -0.2890
     32 H1         74.0299   34.0560    1.0679 H         1 NZL         0.0541
     33 H2         75.4848   32.5282    2.3038 H         1 NZL         0.0541
     34 H3         74.9583   35.5336   -0.6796 H         1 NZL         0.0537
     35 H4         77.8953   32.3968    1.8000 H         1 NZL         0.0537
     36 H5         79.4735   33.7677    3.3959 H         1 NZL         0.0443
     37 H6         79.9995   31.8995    4.9101 H         1 NZL         0.0514
     38 H7         77.3763   36.6202   -1.3780 H         1 NZL         0.0435
     39 H8         77.5422   35.1628   -2.4149 H         1 NZL         0.0435
     40 H9         81.3469   28.1512    2.8247 H         1 NZL         0.0973
     41 H10        82.9972   28.6089    3.3666 H         1 NZL         0.0973
     42 H11        79.4211   33.1703   -0.8300 H         1 NZL         0.0492
     43 H12        79.2908   36.1389   -0.1414 H         1 NZL         0.0602
     44 H13        80.9947   34.6179    0.5632 H         1 NZL         0.0436
     45 H14        79.6108   34.8495    1.6847 H         1 NZL         0.0436
     46 H15        82.3279   34.6662   -2.4903 H         1 NZL         0.0502
     47 H16        83.2615   36.0927   -1.9244 H         1 NZL         0.0502
     48 H17        82.4804   37.4253   -3.7897 H         1 NZL         0.0290
     49 H18        81.3350   36.1363   -4.2930 H         1 NZL         0.0290
     50 H19        83.3956   34.5968   -4.4447 H         1 NZL         0.0269
     51 H20        84.3792   36.0959   -4.3352 H         1 NZL         0.0269
     52 H21        83.5529   36.9401   -6.3571 H         1 NZL         0.0317
     53 H22        82.0837   35.9080   -6.3021 H         1 NZL         0.0317
     54 H23        83.4503   33.8995   -6.6900 H         1 NZL         0.0813
     55 H24        84.9474   34.8919   -6.6692 H         1 NZL         0.0813
     56 H25        79.9876   34.8829   -2.7414 H         1 NZL         0.1857
     57 H26        84.1242   34.5551   -8.9085 H         1 NZL         0.1994
     58 H27        84.0486   36.1504   -8.5101 H         1 NZL         0.1994
     59 H28        82.6767   35.2409   -8.5291 H         1 NZL         0.1994
@<TRIPOS>BOND
     1    2    1 ar 
     2    3    1 ar 
     3    4    2 ar 
     4    8    3 ar 
     5    9    4 ar 
     6    5    6 ar 
     7   10    5 ar 
     8    6   11 ar 
     9   10    7 ar 
    10    7   12 ar 
    11    7   13 1  
    12    9    8 ar 
    13   15    8 1  
    14   17    9 1  
    15   19   10 1  
    16   12   11 ar 
    17   11   30 1  
    18   12   31 1  
    19   13   27 ar 
    20   13   28 ar 
    21   14   20 1  
    22   25   14 am 
    23   14   29 2  
    24   18   15 1  
    25   16   30 1  
    26   31   16 1  
    27   18   17 1  
    28   17   19 1  
    29   18   25 1  
    30   20   21 1  
    31   21   22 1  
    32   22   23 1  
    33   23   24 1  
    34   24   26 1  
    35    1   32 1  
    36    2   33 1  
    37    3   34 1  
    38    4   35 1  
    39    5   36 1  
    40    6   37 1  
    41   15   38 1  
    42   15   39 1  
    43   16   40 1  
    44   16   41 1  
    45   17   42 1  
    46   18   43 1  
    47   19   44 1  
    48   19   45 1  
    49   20   46 1  
    50   20   47 1  
    51   21   48 1  
    52   21   49 1  
    53   22   50 1  
    54   22   51 1  
    55   23   52 1  
    56   23   53 1  
    57   24   54 1  
    58   24   55 1  
    59   25   56 1  
    60   26   57 1  
    61   26   58 1  
    62   26   59 1  
@<TRIPOS>SUBSTRUCTURE
     1 NZL         1

