### 
### Created by X-TOOL on Mon Sep 10 21:13:13 2018
### 

@<TRIPOS>MOLECULE
4cgj_ligand
   59    62     1     0     0
SMALL
GAST_HUCK


@<TRIPOS>ATOM
      1 C27        -8.6900   40.7920   -0.7050 C.ar      1 NZL        -0.0755
      2 C26        -9.8110   41.2640   -1.3490 C.ar      1 NZL        -0.0755
      3 C28        -8.0810   41.5610    0.2570 C.ar      1 NZL        -0.0668
      4 C25       -10.3430   42.4990   -1.0390 C.ar      1 NZL        -0.0664
      5 C3        -11.5200   45.0770   -2.6680 C.ar      1 NZL        -0.0761
      6 C4        -12.5680   44.7730   -3.5090 C.ar      1 NZL        -0.0451
      7 C1        -13.0090   45.4410   -0.8070 C.ar      1 NZL         0.0327
      8 C23        -8.6180   42.7880    0.5540 C.ar      1 NZL        -0.0382
      9 C24        -9.7290   43.2690   -0.0780 C.ar      1 NZL        -0.0337
     10 C2        -11.7190   45.4030   -1.3350 C.ar      1 NZL        -0.0455
     11 C5        -13.8260   44.8130   -2.9780 C.ar      1 NZL         0.1200
     12 C6        -14.0370   45.1390   -1.6720 C.ar      1 NZL         0.1325
     13 C29       -13.3730   45.7860    0.6020 C.2       1 NZL         0.0514
     14 C14        -8.6150   47.1630    2.2100 C.2       1 NZL         0.1765
     15 C22        -8.0910   43.7350    1.5540 C.3       1 NZL         0.0036
     16 C8        -15.9240   44.6220   -2.5850 C.3       1 NZL         0.1864
     17 C11       -10.0990   44.6190    0.4380 C.3       1 NZL         0.0235
     18 C12        -8.7940   45.0040    1.1240 C.3       1 NZL         0.0634
     19 C10       -10.4630   45.7000   -0.5720 C.3       1 NZL        -0.0104
     20 C16        -8.9030   47.8960    3.4800 C.3       1 NZL         0.0372
     21 C17       -10.3680   48.2670    3.5020 C.3       1 NZL        -0.0359
     22 C18       -10.6260   49.2800    4.5960 C.3       1 NZL        -0.0462
     23 C19       -10.4100   48.6450    5.9500 C.3       1 NZL        -0.0125
     24 C20       -10.9260   49.5590    7.0330 C.3       1 NZL        -0.0354
     25 N13        -9.0360   45.8570    2.2520 N.am      1 NZL        -0.2799
     26 N21       -12.3340   49.1980    7.3020 N.4       1 NZL         0.2185
     27 O31       -14.3360   45.1590    1.1330 O.co2     1 NZL        -0.5668
     28 O30       -12.7310   46.7120    1.1660 O.co2     1 NZL        -0.5668
     29 O15        -8.0620   47.6970    1.2620 O.2       1 NZL        -0.3971
     30 O9        -14.9710   44.5410   -3.6580 O.3       1 NZL        -0.2947
     31 O7        -15.3730   45.1160   -1.3500 O.3       1 NZL        -0.2890
     32 H1         -8.2889   39.8167   -0.9559 H         1 NZL         0.0541
     33 H2        -10.2836   40.6560   -2.1119 H         1 NZL         0.0541
     34 H3         -7.1949   41.2057    0.7705 H         1 NZL         0.0537
     35 H4        -11.2319   42.8574   -1.5453 H         1 NZL         0.0537
     36 H5        -10.5095   45.0609   -3.0601 H         1 NZL         0.0443
     37 H6        -12.4014   44.5131   -4.5481 H         1 NZL         0.0514
     38 H7         -6.9975   43.8326    1.4851 H         1 NZL         0.0435
     39 H8         -8.3693   43.4427    2.5773 H         1 NZL         0.0435
     40 H9        -16.3290   43.6153   -2.4050 H         1 NZL         0.0973
     41 H10       -16.7375   45.2946   -2.8946 H         1 NZL         0.0973
     42 H11       -10.9271   44.5293    1.1565 H         1 NZL         0.0492
     43 H12        -8.1573   45.5434    0.4073 H         1 NZL         0.0602
     44 H13       -10.5985   46.6493   -0.0331 H         1 NZL         0.0436
     45 H14        -9.6349   45.8004   -1.2890 H         1 NZL         0.0436
     46 H15        -8.2893   48.8076    3.5289 H         1 NZL         0.0502
     47 H16        -8.6712   47.2513    4.3406 H         1 NZL         0.0502
     48 H17       -10.9698   47.3657    3.6902 H         1 NZL         0.0290
     49 H18       -10.6494   48.6996    2.5306 H         1 NZL         0.0290
     50 H19       -11.6634   49.6385    4.5232 H         1 NZL         0.0269
     51 H20        -9.9357   50.1282    4.4772 H         1 NZL         0.0269
     52 H21        -9.3351   48.4686    6.1030 H         1 NZL         0.0317
     53 H22       -10.9487   47.6870    5.9938 H         1 NZL         0.0317
     54 H23       -10.8661   50.6052    6.6986 H         1 NZL         0.0813
     55 H24       -10.3267   49.4311    7.9465 H         1 NZL         0.0813
     56 H25        -9.5066   45.5038    3.0606 H         1 NZL         0.1857
     57 H26       -12.7022   49.7967    8.0245 H         1 NZL         0.1994
     58 H27       -12.3828   48.2376    7.6043 H         1 NZL         0.1994
     59 H28       -12.8771   49.3135    6.4607 H         1 NZL         0.1994
@<TRIPOS>BOND
     1    2    1 ar 
     2    3    1 ar 
     3    4    2 ar 
     4    8    3 ar 
     5    9    4 ar 
     6    5    6 ar 
     7   10    5 ar 
     8    6   11 ar 
     9   10    7 ar 
    10    7   12 ar 
    11    7   13 1  
    12    9    8 ar 
    13   15    8 1  
    14   17    9 1  
    15   19   10 1  
    16   12   11 ar 
    17   11   30 1  
    18   12   31 1  
    19   13   27 ar 
    20   13   28 ar 
    21   14   20 1  
    22   25   14 am 
    23   14   29 2  
    24   18   15 1  
    25   16   30 1  
    26   31   16 1  
    27   18   17 1  
    28   17   19 1  
    29   18   25 1  
    30   20   21 1  
    31   21   22 1  
    32   22   23 1  
    33   23   24 1  
    34   24   26 1  
    35    1   32 1  
    36    2   33 1  
    37    3   34 1  
    38    4   35 1  
    39    5   36 1  
    40    6   37 1  
    41   15   38 1  
    42   15   39 1  
    43   16   40 1  
    44   16   41 1  
    45   17   42 1  
    46   18   43 1  
    47   19   44 1  
    48   19   45 1  
    49   20   46 1  
    50   20   47 1  
    51   21   48 1  
    52   21   49 1  
    53   22   50 1  
    54   22   51 1  
    55   23   52 1  
    56   23   53 1  
    57   24   54 1  
    58   24   55 1  
    59   25   56 1  
    60   26   57 1  
    61   26   58 1  
    62   26   59 1  
@<TRIPOS>SUBSTRUCTURE
     1 NZL         1

