### 
### Created by X-TOOL on Mon Sep 10 21:13:18 2018
### 

@<TRIPOS>MOLECULE
4ci1_ligand
   29    31     1     0     0
SMALL
GAST_HUCK


@<TRIPOS>ATOM
      1 O01        -1.9230    7.6950   11.5530 O.2       1 EF2        -0.3833
      2 C02        -1.7150    8.1980   12.6490 C.2       1 EF2         0.2347
      3 N03        -1.2940    9.4800   12.7950 N.am      1 EF2        -0.1975
      4 C04        -1.0710   10.0980   13.9790 C.2       1 EF2         0.2047
      5 O05        -0.6930   11.2480   14.0060 O.2       1 EF2        -0.3862
      6 C06        -1.3060    9.3770   15.2840 C.3       1 EF2         0.0471
      7 C07        -1.1110    7.8540   15.0770 C.3       1 EF2         0.0096
      8 C08        -2.0010    7.3990   13.8990 C.3       1 EF2         0.1625
      9 N09        -1.8960    5.9660   13.6690 N.am      1 EF2        -0.1612
     10 C11        -1.1600    1.4940   12.4720 C.ar      1 EF2        -0.0523
     11 C12        -0.5210    2.7510   12.3880 C.ar      1 EF2        -0.0371
     12 C13        -1.2270    3.8480   12.9070 C.ar      1 EF2         0.0734
     13 C14        -2.5050    3.7040   13.4760 C.ar      1 EF2         0.0734
     14 O16         0.1860    5.7930   12.6040 O.2       1 EF2        -0.3668
     15 O18        -3.9930    5.3480   14.4010 O.2       1 EF2        -0.3668
     16 C19        -3.1470    2.4540   13.5350 C.ar      1 EF2        -0.0371
     17 C20        -2.4540    1.3430   13.0130 C.ar      1 EF2        -0.0523
     18 C3         -2.9000    5.0910   13.9260 C.2       1 EF2         0.2425
     19 C4         -0.8680    5.3160   13.0430 C.2       1 EF2         0.2425
     20 H          -1.1359   10.0103   11.9620 H         1 EF2         0.2257
     21 H          -2.3318    9.5712   15.6303 H         1 EF2         0.0510
     22 H          -0.5901    9.7390   16.0367 H         1 EF2         0.0510
     23 H          -1.4021    7.3155   15.9909 H         1 EF2         0.0341
     24 H          -0.0561    7.6432   14.8474 H         1 EF2         0.0341
     25 H          -3.0439    7.6043   14.1820 H         1 EF2         0.0858
     26 H          -0.6385    0.6160   12.1085 H         1 EF2         0.0662
     27 H           0.4625    2.8627   11.9461 H         1 EF2         0.0682
     28 H          -4.1364    2.3490   13.9652 H         1 EF2         0.0682
     29 H          -2.9195    0.3641   13.0274 H         1 EF2         0.0662
@<TRIPOS>BOND
     1    2    1 2  
     2    2    3 am 
     3    8    2 1  
     4    3    4 am 
     5    4    5 2  
     6    6    4 1  
     7    7    6 1  
     8    8    7 1  
     9    9    8 1  
    10    9   18 am 
    11   19    9 am 
    12   11   10 ar 
    13   10   17 ar 
    14   12   11 ar 
    15   12   13 ar 
    16   12   19 1  
    17   13   16 ar 
    18   13   18 1  
    19   19   14 2  
    20   18   15 2  
    21   16   17 ar 
    22    3   20 1  
    23    6   21 1  
    24    6   22 1  
    25    7   23 1  
    26    7   24 1  
    27    8   25 1  
    28   10   26 1  
    29   11   27 1  
    30   16   28 1  
    31   17   29 1  
@<TRIPOS>SUBSTRUCTURE
     1 EF2         1

