### 
### Created by X-TOOL on Mon Sep 10 21:13:18 2018
### 

@<TRIPOS>MOLECULE
4ci2_ligand
   32    34     1     0     0
SMALL
GAST_HUCK


@<TRIPOS>ATOM
      1 C1         84.2300  156.3710   13.8710 C.3       1 LVY         0.1421
      2 C2         85.1530  156.8780   15.0090 C.3       1 LVY         0.0057
      3 C3         84.8460  158.3630   15.2820 C.3       1 LVY         0.0467
      4 C4         85.0100  159.1500   14.0030 C.2       1 LVY         0.2047
      5 N5         84.7820  158.5390   12.8080 N.am      1 LVY        -0.1978
      6 C6         84.4320  157.2300   12.6430 C.2       1 LVY         0.2305
      7 C7         84.1060  152.7120   13.1650 C.ar      1 LVY         0.0425
      8 C8         85.4170  153.0100   12.7900 C.ar      1 LVY         0.0181
      9 C9         85.7210  154.4870   12.9980 C.3       1 LVY         0.0700
     10 N10        84.4530  154.9740   13.5320 N.am      1 LVY        -0.2413
     11 C11        83.5020  154.0070   13.6410 C.2       1 LVY         0.2034
     12 C12        84.4530  150.4040   12.5990 C.ar      1 LVY        -0.0751
     13 C13        85.7900  150.7100   12.2340 C.ar      1 LVY        -0.0466
     14 C14        86.3000  152.0260   12.3190 C.ar      1 LVY         0.0457
     15 C15        83.5800  151.4140   13.0630 C.ar      1 LVY        -0.0619
     16 O16        82.3300  154.0900   14.0400 O.2       1 LVY        -0.3883
     17 N17        87.5760  152.3610   11.9750 N.pl3     1 LVY        -0.3391
     18 O18        84.2170  156.7370   11.5430 O.2       1 LVY        -0.3837
     19 O19        85.3050  160.3310   14.0740 O.2       1 LVY        -0.3862
     20 H          83.1878  156.4756   14.2070 H         1 LVY         0.0810
     21 H          86.2049  156.7688   14.7066 H         1 LVY         0.0337
     22 H          84.9707  156.2904   15.9208 H         1 LVY         0.0337
     23 H          85.5414  158.7483   16.0422 H         1 LVY         0.0510
     24 H          83.8127  158.4638   15.6455 H         1 LVY         0.0510
     25 H          84.8790  159.0953   11.9827 H         1 LVY         0.2257
     26 H          85.9739  154.9825   12.0491 H         1 LVY         0.0674
     27 H          86.5412  154.6309   13.7168 H         1 LVY         0.0674
     28 H          84.0971  149.3831   12.5209 H         1 LVY         0.0537
     29 H          86.4365  149.9147   11.8811 H         1 LVY         0.0528
     30 H          82.5516  151.1966   13.3280 H         1 LVY         0.0537
     31 H          87.8922  153.3377   12.0580 H         1 LVY         0.1697
     32 H          88.2238  151.6373   11.6321 H         1 LVY         0.1697
@<TRIPOS>BOND
     1    1    2 1  
     2    1    6 1  
     3   10    1 1  
     4    2    3 1  
     5    3    4 1  
     6    5    4 am 
     7    4   19 2  
     8    6    5 am 
     9    6   18 2  
    10    7    8 ar 
    11    7   11 1  
    12   15    7 ar 
    13    8    9 1  
    14    8   14 ar 
    15   10    9 1  
    16   11   10 am 
    17   11   16 2  
    18   12   13 ar 
    19   12   15 ar 
    20   13   14 ar 
    21   14   17 1  
    22    1   20 1  
    23    2   21 1  
    24    2   22 1  
    25    3   23 1  
    26    3   24 1  
    27    5   25 1  
    28    9   26 1  
    29    9   27 1  
    30   12   28 1  
    31   13   29 1  
    32   15   30 1  
    33   17   31 1  
    34   17   32 1  
@<TRIPOS>SUBSTRUCTURE
     1 LVY         1

