### 
### Created by X-TOOL on Mon Sep 10 21:13:19 2018
### 

@<TRIPOS>MOLECULE
4ci3_ligand
   31    33     1     0     0
SMALL
GAST_HUCK


@<TRIPOS>ATOM
      1 C1         -1.6970    0.5750  -11.3150 C.ar      1 Y70        -0.0341
      2 C2         -1.9280   -0.6380  -10.6440 C.ar      1 Y70        -0.0634
      3 C3         -3.1490   -0.8970  -10.0150 C.ar      1 Y70        -0.0499
      4 C4         -4.1020    0.1170  -10.0680 C.ar      1 Y70         0.0620
      5 C5         -3.8530    1.3310  -10.7110 C.ar      1 Y70         0.0897
      6 C6         -2.6620    1.5980  -11.3660 C.ar      1 Y70         0.0616
      7 C7         -5.4960    0.2110   -9.5010 C.2       1 Y70         0.2389
      8 N8         -6.0010    1.4630   -9.8280 N.am      1 Y70        -0.1638
      9 C9         -5.0840    2.1690  -10.5570 C.2       1 Y70         0.2337
     10 N10        -2.4850    2.7870  -12.0120 N.pl3     1 Y70        -0.3317
     11 O11        -5.1710    3.2890  -11.0510 O.2       1 Y70        -0.3748
     12 C12        -7.3360    1.9650   -9.5140 C.3       1 Y70         0.1622
     13 O13        -5.9930   -0.7440   -8.8810 O.2       1 Y70        -0.3672
     14 C14        -7.2450    3.0590   -8.4200 C.3       1 Y70         0.0096
     15 C15        -8.0160    2.5080  -10.7580 C.2       1 Y70         0.2347
     16 N16        -8.9130    3.5230  -10.6320 N.am      1 Y70        -0.1975
     17 C17        -9.2770    4.1170   -9.4650 C.2       1 Y70         0.2047
     18 C18        -8.6580    3.6390   -8.1670 C.3       1 Y70         0.0471
     19 O19        -7.7660    1.9950  -11.8450 O.2       1 Y70        -0.3833
     20 O20       -10.1200    5.0000   -9.4280 O.2       1 Y70        -0.3862
     21 H          -0.7444    0.7276  -11.8094 H         1 Y70         0.0564
     22 H          -1.1447   -1.3867  -10.6137 H         1 Y70         0.0629
     23 H          -3.3438   -1.8375   -9.5125 H         1 Y70         0.0575
     24 H          -1.5980    2.9820  -12.4980 H         1 Y70         0.1746
     25 H          -3.2384    3.4894  -12.0136 H         1 Y70         0.1746
     26 H          -7.9396    1.1315   -9.1255 H         1 Y70         0.0857
     27 H          -6.5720    3.8615   -8.7562 H         1 Y70         0.0341
     28 H          -6.8553    2.6190   -7.4902 H         1 Y70         0.0341
     29 H          -9.3413    3.8611  -11.4700 H         1 Y70         0.2257
     30 H          -8.5819    4.4859   -7.4691 H         1 Y70         0.0510
     31 H          -9.2963    2.8582   -7.7278 H         1 Y70         0.0510
@<TRIPOS>BOND
     1    1    2 ar 
     2    1    6 ar 
     3    2    3 ar 
     4    3    4 ar 
     5    4    5 ar 
     6    4    7 1  
     7    5    6 ar 
     8    5    9 1  
     9    6   10 1  
    10    7    8 am 
    11    7   13 2  
    12    8    9 am 
    13    8   12 1  
    14    9   11 2  
    15   12   14 1  
    16   12   15 1  
    17   14   18 1  
    18   15   16 am 
    19   15   19 2  
    20   16   17 am 
    21   17   18 1  
    22   17   20 2  
    23    1   21 1  
    24    2   22 1  
    25    3   23 1  
    26   10   24 1  
    27   10   25 1  
    28   12   26 1  
    29   14   27 1  
    30   14   28 1  
    31   16   29 1  
    32   18   30 1  
    33   18   31 1  
@<TRIPOS>SUBSTRUCTURE
     1 Y70         1

