### 
### Created by X-TOOL on Mon Sep 10 21:13:17 2018
### 

@<TRIPOS>MOLECULE
4cig_ligand
   67    70     1     0     0
SMALL
GAST_HUCK


@<TRIPOS>ATOM
      1 C1         36.6590  -33.8290   -6.2730 C.ar      1 X0P        -0.0159
      2 C2         36.8790  -34.9860   -5.5530 C.ar      1 X0P        -0.0230
      3 C3         36.6590  -32.6050   -5.6380 C.ar      1 X0P        -0.0352
      4 C4         37.0980  -34.9230   -4.1940 C.ar      1 X0P        -0.0465
      5 C5         33.9890  -32.4940    0.9220 C.ar      1 X0P        -0.0625
      6 C6         33.4150  -29.7590   -2.3130 C.ar      1 X0P        -0.0668
      7 C7         35.1190  -28.7710   -0.9720 C.ar      1 X0P        -0.0668
      8 C8         33.0620  -32.7640    1.9050 C.ar      1 X0P        -0.0743
      9 C9         32.5720  -29.8210   -1.2240 C.ar      1 X0P        -0.0395
     10 C10        34.2840  -28.8300    0.1220 C.ar      1 X0P        -0.0395
     11 C11        36.8800  -32.5570   -4.2780 C.ar      1 X0P         0.0600
     12 C12        33.0940  -34.2490   -0.4490 C.ar      1 X0P         0.0449
     13 C13        34.6870  -29.2380   -2.1940 C.ar      1 X0P        -0.0318
     14 C14        37.0980  -33.7070   -3.5450 C.ar      1 X0P         0.0207
     15 C15        34.0080  -33.2240   -0.2520 C.ar      1 X0P         0.0075
     16 C16        32.1500  -33.7790    1.7200 C.ar      1 X0P        -0.0360
     17 C17        32.1700  -34.5120    0.5490 C.ar      1 X0P         0.0997
     18 C18        33.0140  -29.3500   -0.0050 C.ar      1 X0P         0.0837
     19 C19        36.8780  -31.2420   -3.6220 C.2       1 X0P         0.2042
     20 C20        33.0800  -35.0450   -1.7120 C.2       1 X0P         0.0539
     21 C21        36.4350  -35.1140   -8.2680 C.ar      1 X0P        -0.0619
     22 C22        30.5230  -35.7860    1.5390 C.3       1 X0P         0.0603
     23 C24        30.8900  -29.7210    0.8280 C.3       1 X0P         0.0579
     24 C25        35.6010  -29.1640   -3.3720 C.3       1 X0P         0.0589
     25 C26        37.3390  -33.6610   -2.0730 C.3       1 X0P         0.0059
     26 C27        35.0490  -32.8860   -1.2680 C.3       1 X0P         0.0031
     27 C28        36.6140  -34.2840    0.1410 C.3       1 X0P        -0.0401
     28 C29        36.6560  -36.2700   -7.5530 C.ar      1 X0P        -0.0623
     29 N1         35.8160  -30.4540   -3.9770 N.am      1 X0P        -0.2772
     30 N2         36.1410  -33.9220   -1.2260 N.4       1 X0P         0.2579
     31 O1         31.9340  -35.3670   -2.1390 O.co2     1 X0P        -0.5666
     32 O3         37.7690  -30.9420   -2.8380 O.2       1 X0P        -0.3871
     33 C40        36.4390  -33.8930   -7.6310 C.ar      1 X0P        -0.0545
     34 O4         34.1640  -35.3060   -2.3120 O.co2     1 X0P        -0.5666
     35 C50        36.8800  -36.2060   -6.1950 C.ar      1 X0P        -0.0561
     36 O6         31.2670  -35.5440    0.3500 O.3       1 X0P        -0.3194
     37 O8         32.2350  -29.3790    1.1440 O.3       1 X0P        -0.3257
     38 H          36.4878  -31.6939   -6.1999 H         1 X0P         0.0690
     39 H          37.2711  -35.8341   -3.6327 H         1 X0P         0.0535
     40 H          34.7118  -31.7000    1.0708 H         1 X0P         0.0474
     41 H          33.0742  -30.1242   -3.2750 H         1 X0P         0.0531
     42 H          36.1158  -28.3572   -0.8714 H         1 X0P         0.0531
     43 H          33.0507  -32.1808    2.8187 H         1 X0P         0.0593
     44 H          31.5749  -30.2344   -1.3242 H         1 X0P         0.0525
     45 H          34.6263  -28.4669    1.0843 H         1 X0P         0.0525
     46 H          31.4198  -34.0019    2.4895 H         1 X0P         0.0493
     47 H          36.2572  -35.1653   -9.3361 H         1 X0P         0.0602
     48 H          29.8114  -36.6067    1.3656 H         1 X0P         0.0579
     49 H          29.9720  -34.8759    1.8184 H         1 X0P         0.0579
     50 H          31.2105  -36.0625    2.3519 H         1 X0P         0.0579
     51 H          30.2900  -29.7387    1.7498 H         1 X0P         0.0575
     52 H          30.8655  -30.7140    0.3555 H         1 X0P         0.0575
     53 H          30.4751  -28.9746    0.1347 H         1 X0P         0.0575
     54 H          36.5703  -28.7611   -3.0433 H         1 X0P         0.0661
     55 H          35.1591  -28.4908   -4.1213 H         1 X0P         0.0661
     56 H          37.7221  -32.6609   -1.8218 H         1 X0P         0.0992
     57 H          38.0997  -34.4171   -1.8288 H         1 X0P         0.0992
     58 H          35.4731  -31.8960   -1.0441 H         1 X0P         0.0988
     59 H          34.5941  -32.8722   -2.2694 H         1 X0P         0.0988
     60 H          37.4067  -35.0429    0.0657 H         1 X0P         0.0778
     61 H          35.7738  -34.6882    0.7247 H         1 X0P         0.0778
     62 H          37.0105  -33.3881    0.6411 H         1 X0P         0.0778
     63 H          36.6537  -37.2292   -8.0580 H         1 X0P         0.0623
     64 H          35.1753  -30.7810   -4.6716 H         1 X0P         0.1867
     65 H          35.7139  -34.7534   -1.6034 H         1 X0P         0.2062
     66 H          36.2694  -32.9843   -8.1972 H         1 X0P         0.0631
     67 H          37.0570  -37.1149   -5.6314 H         1 X0P         0.0606
@<TRIPOS>BOND
     1    2    1 ar 
     2    3    1 ar 
     3    1   33 ar 
     4    4    2 ar 
     5    2   35 ar 
     6   11    3 ar 
     7   14    4 ar 
     8    5    8 ar 
     9   15    5 ar 
    10    6    9 ar 
    11   13    6 ar 
    12    7   10 ar 
    13   13    7 ar 
    14    8   16 ar 
    15    9   18 ar 
    16   10   18 ar 
    17   14   11 ar 
    18   11   19 1  
    19   15   12 ar 
    20   12   17 ar 
    21   12   20 1  
    22   24   13 1  
    23   25   14 1  
    24   26   15 1  
    25   17   16 ar 
    26   17   36 1  
    27   18   37 1  
    28   19   29 am 
    29   19   32 2  
    30   20   31 ar 
    31   20   34 ar 
    32   21   28 ar 
    33   33   21 ar 
    34   36   22 1  
    35   37   23 1  
    36   29   24 1  
    37   30   25 1  
    38   26   30 1  
    39   30   27 1  
    40   28   35 ar 
    41    3   38 1  
    42    4   39 1  
    43    5   40 1  
    44    6   41 1  
    45    7   42 1  
    46    8   43 1  
    47    9   44 1  
    48   10   45 1  
    49   16   46 1  
    50   21   47 1  
    51   22   48 1  
    52   22   49 1  
    53   22   50 1  
    54   23   51 1  
    55   23   52 1  
    56   23   53 1  
    57   24   54 1  
    58   24   55 1  
    59   25   56 1  
    60   25   57 1  
    61   26   58 1  
    62   26   59 1  
    63   27   60 1  
    64   27   61 1  
    65   27   62 1  
    66   28   63 1  
    67   29   64 1  
    68   30   65 1  
    69   33   66 1  
    70   35   67 1  
@<TRIPOS>SUBSTRUCTURE
     1 X0P         1

