### 
### Created by X-TOOL on Mon Sep 10 21:13:20 2018
### 

@<TRIPOS>MOLECULE
4cik_ligand
   38    40     1     0     0
SMALL
GAST_HUCK


@<TRIPOS>ATOM
      1 C1         -5.3960   -0.2270   14.8560 C.3       1 XO3         0.0078
      2 C2         -5.1110   -1.7360   14.8780 C.3       1 XO3        -0.0303
      3 N3         -4.8730   -2.0500   16.3110 N.4       1 XO3         0.2309
      4 C4         -6.1280   -1.9030   17.0750 C.3       1 XO3        -0.0102
      5 C5         -6.4870   -0.3940   17.1200 C.3       1 XO3         0.0126
      6 C6         -6.6790    0.0330   15.6650 C.3       1 XO3         0.0462
      7 C7         -7.0400    1.4830   15.6830 C.2       1 XO3         0.1360
      8 O8         -8.2250    1.9820   16.0570 O.3       1 XO3        -0.1622
      9 N9         -8.2450    3.1970   15.9620 N.am      1 XO3        -0.1373
     10 C10        -7.0390    3.6490   15.5650 C.2       1 XO3         0.1775
     11 C11        -6.2170    2.5040   15.3760 C.2       1 XO3         0.0109
     12 O12        -6.7020    4.7930   15.3760 O.2       1 XO3        -0.4295
     13 C13        -5.8650   -2.3160   18.5200 C.3       1 XO3         0.0243
     14 C14        -7.1620   -2.4830   19.2880 C.ar      1 XO3        -0.0377
     15 C15        -7.3620   -1.7480   20.4490 C.ar      1 XO3        -0.0601
     16 C16        -8.5200   -1.9150   21.1930 C.ar      1 XO3        -0.0686
     17 C17        -9.5010   -2.7950   20.7600 C.ar      1 XO3        -0.0687
     18 C18        -9.2860   -3.5420   19.6130 C.ar      1 XO3        -0.0686
     19 C19        -8.1260   -3.3820   18.8710 C.ar      1 XO3        -0.0601
     20 H          -5.5356    0.1103   13.8184 H         1 XO3         0.0351
     21 H          -4.5541    0.3174   15.3084 H         1 XO3         0.0351
     22 H          -4.2216   -1.9723   14.2755 H         1 XO3         0.0816
     23 H          -5.9740   -2.3001   14.4947 H         1 XO3         0.0816
     24 H          -4.1809   -1.4174   16.6810 H         1 XO3         0.2018
     25 H          -4.5405   -2.9979   16.3944 H         1 XO3         0.2018
     26 H          -6.9368   -2.4985   16.6264 H         1 XO3         0.0876
     27 H          -5.6709    0.1801   17.5829 H         1 XO3         0.0356
     28 H          -7.4145   -0.2379   17.6903 H         1 XO3         0.0356
     29 H          -7.5017   -0.5425   15.2156 H         1 XO3         0.0569
     30 H          -9.0397    3.7738   16.1509 H         1 XO3         0.2320
     31 H          -5.1757    2.4628   15.0600 H         1 XO3         0.0190
     32 H          -5.2557   -1.5417   19.0091 H         1 XO3         0.0481
     33 H          -5.3189   -3.2708   18.5265 H         1 XO3         0.0481
     34 H          -6.6089   -1.0400   20.7754 H         1 XO3         0.0557
     35 H          -8.6587   -1.3581   22.1126 H         1 XO3         0.0599
     36 H         -10.4272   -2.8973   21.3138 H         1 XO3         0.0559
     37 H         -10.0329   -4.2592   19.2924 H         1 XO3         0.0599
     38 H          -7.9752   -3.9601   17.9665 H         1 XO3         0.0557
@<TRIPOS>BOND
     1    1    2 1  
     2    1    6 1  
     3    2    3 1  
     4    3    4 1  
     5    4    5 1  
     6    4   13 1  
     7    5    6 1  
     8    6    7 1  
     9    7    8 1  
    10    7   11 2  
    11    8    9 1  
    12    9   10 am 
    13   10   11 1  
    14   10   12 2  
    15   13   14 1  
    16   14   15 ar 
    17   14   19 ar 
    18   15   16 ar 
    19   16   17 ar 
    20   17   18 ar 
    21   18   19 ar 
    22    1   20 1  
    23    1   21 1  
    24    2   22 1  
    25    2   23 1  
    26    3   24 1  
    27    3   25 1  
    28    4   26 1  
    29    5   27 1  
    30    5   28 1  
    31    6   29 1  
    32    9   30 1  
    33   11   31 1  
    34   13   32 1  
    35   13   33 1  
    36   15   34 1  
    37   16   35 1  
    38   17   36 1  
    39   18   37 1  
    40   19   38 1  
@<TRIPOS>SUBSTRUCTURE
     1 XO3         1

