### 
### Created by X-TOOL on Mon Sep 10 21:13:19 2018
### 

@<TRIPOS>MOLECULE
4civ_ligand
   25    25     1     0     0
SMALL
GAST_HUCK


@<TRIPOS>ATOM
      1 OAE        13.7080    3.6830   41.9960 O.3       1 48P        -0.3561
      2 CAM        13.3790    2.7040   40.9930 C.3       1 48P         0.1636
      3 CAL        11.8730    2.3980   41.0860 C.3       1 48P         0.0973
      4 OAD        11.5900    1.6990   42.3090 O.3       1 48P        -0.3854
      5 CAI        11.4380    1.5330   39.9180 C.3       1 48P        -0.0350
      6 CAN        11.6700    2.2910   38.6120 C.3       1 48P         0.0565
      7 CAJ        11.6590    1.3950   37.5240 C.2       1 48P         0.0068
      8 OAC        10.7410    1.5240   36.6910 O.co2     1 48P        -0.5717
      9 OAA        12.5850    0.5510   37.4390 O.co2     1 48P        -0.5717
     10 OAF        10.6400    3.2770   38.4630 O.3       1 48P        -0.4539
     11 CAG        12.8920    2.9680   38.5930 C.2       1 48P        -0.0550
     12 CAK        13.7230    3.1660   39.7010 C.2       1 48P         0.0663
     13 CAH        14.8950    3.8680   39.4680 C.3       1 48P         0.1287
     14 OAB        15.7140    3.0310   38.6430 O.3       1 48P        -0.3613
     15 H          14.6358    3.8820   41.9504 H         1 48P         0.2176
     16 H          13.9441    1.7821   41.1948 H         1 48P         0.1054
     17 H          11.3118    3.3439   41.0673 H         1 48P         0.0662
     18 H          11.8466    2.2386   43.0475 H         1 48P         0.2103
     19 H          10.3694    1.2919   40.0176 H         1 48P         0.0144
     20 H          12.0248    0.6026   39.9116 H         1 48P         0.0144
     21 H           9.7940    2.8465   38.4263 H         1 48P         0.1842
     22 H          13.2245    3.3743   37.6389 H         1 48P         0.0429
     23 H          15.4058    4.0808   40.4187 H         1 48P         0.0991
     24 H          14.6751    4.8133   38.9502 H         1 48P         0.0991
     25 H          16.5328    3.4753   38.4572 H         1 48P         0.2172
@<TRIPOS>BOND
     1    1    2 1  
     2    2    3 1  
     3    2   12 1  
     4    3    4 1  
     5    3    5 1  
     6    5    6 1  
     7    6    7 1  
     8    6   10 1  
     9    6   11 1  
    10    7    8 ar 
    11    7    9 ar 
    12   11   12 2  
    13   12   13 1  
    14   13   14 1  
    15    1   15 1  
    16    2   16 1  
    17    3   17 1  
    18    4   18 1  
    19    5   19 1  
    20    5   20 1  
    21   10   21 1  
    22   11   22 1  
    23   13   23 1  
    24   13   24 1  
    25   14   25 1  
@<TRIPOS>SUBSTRUCTURE
     1 48P         1

