### 
### Created by X-TOOL on Mon Sep 10 21:13:16 2018
### 

@<TRIPOS>MOLECULE
4ciw_ligand
   28    28     1     0     0
SMALL
GAST_HUCK


@<TRIPOS>ATOM
      1 OAF         3.7890   13.5880   21.1040 O.3       1 XH2        -0.3562
      2 CAC         2.7850   13.2430   22.0910 C.3       1 XH2         0.1615
      3 CAB         2.6550   11.6890   21.9910 C.3       1 XH2         0.0972
      4 OAG         2.1110   11.3080   20.6850 O.3       1 XH2        -0.3854
      5 CAA         1.7660   11.1990   23.1350 C.3       1 XH2        -0.0350
      6 CAI         2.4740   11.5380   24.4820 C.3       1 XH2         0.0564
      7 CAH         1.5790   11.2680   25.5970 C.2       1 XH2         0.0068
      8 OAO         2.0910   11.3320   26.7630 O.co2     1 XH2        -0.5717
      9 OAN         0.3520   10.9940   25.3590 O.co2     1 XH2        -0.5717
     10 OAM         3.6910   10.7160   24.5930 O.3       1 XH2        -0.4539
     11 CAE         2.9630   12.8870   24.5230 C.2       1 XH2        -0.0573
     12 CAD         3.1320   13.7360   23.4150 C.2       1 XH2         0.0428
     13 CAL         3.6030   15.0790   23.6080 C.3       1 XH2         0.0557
     14 CAK         3.0180   15.7010   24.8980 C.3       1 XH2         0.0706
     15 OAJ         2.9920   17.1910   24.8500 O.3       1 XH2        -0.3899
     16 H           3.9238   14.5284   21.1064 H         1 XH2         0.2176
     17 H           1.8243   13.6994   21.8104 H         1 XH2         0.1053
     18 H           3.6522   11.2373   22.0985 H         1 XH2         0.0662
     19 H           2.6917   11.6162   19.9992 H         1 XH2         0.2103
     20 H           1.6207   10.1116   23.0542 H         1 XH2         0.0144
     21 H           0.7897   11.7037   23.0903 H         1 XH2         0.0144
     22 H           3.4526    9.7964   24.5844 H         1 XH2         0.1842
     23 H           3.2268   13.2890   25.5001 H         1 XH2         0.0428
     24 H           3.3008   15.6919   22.7460 H         1 XH2         0.0711
     25 H           4.7004   15.0665   23.6823 H         1 XH2         0.0711
     26 H           3.6343   15.3860   25.7529 H         1 XH2         0.0613
     27 H           1.9897   15.3340   25.0322 H         1 XH2         0.0613
     28 H           2.6264   17.5265   25.6601 H         1 XH2         0.2099
@<TRIPOS>BOND
     1    1    2 1  
     2    2    3 1  
     3    2   12 1  
     4    3    4 1  
     5    3    5 1  
     6    5    6 1  
     7    6    7 1  
     8    6   10 1  
     9    6   11 1  
    10    7    8 ar 
    11    7    9 ar 
    12   11   12 2  
    13   12   13 1  
    14   13   14 1  
    15   14   15 1  
    16    1   16 1  
    17    2   17 1  
    18    3   18 1  
    19    4   19 1  
    20    5   20 1  
    21    5   21 1  
    22   10   22 1  
    23   11   23 1  
    24   13   24 1  
    25   13   25 1  
    26   14   26 1  
    27   14   27 1  
    28   15   28 1  
@<TRIPOS>SUBSTRUCTURE
     1 XH2         1

