### 
### Created by X-TOOL on Mon Sep 10 21:13:16 2018
### 

@<TRIPOS>MOLECULE
4cix_ligand
   38    39     1     0     0
SMALL
GAST_HUCK


@<TRIPOS>ATOM
      1 CAK         6.4620  -31.1470  -46.5600 C.ar      1 W4N        -0.0599
      2 CAI         5.1520  -31.6220  -46.4710 C.ar      1 W4N        -0.0686
      3 CAH         4.1440  -31.0020  -47.2070 C.ar      1 W4N        -0.0687
      4 CAJ         4.4340  -29.9150  -48.0350 C.ar      1 W4N        -0.0686
      5 CAL         5.7430  -29.4430  -48.1270 C.ar      1 W4N        -0.0599
      6 CAQ         6.7650  -30.0560  -47.3890 C.ar      1 W4N        -0.0356
      7 CAM         8.0810  -29.5880  -47.4840 C.3       1 W4N         0.0347
      8 CAR         8.2600  -28.3370  -46.6250 C.3       1 W4N         0.1490
      9 OAC         9.3680  -27.5560  -47.1310 O.3       1 W4N        -0.3568
     10 CAP         8.4180  -28.7170  -45.2780 C.2       1 W4N         0.0713
     11 CAG         7.2700  -28.7030  -44.4830 C.2       1 W4N        -0.0546
     12 CAU         7.2200  -29.0660  -43.1350 C.3       1 W4N         0.0565
     13 CAO         6.0870  -29.8820  -42.9560 C.2       1 W4N         0.0068
     14 OAB         6.2420  -31.1100  -42.7890 O.co2     1 W4N        -0.5717
     15 OAA         4.9810  -29.3180  -43.0050 O.co2     1 W4N        -0.5717
     16 OAF         7.0540  -27.8900  -42.3490 O.3       1 W4N        -0.4539
     17 CAN         8.4640  -29.7960  -42.6720 C.3       1 W4N        -0.0350
     18 CAS         9.6810  -29.0590  -43.2390 C.3       1 W4N         0.0973
     19 OAD        10.9080  -29.6970  -42.7860 O.3       1 W4N        -0.3854
     20 CAT         9.6620  -29.1260  -44.7650 C.3       1 W4N         0.1641
     21 OAE        10.7200  -28.2780  -45.2190 O.3       1 W4N        -0.3561
     22 H           7.2487  -31.6232  -45.9860 H         1 W4N         0.0557
     23 H           4.9205  -32.4676  -45.8335 H         1 W4N         0.0599
     24 H           3.1256  -31.3666  -47.1363 H         1 W4N         0.0559
     25 H           3.6436  -29.4396  -48.6045 H         1 W4N         0.0599
     26 H           5.9705  -28.6007  -48.7703 H         1 W4N         0.0557
     27 H           8.3048  -29.3435  -48.5329 H         1 W4N         0.0506
     28 H           8.7709  -30.3703  -47.1346 H         1 W4N         0.0506
     29 H           7.3503  -27.7233  -46.7006 H         1 W4N         0.1052
     30 H          10.1616  -28.0773  -47.1001 H         1 W4N         0.2176
     31 H           6.3400  -28.3838  -44.9510 H         1 W4N         0.0429
     32 H           6.2726  -27.4294  -42.6314 H         1 W4N         0.1842
     33 H           8.4488  -30.8319  -43.0417 H         1 W4N         0.0144
     34 H           8.5080  -29.7995  -41.5729 H         1 W4N         0.0144
     35 H           9.6606  -28.0099  -42.9090 H         1 W4N         0.0662
     36 H          11.6557  -29.2324  -43.1431 H         1 W4N         0.2103
     37 H           9.8530  -30.1590  -45.0911 H         1 W4N         0.1054
     38 H          10.7470  -28.2880  -46.1685 H         1 W4N         0.2176
@<TRIPOS>BOND
     1    1    2 ar 
     2    1    6 ar 
     3    2    3 ar 
     4    3    4 ar 
     5    4    5 ar 
     6    5    6 ar 
     7    6    7 1  
     8    7    8 1  
     9    8    9 1  
    10    8   10 1  
    11   10   11 2  
    12   10   20 1  
    13   11   12 1  
    14   12   13 1  
    15   12   16 1  
    16   12   17 1  
    17   13   14 ar 
    18   13   15 ar 
    19   17   18 1  
    20   18   19 1  
    21   18   20 1  
    22   20   21 1  
    23    1   22 1  
    24    2   23 1  
    25    3   24 1  
    26    4   25 1  
    27    5   26 1  
    28    7   27 1  
    29    7   28 1  
    30    8   29 1  
    31    9   30 1  
    32   11   31 1  
    33   16   32 1  
    34   17   33 1  
    35   17   34 1  
    36   18   35 1  
    37   19   36 1  
    38   20   37 1  
    39   21   38 1  
@<TRIPOS>SUBSTRUCTURE
     1 W4N         1

