### 
### Created by X-TOOL on Mon Sep 10 21:13:16 2018
### 

@<TRIPOS>MOLECULE
4ciy_ligand
   38    39     1     0     0
SMALL
GAST_HUCK


@<TRIPOS>ATOM
      1 CAK       -14.5000  -29.1070    6.1440 C.ar      1 NDY        -0.0599
      2 CAI       -13.3280  -29.0810    5.3750 C.ar      1 NDY        -0.0686
      3 CAH       -12.0740  -29.4420    5.9110 C.ar      1 NDY        -0.0687
      4 CAJ       -11.9710  -29.8360    7.2380 C.ar      1 NDY        -0.0686
      5 CAL       -13.1350  -29.8490    8.0090 C.ar      1 NDY        -0.0599
      6 CAQ       -14.4070  -29.4790    7.4970 C.ar      1 NDY        -0.0356
      7 CAM       -15.5620  -29.5990    8.3410 C.3       1 NDY         0.0347
      8 CAR       -16.4140  -28.3980    8.5720 C.3       1 NDY         0.1490
      9 OAC       -16.0610  -27.4550    7.5760 O.3       1 NDY        -0.3568
     10 CAP       -17.8130  -28.7660    8.5890 C.2       1 NDY         0.0713
     11 CAG       -18.5620  -28.7700    7.4080 C.2       1 NDY        -0.0546
     12 CAU       -19.9860  -29.0670    7.3350 C.3       1 NDY         0.0565
     13 CAO       -20.2390  -29.9020    6.1590 C.2       1 NDY         0.0068
     14 OAB       -20.4800  -31.1360    6.2530 O.co2     1 NDY        -0.5717
     15 OAA       -20.2460  -29.3470    5.0550 O.co2     1 NDY        -0.5717
     16 OAF       -20.7180  -27.7990    7.1930 O.3       1 NDY        -0.4539
     17 CAN       -20.5480  -29.7220    8.6140 C.3       1 NDY        -0.0350
     18 CAS       -19.9850  -29.0330    9.8330 C.3       1 NDY         0.0973
     19 OAD       -20.4090  -29.7140   11.0880 O.3       1 NDY        -0.3854
     20 CAT       -18.4290  -29.0510    9.8450 C.3       1 NDY         0.1641
     21 OAE       -18.1240  -28.0470   10.8290 O.3       1 NDY        -0.3561
     22 H         -15.4564  -28.8462    5.7055 H         1 NDY         0.0557
     23 H         -13.3872  -28.7742    4.3370 H         1 NDY         0.0599
     24 H         -11.1892  -29.4116    5.2854 H         1 NDY         0.0559
     25 H         -11.0163  -30.1247    7.6626 H         1 NDY         0.0599
     26 H         -13.0646  -30.1557    9.0463 H         1 NDY         0.0557
     27 H         -15.2082  -29.9379    9.3259 H         1 NDY         0.0506
     28 H         -16.2070  -30.3717    7.8973 H         1 NDY         0.0506
     29 H         -16.1727  -27.9680    9.5553 H         1 NDY         0.1052
     30 H         -16.5831  -26.6691    7.6863 H         1 NDY         0.2176
     31 H         -18.0449  -28.5348    6.4789 H         1 NDY         0.0429
     32 H         -20.4205  -27.3487    6.4112 H         1 NDY         0.1842
     33 H         -20.2666  -30.7852    8.6333 H         1 NDY         0.0144
     34 H         -21.6443  -29.6327    8.6182 H         1 NDY         0.0144
     35 H         -20.3406  -27.9921    9.8392 H         1 NDY         0.0662
     36 H         -21.3571  -29.7047   11.1472 H         1 NDY         0.2103
     37 H         -18.0721  -30.0362   10.1796 H         1 NDY         0.1054
     38 H         -17.1815  -27.9712   10.9208 H         1 NDY         0.2176
@<TRIPOS>BOND
     1    1    2 ar 
     2    1    6 ar 
     3    2    3 ar 
     4    3    4 ar 
     5    4    5 ar 
     6    5    6 ar 
     7    6    7 1  
     8    7    8 1  
     9    8    9 1  
    10    8   10 1  
    11   10   11 2  
    12   10   20 1  
    13   11   12 1  
    14   12   13 1  
    15   12   16 1  
    16   12   17 1  
    17   13   14 ar 
    18   13   15 ar 
    19   17   18 1  
    20   18   19 1  
    21   18   20 1  
    22   20   21 1  
    23    1   22 1  
    24    2   23 1  
    25    3   24 1  
    26    4   25 1  
    27    5   26 1  
    28    7   27 1  
    29    7   28 1  
    30    8   29 1  
    31    9   30 1  
    32   11   31 1  
    33   16   32 1  
    34   17   33 1  
    35   17   34 1  
    36   18   35 1  
    37   19   36 1  
    38   20   37 1  
    39   21   38 1  
@<TRIPOS>SUBSTRUCTURE
     1 NDY         1

