### 
### Created by X-TOOL on Mon Sep 10 21:13:20 2018
### 

@<TRIPOS>MOLECULE
4ciz_ligand
   38    38     1     0     0
SMALL
GAST_HUCK


@<TRIPOS>ATOM
      1 C1         -6.0680   15.1820   12.2900 C.3       1 RET        -0.0196
      2 C2         -7.0930   14.7590   13.3540 C.3       1 RET        -0.0452
      3 C3         -8.3320   15.6390   13.3020 C.3       1 RET        -0.0519
      4 C4         -9.0470   15.4750   11.9710 C.3       1 RET        -0.0477
      5 C5         -8.1150   15.2210   10.8230 C.3       1 RET        -0.0282
      6 C6         -6.7730   15.2830   10.9550 C.3       1 RET         0.0007
      7 C7         -5.9060   15.0910    9.7990 C.2       1 RET        -0.0666
      8 C8         -4.9770   15.9210    9.3220 C.2       1 RET        -0.0662
      9 C9         -4.2970   15.6730    8.0490 C.2       1 RET        -0.0759
     10 C10        -2.9560   15.8420    7.9310 C.2       1 RET        -0.1247
     11 C16        -5.4290   16.5350   12.6740 C.3       1 RET        -0.0571
     12 C17        -4.9340   14.1430   12.2510 C.3       1 RET        -0.0571
     13 C18        -8.7580   14.5520    9.6580 C.3       1 RET        -0.0597
     14 C19        -5.1520   15.2250    6.8950 C.3       1 RET        -0.0362
     15 H          -6.6333   14.8446   14.3496 H         1 RET         0.0273
     16 H          -7.3868   13.7143   13.1744 H         1 RET         0.0273
     17 H          -8.0343   16.6907   13.4256 H         1 RET         0.0266
     18 H          -9.0136   15.3527   14.1165 H         1 RET         0.0266
     19 H          -9.6136   16.3947   11.7635 H         1 RET         0.0270
     20 H          -9.7421   14.6262   12.0505 H         1 RET         0.0270
     21 H          -8.1907   16.2373   10.4089 H         1 RET         0.0331
     22 H          -6.7492   16.3822   10.9201 H         1 RET         0.0519
     23 H          -6.0323   14.1544    9.2580 H         1 RET         0.0770
     24 H          -4.7167   16.8090    9.8961 H         1 RET         0.0438
     25 H          -2.4653   15.6534    6.9773 H         1 RET         0.0190
     26 H          -2.3704   16.1663    8.7900 H         1 RET         0.0190
     27 H          -4.9229   16.4387   13.6459 H         1 RET         0.0237
     28 H          -6.2124   17.3040   12.7432 H         1 RET         0.0237
     29 H          -4.6966   16.8256   11.9065 H         1 RET         0.0237
     30 H          -5.3466   13.1599   11.9801 H         1 RET         0.0237
     31 H          -4.4592   14.0811   13.2413 H         1 RET         0.0237
     32 H          -4.1855   14.4450   11.5037 H         1 RET         0.0237
     33 H          -9.8517   14.6196    9.7541 H         1 RET         0.0235
     34 H          -8.4571   13.4943    9.6305 H         1 RET         0.0235
     35 H          -8.4402   15.0479    8.7290 H         1 RET         0.0235
     36 H          -6.2006   15.1573    7.2202 H         1 RET         0.0391
     37 H          -4.8115   14.2384    6.5477 H         1 RET         0.0391
     38 H          -5.0691   15.9517    6.0734 H         1 RET         0.0391
@<TRIPOS>BOND
     1    1    2 1  
     2    1    6 1  
     3    1   11 1  
     4    1   12 1  
     5    2    3 1  
     6    3    4 1  
     7    4    5 1  
     8    5    6 1  
     9    5   13 1  
    10    6    7 1  
    11    7    8 2  
    12    8    9 1  
    13    9   10 2  
    14    9   14 1  
    15    2   15 1  
    16    2   16 1  
    17    3   17 1  
    18    3   18 1  
    19    4   19 1  
    20    4   20 1  
    21    5   21 1  
    22    6   22 1  
    23    7   23 1  
    24    8   24 1  
    25   10   25 1  
    26   10   26 1  
    27   11   27 1  
    28   11   28 1  
    29   11   29 1  
    30   12   30 1  
    31   12   31 1  
    32   12   32 1  
    33   13   33 1  
    34   13   34 1  
    35   13   35 1  
    36   14   36 1  
    37   14   37 1  
    38   14   38 1  
@<TRIPOS>SUBSTRUCTURE
     1 RET         1

