### 
### Created by X-TOOL on Mon Sep 10 21:13:18 2018
### 

@<TRIPOS>MOLECULE
4cj4_ligand
   51    53     1     0     0
SMALL
GAST_HUCK


@<TRIPOS>ATOM
      1 C1        -11.2580   44.2170   -1.8040 C.ar      1 S3G        -0.0762
      2 C2        -12.1510   44.2180   -2.8540 C.ar      1 S3G        -0.0451
      3 C3        -10.8670   49.4760    3.1290 C.ar      1 S3G        -0.0141
      4 C4         -9.3590   48.0840    4.3370 C.ar      1 S3G        -0.0141
      5 C5        -11.4340   49.8090    4.3400 C.ar      1 S3G         0.0169
      6 C6        -10.0000   48.4850    5.4870 C.ar      1 S3G         0.0169
      7 C7         -9.8120   48.5960    3.1450 C.ar      1 S3G         0.0697
      8 C8        -12.8890   45.1580   -0.3010 C.ar      1 S3G         0.0326
      9 C9        -11.6080   44.6820   -0.5430 C.ar      1 S3G        -0.0473
     10 C10       -13.4080   44.6940   -2.5980 C.ar      1 S3G         0.1200
     11 C11       -13.7600   45.1490   -1.3640 C.ar      1 S3G         0.1325
     12 C12        -9.1670   48.2030    1.8930 C.2       1 S3G         0.2151
     13 C13       -13.3800   45.6780    1.0100 C.2       1 S3G         0.0513
     14 C14       -15.5020   45.0450   -2.5900 C.3       1 S3G         0.1864
     15 C15        -7.4570   42.6850    0.2260 C.3       1 S3G        -0.0627
     16 C16        -6.8800   43.2720    2.5690 C.3       1 S3G        -0.0627
     17 C17       -10.5740   44.6140    0.5350 C.3       1 S3G        -0.0196
     18 C18        -8.2180   44.8770    1.2510 C.3       1 S3G        -0.0443
     19 C19        -9.3550   46.6880   -0.0210 C.3       1 S3G         0.0351
     20 C20        -7.9330   43.3920    1.4800 C.3       1 S3G        -0.0463
     21 C21        -9.2310   45.1870    0.1600 C.3       1 S3G        -0.0120
     22 N22       -11.0310   49.3360    5.5250 N.ar      1 S3G        -0.2918
     23 N23        -9.9210   47.3320    1.1400 N.am      1 S3G        -0.2840
     24 O24       -14.4820   45.2350    1.4360 O.co2     1 S3G        -0.5668
     25 O25        -8.0650   48.6550    1.6190 O.2       1 S3G        -0.3793
     26 O26       -12.6750   46.5540    1.5890 O.co2     1 S3G        -0.5668
     27 O27       -14.4310   44.7680   -3.4940 O.3       1 S3G        -0.2947
     28 O28       -15.0590   45.5680   -1.3310 O.3       1 S3G        -0.2890
     29 H         -10.2539   43.8426   -1.9671 H         1 S3G         0.0443
     30 H         -11.8704   43.8582   -3.8373 H         1 S3G         0.0514
     31 H         -11.2389   49.8922    2.1998 H         1 S3G         0.0762
     32 H          -8.5272   47.3897    4.3703 H         1 S3G         0.0762
     33 H         -12.2660   50.5038    4.3320 H         1 S3G         0.0837
     34 H          -9.6440   48.0826    6.4285 H         1 S3G         0.0837
     35 H         -16.0539   44.1115   -2.4057 H         1 S3G         0.0973
     36 H         -16.1724   45.7812   -3.0576 H         1 S3G         0.0973
     37 H          -7.2691   41.6249    0.4517 H         1 S3G         0.0232
     38 H          -6.5279   43.1545   -0.1294 H         1 S3G         0.0232
     39 H          -8.2287   42.7626   -0.5540 H         1 S3G         0.0232
     40 H          -7.2303   43.7864    3.4760 H         1 S3G         0.0232
     41 H          -5.9425   43.7331    2.2250 H         1 S3G         0.0232
     42 H          -6.7050   42.2097    2.7944 H         1 S3G         0.0232
     43 H         -10.4315   43.5576    0.8064 H         1 S3G         0.0415
     44 H         -10.9514   45.1688    1.4066 H         1 S3G         0.0415
     45 H          -7.2703   45.3669    0.9830 H         1 S3G         0.0273
     46 H          -8.5953   45.2994    2.1940 H         1 S3G         0.0273
     47 H         -10.0020   46.8881   -0.8878 H         1 S3G         0.0524
     48 H          -8.3546   47.1064   -0.2058 H         1 S3G         0.0524
     49 H          -8.8598   42.9060    1.8188 H         1 S3G         0.0296
     50 H          -8.8942   44.7349   -0.7846 H         1 S3G         0.0341
     51 H         -10.8683   47.1439    1.3993 H         1 S3G         0.1848
@<TRIPOS>BOND
     1    1    2 ar 
     2    9    1 ar 
     3    2   10 ar 
     4    3    5 ar 
     5    7    3 ar 
     6    4    6 ar 
     7    7    4 ar 
     8    5   22 ar 
     9    6   22 ar 
    10   12    7 1  
    11    9    8 ar 
    12    8   11 ar 
    13    8   13 1  
    14   17    9 1  
    15   11   10 ar 
    16   10   27 1  
    17   11   28 1  
    18   23   12 am 
    19   12   25 2  
    20   13   24 ar 
    21   13   26 ar 
    22   14   27 1  
    23   28   14 1  
    24   20   15 1  
    25   20   16 1  
    26   21   17 1  
    27   18   20 1  
    28   21   18 1  
    29   19   21 1  
    30   19   23 1  
    31    1   29 1  
    32    2   30 1  
    33    3   31 1  
    34    4   32 1  
    35    5   33 1  
    36    6   34 1  
    37   14   35 1  
    38   14   36 1  
    39   15   37 1  
    40   15   38 1  
    41   15   39 1  
    42   16   40 1  
    43   16   41 1  
    44   16   42 1  
    45   17   43 1  
    46   17   44 1  
    47   18   45 1  
    48   18   46 1  
    49   19   47 1  
    50   19   48 1  
    51   20   49 1  
    52   21   50 1  
    53   23   51 1  
@<TRIPOS>SUBSTRUCTURE
     1 S3G         1

