### 
### Created by X-TOOL on Mon Sep 10 21:13:17 2018
### 

@<TRIPOS>MOLECULE
4cjp_ligand
   51    53     1     0     0
SMALL
GAST_HUCK


@<TRIPOS>ATOM
      1 C1         -9.8980   48.3000    5.0110 C.ar      1 4D2        -0.0284
      2 C2         -9.2760   47.8700    3.8610 C.ar      1 4D2        -0.0224
      3 C3        -11.2020   44.0440   -2.3050 C.ar      1 4D2        -0.0762
      4 C4        -12.0900   44.1100   -3.3540 C.ar      1 4D2        -0.0451
      5 C5        -10.9430   49.1890    4.9010 C.ar      1 4D2         0.0155
      6 C6        -10.7880   49.2440    2.6450 C.ar      1 4D2         0.0313
      7 C7         -9.7390   48.3560    2.6630 C.ar      1 4D2         0.0779
      8 C8        -12.7980   44.9810   -0.7730 C.ar      1 4D2         0.0326
      9 C9        -11.5300   44.4720   -1.0280 C.ar      1 4D2        -0.0473
     10 C10       -13.3330   44.6140   -3.0880 C.ar      1 4D2         0.1200
     11 C11       -13.6700   45.0340   -1.8380 C.ar      1 4D2         0.1325
     12 C12        -9.0990   47.9240    1.4180 C.2       1 4D2         0.2129
     13 C13       -13.2740   45.4610    0.5580 C.2       1 4D2         0.0513
     14 C14       -15.4140   44.9730   -3.0560 C.3       1 4D2         0.1864
     15 C15        -7.4470   42.4300   -0.1920 C.3       1 4D2        -0.0627
     16 C16        -6.7620   43.0700    2.0720 C.3       1 4D2        -0.0627
     17 C17       -10.4800   44.3300    0.0350 C.3       1 4D2        -0.0196
     18 C18        -8.1230   44.6530    0.7790 C.3       1 4D2        -0.0443
     19 C19        -9.2630   46.4260   -0.5020 C.3       1 4D2         0.0350
     20 C20        -7.8720   43.1780    1.0510 C.3       1 4D2        -0.0463
     21 C21        -9.1320   44.9280   -0.3200 C.3       1 4D2        -0.0120
     22 N22       -11.4080   49.6780    3.7480 N.ar      1 4D2        -0.2903
     23 N23        -9.8500   47.0610    0.6570 N.am      1 4D2        -0.2846
     24 O24       -14.3880   45.0330    0.9680 O.co2     1 4D2        -0.5668
     25 O25        -7.9830   48.3380    1.1530 O.2       1 4D2        -0.3816
     26 O26       -12.5480   46.2780    1.1810 O.co2     1 4D2        -0.5668
     27 O27       -14.3490   44.7440   -3.9940 O.3       1 4D2        -0.2947
     28 O28       -14.9580   45.4890   -1.7930 O.3       1 4D2        -0.2890
     29 H          -9.5719   47.9462    5.9824 H         1 4D2         0.0722
     30 H          -8.4483   47.1711    3.8996 H         1 4D2         0.0789
     31 H         -10.2108   43.6431   -2.4835 H         1 4D2         0.0443
     32 H         -11.8160   43.7768   -4.3485 H         1 4D2         0.0514
     33 H         -11.4234   49.5160    5.8161 H         1 4D2         0.0858
     34 H         -11.1314   49.6125    1.6851 H         1 4D2         0.0879
     35 H         -15.9327   44.0197   -2.8770 H         1 4D2         0.0973
     36 H         -16.1169   45.6961   -3.4954 H         1 4D2         0.0973
     37 H          -7.2784   41.3718    0.0565 H         1 4D2         0.0232
     38 H          -6.5166   42.8674   -0.5831 H         1 4D2         0.0232
     39 H          -8.2367   42.5064   -0.9539 H         1 4D2         0.0232
     40 H          -7.0513   43.6087    2.9864 H         1 4D2         0.0232
     41 H          -5.8420   43.5119    1.6617 H         1 4D2         0.0232
     42 H          -6.5852   42.0109    2.3108 H         1 4D2         0.0232
     43 H         -10.3371   43.2577    0.2341 H         1 4D2         0.0415
     44 H         -10.8456   44.8265    0.9459 H         1 4D2         0.0415
     45 H          -7.1677   45.1167    0.4920 H         1 4D2         0.0273
     46 H          -8.4911   45.1155    1.7067 H         1 4D2         0.0273
     47 H          -9.9002   46.6236   -1.3766 H         1 4D2         0.0524
     48 H          -8.2634   46.8522   -0.6728 H         1 4D2         0.0524
     49 H          -8.7917   42.7233    1.4476 H         1 4D2         0.0296
     50 H          -8.7765   44.4774   -1.2584 H         1 4D2         0.0341
     51 H         -10.8005   46.8724    0.9041 H         1 4D2         0.1847
@<TRIPOS>BOND
     1    2    1 ar 
     2    1    5 ar 
     3    7    2 ar 
     4    3    4 ar 
     5    9    3 ar 
     6    4   10 ar 
     7   22    5 ar 
     8    7    6 ar 
     9    6   22 ar 
    10   12    7 1  
    11    9    8 ar 
    12    8   11 ar 
    13    8   13 1  
    14   17    9 1  
    15   11   10 ar 
    16   10   27 1  
    17   11   28 1  
    18   23   12 am 
    19   12   25 2  
    20   13   24 ar 
    21   13   26 ar 
    22   14   27 1  
    23   28   14 1  
    24   20   15 1  
    25   20   16 1  
    26   21   17 1  
    27   18   20 1  
    28   21   18 1  
    29   19   21 1  
    30   19   23 1  
    31    1   29 1  
    32    2   30 1  
    33    3   31 1  
    34    4   32 1  
    35    5   33 1  
    36    6   34 1  
    37   14   35 1  
    38   14   36 1  
    39   15   37 1  
    40   15   38 1  
    41   15   39 1  
    42   16   40 1  
    43   16   41 1  
    44   16   42 1  
    45   17   43 1  
    46   17   44 1  
    47   18   45 1  
    48   18   46 1  
    49   19   47 1  
    50   19   48 1  
    51   20   49 1  
    52   21   50 1  
    53   23   51 1  
@<TRIPOS>SUBSTRUCTURE
     1 4D2         1

