### 
### Created by X-TOOL on Mon Sep 10 21:13:18 2018
### 

@<TRIPOS>MOLECULE
4cjq_ligand
   59    62     1     0     0
SMALL
GAST_HUCK


@<TRIPOS>ATOM
      1 C1        -12.0120   48.9490    6.7090 C.ar      1 VXO        -0.0792
      2 C2        -12.7980   50.0690    6.5640 C.ar      1 VXO        -0.0767
      3 C3        -11.2010   48.4990    5.6910 C.ar      1 VXO        -0.0746
      4 C4        -11.1620   44.0870   -2.3970 C.ar      1 VXO        -0.0762
      5 C5        -12.8090   50.7960    5.3940 C.ar      1 VXO        -0.0443
      6 C6        -12.0680   44.1060   -3.4350 C.ar      1 VXO        -0.0451
      7 C7        -10.8970   50.0660    2.4510 C.2       1 VXO         0.0192
      8 C8        -11.1970   49.2120    4.5070 C.ar      1 VXO        -0.0194
      9 C9        -12.7770   44.9850   -0.8650 C.ar      1 VXO         0.0326
     10 C10       -11.4930   44.5240   -1.1240 C.ar      1 VXO        -0.0473
     11 C11       -10.5020   49.0400    3.2820 C.2       1 VXO        -0.0275
     12 C12       -11.9930   50.3340    4.3880 C.ar      1 VXO         0.0606
     13 C13       -13.3260   44.5700   -3.1650 C.ar      1 VXO         0.1200
     14 C14       -13.6610   44.9970   -1.9190 C.ar      1 VXO         0.1325
     15 C15       -13.2530   45.4770    0.4530 C.2       1 VXO         0.0513
     16 C16        -9.0420   47.9190    1.6010 C.2       1 VXO         0.1811
     17 C17       -15.4250   44.9190   -3.1310 C.3       1 VXO         0.1864
     18 C18        -7.4240   42.5100   -0.3550 C.3       1 VXO        -0.0627
     19 C19        -6.7510   43.1590    1.9520 C.3       1 VXO        -0.0627
     20 C20        -9.5510   47.9460    3.0110 C.3       1 VXO         0.0536
     21 C21       -10.4310   44.4300   -0.0710 C.3       1 VXO        -0.0196
     22 C22        -8.0480   44.7650    0.6100 C.3       1 VXO        -0.0443
     23 C23        -9.2890   46.6010   -0.4640 C.3       1 VXO         0.0354
     24 C24        -7.8250   43.2820    0.8870 C.3       1 VXO        -0.0463
     25 C25        -9.1140   45.0930   -0.4250 C.3       1 VXO        -0.0120
     26 N26       -11.7960   50.8380    3.1320 N.pl3     1 VXO        -0.2884
     27 N27        -9.8210   47.1380    0.7710 N.am      1 VXO        -0.2856
     28 O28       -14.3780   45.0770    0.8640 O.co2     1 VXO        -0.5668
     29 O29       -12.5090   46.3020    1.0500 O.co2     1 VXO        -0.5668
     30 O30        -8.0300   48.5200    1.2750 O.2       1 VXO        -0.3955
     31 O31       -14.3640   44.6530   -4.0540 O.3       1 VXO        -0.2947
     32 O32       -14.9600   45.4050   -1.8640 O.3       1 VXO        -0.2890
     33 H         -12.0316   48.4074    7.6478 H         1 VXO         0.0510
     34 H         -13.4236   50.3869    7.3903 H         1 VXO         0.0530
     35 H         -10.5861   47.6148    5.8142 H         1 VXO         0.0540
     36 H         -10.1593   43.7189   -2.5817 H         1 VXO         0.0443
     37 H         -13.4245   51.6801    5.2734 H         1 VXO         0.0541
     38 H         -11.7943   43.7663   -4.4273 H         1 VXO         0.0514
     39 H         -10.5533   50.2324    1.4311 H         1 VXO         0.0803
     40 H         -15.9857   43.9875   -2.9642 H         1 VXO         0.0973
     41 H         -16.0918   45.6744   -3.5723 H         1 VXO         0.0973
     42 H          -7.2771   41.4509   -0.0969 H         1 VXO         0.0232
     43 H          -6.4869   42.9228   -0.7567 H         1 VXO         0.0232
     44 H          -8.2171   42.5962   -1.1123 H         1 VXO         0.0232
     45 H          -7.0549   43.7232    2.8461 H         1 VXO         0.0232
     46 H          -5.8042   43.5651    1.5666 H         1 VXO         0.0232
     47 H          -6.6155   42.0997    2.2155 H         1 VXO         0.0232
     48 H         -10.0553   46.9900    3.2155 H         1 VXO         0.0583
     49 H          -8.6910   48.0590    3.6875 H         1 VXO         0.0583
     50 H         -10.2353   43.3648    0.1216 H         1 VXO         0.0415
     51 H         -10.8157   44.9035    0.8443 H         1 VXO         0.0415
     52 H          -7.0957   45.1897    0.2597 H         1 VXO         0.0273
     53 H          -8.3376   45.2452    1.5563 H         1 VXO         0.0273
     54 H          -9.9791   46.8534   -1.2826 H         1 VXO         0.0524
     55 H          -8.3093   47.0634   -0.6546 H         1 VXO         0.0524
     56 H          -8.7622   42.8521    1.2702 H         1 VXO         0.0296
     57 H          -8.7862   44.7350   -1.4121 H         1 VXO         0.0341
     58 H         -12.2580   51.6774    2.7542 H         1 VXO         0.2218
     59 H         -10.7673   46.9401    1.0266 H         1 VXO         0.1851
@<TRIPOS>BOND
     1    1    2 ar 
     2    3    1 ar 
     3    5    2 ar 
     4    8    3 ar 
     5    4    6 ar 
     6   10    4 ar 
     7   12    5 ar 
     8    6   13 ar 
     9   11    7 2  
    10    7   26 1  
    11   11    8 1  
    12    8   12 ar 
    13   10    9 ar 
    14    9   14 ar 
    15    9   15 1  
    16   21   10 1  
    17   20   11 1  
    18   12   26 1  
    19   14   13 ar 
    20   13   31 1  
    21   14   32 1  
    22   15   28 ar 
    23   15   29 ar 
    24   16   20 1  
    25   27   16 am 
    26   16   30 2  
    27   17   31 1  
    28   32   17 1  
    29   24   18 1  
    30   24   19 1  
    31   25   21 1  
    32   22   24 1  
    33   25   22 1  
    34   23   25 1  
    35   23   27 1  
    36    1   33 1  
    37    2   34 1  
    38    3   35 1  
    39    4   36 1  
    40    5   37 1  
    41    6   38 1  
    42    7   39 1  
    43   17   40 1  
    44   17   41 1  
    45   18   42 1  
    46   18   43 1  
    47   18   44 1  
    48   19   45 1  
    49   19   46 1  
    50   19   47 1  
    51   20   48 1  
    52   20   49 1  
    53   21   50 1  
    54   21   51 1  
    55   22   52 1  
    56   22   53 1  
    57   23   54 1  
    58   23   55 1  
    59   24   56 1  
    60   25   57 1  
    61   26   58 1  
    62   27   59 1  
@<TRIPOS>SUBSTRUCTURE
     1 VXO         1

