### 
### Created by X-TOOL on Mon Sep 10 21:13:17 2018
### 

@<TRIPOS>MOLECULE
4cjr_ligand
   64    67     1     0     0
SMALL
GAST_HUCK


@<TRIPOS>ATOM
      1 C1          9.4420   32.7650    3.6590 C.ar      1 FYM        -0.0743
      2 C2          9.6320   33.6940    2.6610 C.ar      1 FYM        -0.0625
      3 C3          6.8260   36.7580    0.6860 C.ar      1 FYM        -0.0668
      4 C4          7.1730   34.7590   -0.5700 C.ar      1 FYM        -0.0668
      5 C5          9.8840   31.4740    3.4790 C.ar      1 FYM        -0.0360
      6 C6          6.4700   36.0030    1.7810 C.ar      1 FYM        -0.0395
      7 C7          6.8170   33.9950    0.5240 C.ar      1 FYM        -0.0395
      8 C8         10.9900   36.0450   -4.0150 C.ar      1 FYM        -0.0276
      9 C9         13.1630   35.1090   -2.4920 C.ar      1 FYM        -0.0277
     10 C10        11.0650   36.2470   -2.6500 C.ar      1 FYM         0.0364
     11 C11        10.7030   32.0490    1.2840 C.ar      1 FYM         0.0449
     12 C12         7.1770   36.1390   -0.4930 C.ar      1 FYM        -0.0318
     13 C13        10.2540   33.3480    1.4760 C.ar      1 FYM         0.0075
     14 C14        12.1270   35.7930   -1.8900 C.ar      1 FYM         0.0029
     15 C15        12.0350   35.3610   -4.5880 C.ar      1 FYM         0.1220
     16 C16        13.0840   34.9100   -3.8510 C.ar      1 FYM         0.1231
     17 C17         6.4610   34.6270    1.7010 C.ar      1 FYM         0.0837
     18 C18        10.5090   31.1270    2.2980 C.ar      1 FYM         0.0997
     19 C19         9.9720   36.9730   -2.0010 C.2       1 FYM         0.1913
     20 C20        11.3710   31.6330    0.0160 C.2       1 FYM         0.0539
     21 C21        13.3740   34.3050   -5.8930 C.3       1 FYM         0.1867
     22 C22        12.4950   35.0400    1.7530 C.3       1 FYM        -0.0402
     23 C23         5.9770   32.5440    2.5300 C.3       1 FYM         0.0579
     24 C24        10.9180   29.1300    3.3410 C.3       1 FYM         0.0603
     25 C25         7.5550   36.9800   -1.6680 C.3       1 FYM         0.0586
     26 C26        10.4340   34.4190    0.4460 C.3       1 FYM         0.0030
     27 C27        12.1660   36.0380   -0.4190 C.3       1 FYM        -0.0003
     28 N28         8.7370   36.4730   -2.3030 N.am      1 FYM        -0.2794
     29 N29        11.8720   34.8460    0.4180 N.4       1 FYM         0.2567
     30 O30        11.0800   30.4730   -0.4230 O.co2     1 FYM        -0.5666
     31 O31        10.2070   37.9250   -1.2700 O.2       1 FYM        -0.3935
     32 O32        12.1340   32.4630   -0.5580 O.co2     1 FYM        -0.5666
     33 O33        12.1540   35.0550   -5.9220 O.3       1 FYM        -0.2941
     34 O34        14.0140   34.2520   -4.6110 O.3       1 FYM        -0.2888
     35 O35         6.0900   33.9300    2.8460 O.3       1 FYM        -0.3257
     36 O36        10.9690   29.8380    2.1100 O.3       1 FYM        -0.3194
     37 H           8.9473   33.0485    4.5809 H         1 FYM         0.0593
     38 H           9.2888   34.7119    2.8066 H         1 FYM         0.0474
     39 H           6.8300   37.8400    0.7520 H         1 FYM         0.0531
     40 H           7.4518   34.2720   -1.4974 H         1 FYM         0.0531
     41 H           9.7423   30.7349    4.2592 H         1 FYM         0.0493
     42 H           6.1960   36.4922    2.7087 H         1 FYM         0.0525
     43 H           6.8167   32.9128    0.4606 H         1 FYM         0.0525
     44 H          10.1529   36.4062   -4.6014 H         1 FYM         0.0540
     45 H          14.0058   34.7429   -1.9170 H         1 FYM         0.0467
     46 H          14.0746   34.7624   -6.6071 H         1 FYM         0.0973
     47 H          13.1506   33.2748   -6.2073 H         1 FYM         0.0973
     48 H          12.2862   34.1647    2.3857 H         1 FYM         0.0778
     49 H          12.0774   35.9416    2.2250 H         1 FYM         0.0778
     50 H          13.5825   35.1572    1.6366 H         1 FYM         0.0778
     51 H           5.6837   31.9853    3.4310 H         1 FYM         0.0575
     52 H           6.9456   32.1707    2.1662 H         1 FYM         0.0575
     53 H           5.2145   32.4069    1.7491 H         1 FYM         0.0575
     54 H          11.2846   28.1040    3.1893 H         1 FYM         0.0579
     55 H           9.8798   29.0986    3.7032 H         1 FYM         0.0579
     56 H          11.5501   29.6392    4.0834 H         1 FYM         0.0579
     57 H           7.7423   38.0094   -1.3285 H         1 FYM         0.0661
     58 H           6.7279   36.9778   -2.3931 H         1 FYM         0.0661
     59 H           9.7998   35.2816    0.6986 H         1 FYM         0.0988
     60 H          10.1473   34.0299   -0.5421 H         1 FYM         0.0988
     61 H          11.4241   36.8146   -0.1814 H         1 FYM         0.0973
     62 H          13.1717   36.3996   -0.1586 H         1 FYM         0.0973
     63 H           8.6556   35.7405   -2.9788 H         1 FYM         0.1863
     64 H          12.3616   34.0763   -0.0108 H         1 FYM         0.2061
@<TRIPOS>BOND
     1    2    1 ar 
     2    1    5 ar 
     3   13    2 ar 
     4    3    6 ar 
     5   12    3 ar 
     6    4    7 ar 
     7   12    4 ar 
     8   18    5 ar 
     9    6   17 ar 
    10    7   17 ar 
    11   10    8 ar 
    12    8   15 ar 
    13   14    9 ar 
    14    9   16 ar 
    15   14   10 ar 
    16   10   19 1  
    17   13   11 ar 
    18   11   18 ar 
    19   11   20 1  
    20   25   12 1  
    21   26   13 1  
    22   27   14 1  
    23   16   15 ar 
    24   15   33 1  
    25   16   34 1  
    26   17   35 1  
    27   18   36 1  
    28   19   28 am 
    29   19   31 2  
    30   20   30 ar 
    31   20   32 ar 
    32   33   21 1  
    33   34   21 1  
    34   29   22 1  
    35   35   23 1  
    36   36   24 1  
    37   28   25 1  
    38   29   26 1  
    39   27   29 1  
    40    1   37 1  
    41    2   38 1  
    42    3   39 1  
    43    4   40 1  
    44    5   41 1  
    45    6   42 1  
    46    7   43 1  
    47    8   44 1  
    48    9   45 1  
    49   21   46 1  
    50   21   47 1  
    51   22   48 1  
    52   22   49 1  
    53   22   50 1  
    54   23   51 1  
    55   23   52 1  
    56   23   53 1  
    57   24   54 1  
    58   24   55 1  
    59   24   56 1  
    60   25   57 1  
    61   25   58 1  
    62   26   59 1  
    63   26   60 1  
    64   27   61 1  
    65   27   62 1  
    66   28   63 1  
    67   29   64 1  
@<TRIPOS>SUBSTRUCTURE
     1 FYM         1

