### 
### Created by X-TOOL on Mon Sep 10 21:13:18 2018
### 

@<TRIPOS>MOLECULE
4ck3_ligand
   54    55     1     0     0
SMALL
GAST_HUCK


@<TRIPOS>ATOM
      1 C1         68.8980   48.5020   -0.0160 C.3       1 K1T        -0.0627
      2 C2         69.3610   49.2160    1.2340 C.3       1 K1T        -0.0463
      3 C3         69.8320   48.1980    2.2570 C.3       1 K1T        -0.0627
      4 C4         70.5140   50.1650    0.9410 C.3       1 K1T        -0.0443
      5 C5         70.2580   51.1820   -0.1620 C.3       1 K1T        -0.0120
      6 C7         69.0690   52.0450    0.1970 C.3       1 K1T        -0.0196
      7 C8         68.6200   53.0100   -0.8640 C.ar      1 K1T        -0.0473
      8 C9         68.3900   54.3620   -0.6180 C.ar      1 K1T         0.0326
      9 C10        67.9520   55.1240   -1.6770 C.ar      1 K1T         0.1325
     10 C11        67.7350   54.6010   -2.9140 C.ar      1 K1T         0.1200
     11 C12        67.9500   53.2730   -3.1730 C.ar      1 K1T        -0.0451
     12 C13        68.3890   52.4890   -2.1290 C.ar      1 K1T        -0.0762
     13 O14        67.2850   55.5270   -3.8100 O.3       1 K1T        -0.2947
     14 C15        66.9960   56.5940   -2.9050 C.3       1 K1T         0.1864
     15 O16        67.6620   56.4650   -1.6410 O.3       1 K1T        -0.2890
     16 C17        68.5900   55.0490    0.6880 C.2       1 K1T         0.0513
     17 O18        67.6550   55.7890    1.1110 O.co2     1 K1T        -0.5668
     18 O19        69.6980   54.8770    1.2710 O.co2     1 K1T        -0.5668
     19 C20        71.4850   52.0570   -0.3060 C.3       1 K1T         0.0354
     20 N21        71.7130   52.8560    0.8750 N.am      1 K1T        -0.2865
     21 C22        72.8660   52.6760    1.6060 C.2       1 K1T         0.1762
     22 O23        73.6260   51.7260    1.4930 O.2       1 K1T        -0.3971
     23 C24        73.1280   53.7840    2.5800 C.3       1 K1T         0.0420
     24 C25        72.7580   53.3280    3.9680 C.3       1 K1T         0.0042
     25 C26        73.1800   54.4030    4.9420 C.3       1 K1T        -0.0333
     26 N27        72.7300   54.0360    6.3040 N.4       1 K1T         0.2186
     27 H          68.0663   47.8269    0.2341 H         1 K1T         0.0232
     28 H          69.7310   47.9181   -0.4346 H         1 K1T         0.0232
     29 H          68.5598   49.2415   -0.7568 H         1 K1T         0.0232
     30 H          68.5187   49.7898    1.6479 H         1 K1T         0.0296
     31 H          70.1683   48.7195    3.1653 H         1 K1T         0.0232
     32 H          70.6663   47.6163    1.8381 H         1 K1T         0.0232
     33 H          69.0027   47.5207    2.5089 H         1 K1T         0.0232
     34 H          71.3855   49.5604    0.6496 H         1 K1T         0.0273
     35 H          70.7427   50.7166    1.8648 H         1 K1T         0.0273
     36 H          70.0601   50.6589   -1.1092 H         1 K1T         0.0341
     37 H          69.3316   52.6263    1.0932 H         1 K1T         0.0415
     38 H          68.2247   51.3784    0.4267 H         1 K1T         0.0415
     39 H          67.7815   52.8562   -4.1594 H         1 K1T         0.0514
     40 H          68.5593   51.4324   -2.3010 H         1 K1T         0.0443
     41 H          65.9108   56.6157   -2.7267 H         1 K1T         0.0973
     42 H          67.3103   57.5402   -3.3697 H         1 K1T         0.0973
     43 H          71.3464   52.7263   -1.1678 H         1 K1T         0.0524
     44 H          72.3621   51.4156   -0.4772 H         1 K1T         0.0524
     45 H          71.0376   53.5360    1.1603 H         1 K1T         0.1851
     46 H          72.5232   54.6618    2.3087 H         1 K1T         0.0504
     47 H          74.1947   54.0513    2.5537 H         1 K1T         0.0504
     48 H          73.2776   52.3873    4.2026 H         1 K1T         0.0341
     49 H          71.6710   53.1724    4.0322 H         1 K1T         0.0341
     50 H          72.7251   55.3613    4.6509 H         1 K1T         0.0815
     51 H          74.2757   54.4989    4.9309 H         1 K1T         0.0815
     52 H          73.0109   54.7524    6.9551 H         1 K1T         0.1994
     53 H          73.1469   53.1578    6.5704 H         1 K1T         0.1994
     54 H          71.7259   53.9480    6.3138 H         1 K1T         0.1994
@<TRIPOS>BOND
     1    1    2 1  
     2    2    3 1  
     3    2    4 1  
     4    4    5 1  
     5    5    6 1  
     6    5   19 1  
     7    6    7 1  
     8    7    8 ar 
     9    7   12 ar 
    10    8    9 ar 
    11    8   16 1  
    12    9   10 ar 
    13    9   15 1  
    14   10   11 ar 
    15   10   13 1  
    16   11   12 ar 
    17   13   14 1  
    18   14   15 1  
    19   16   17 ar 
    20   16   18 ar 
    21   19   20 1  
    22   20   21 am 
    23   21   22 2  
    24   21   23 1  
    25   23   24 1  
    26   24   25 1  
    27   25   26 1  
    28    1   27 1  
    29    1   28 1  
    30    1   29 1  
    31    2   30 1  
    32    3   31 1  
    33    3   32 1  
    34    3   33 1  
    35    4   34 1  
    36    4   35 1  
    37    5   36 1  
    38    6   37 1  
    39    6   38 1  
    40   11   39 1  
    41   12   40 1  
    42   14   41 1  
    43   14   42 1  
    44   19   43 1  
    45   19   44 1  
    46   20   45 1  
    47   23   46 1  
    48   23   47 1  
    49   24   48 1  
    50   24   49 1  
    51   25   50 1  
    52   25   51 1  
    53   26   52 1  
    54   26   53 1  
    55   26   54 1  
@<TRIPOS>SUBSTRUCTURE
     1 K1T         1

