### 
### Created by X-TOOL on Mon Sep 10 21:13:16 2018
### 

@<TRIPOS>MOLECULE
4cki_ligand
   32    34     1     0     0
SMALL
GAST_HUCK


@<TRIPOS>ATOM
      1 O5'        64.8490    5.9490    8.4430 O.3       1 ADN        -0.3924
      2 C5'        65.1890    7.0840    7.6540 C.3       1 ADN         0.0730
      3 C4'        64.7350    8.3780    8.2920 C.3       1 ADN         0.1135
      4 O4'        63.2960    8.3340    8.4920 O.3       1 ADN        -0.3368
      5 C3'        65.3500    8.6950    9.6580 C.3       1 ADN         0.1146
      6 O3'        65.5410   10.1060    9.7790 O.3       1 ADN        -0.3864
      7 C2'        64.2610    8.2610   10.6280 C.3       1 ADN         0.1385
      8 O2'        64.2960    8.9280   11.8700 O.3       1 ADN        -0.3836
      9 C1'        62.9980    8.6050    9.8450 C.3       1 ADN         0.2010
     10 N9         61.8320    7.8070   10.2220 N.pl3     1 ADN        -0.1919
     11 C8         61.6790    6.4840    9.9940 C.2       1 ADN         0.1123
     12 N7         60.4840    6.0510   10.4720 N.2       1 ADN        -0.2958
     13 C5         59.8620    7.1200   11.0240 C.ar      1 ADN         0.1045
     14 C6         58.5720    7.3680   11.7060 C.ar      1 ADN         0.1298
     15 N6         57.6840    6.3620   11.9050 N.pl3     1 ADN        -0.3152
     16 N1         58.3110    8.6270   12.1220 N.ar      1 ADN        -0.2698
     17 C2         59.1860    9.6350   11.9340 C.ar      1 ADN         0.0533
     18 N3         60.3710    9.4870   11.3210 N.ar      1 ADN        -0.2714
     19 C4         60.7570    8.2730   10.8570 C.ar      1 ADN         0.1613
     20 H          63.9060    5.9110    8.5512 H         1 ADN         0.2095
     21 H          64.7097    6.9873    6.6687 H         1 ADN         0.0584
     22 H          66.2814    7.1146    7.5290 H         1 ADN         0.0584
     23 H          64.9864    9.1973    7.6024 H         1 ADN         0.0647
     24 H          66.2941    8.1551    9.8228 H         1 ADN         0.0648
     25 H          65.9226   10.3012   10.6269 H         1 ADN         0.2100
     26 H          64.3243    7.1786   10.8134 H         1 ADN         0.0676
     27 H          64.1902    9.8616   11.7299 H         1 ADN         0.2101
     28 H          62.7617    9.6704    9.9829 H         1 ADN         0.0996
     29 H          62.4128    5.8522    9.4957 H         1 ADN         0.1349
     30 H          56.7904    6.5505   12.3813 H         1 ADN         0.1820
     31 H          57.9033    5.4096   11.5798 H         1 ADN         0.1820
     32 H          58.9177   10.6201   12.2982 H         1 ADN         0.0996
@<TRIPOS>BOND
     1    1    2 1  
     2    2    3 1  
     3    3    4 1  
     4    3    5 1  
     5    4    9 1  
     6    5    6 1  
     7    5    7 1  
     8    7    8 1  
     9    7    9 1  
    10    9   10 1  
    11   10   11 1  
    12   10   19 1  
    13   11   12 2  
    14   12   13 1  
    15   13   14 ar 
    16   13   19 ar 
    17   14   15 1  
    18   14   16 ar 
    19   16   17 ar 
    20   17   18 ar 
    21   18   19 ar 
    22    1   20 1  
    23    2   21 1  
    24    2   22 1  
    25    3   23 1  
    26    5   24 1  
    27    6   25 1  
    28    7   26 1  
    29    8   27 1  
    30    9   28 1  
    31   11   29 1  
    32   15   30 1  
    33   15   31 1  
    34   17   32 1  
@<TRIPOS>SUBSTRUCTURE
     1 ADN         1

