### 
### Created by X-TOOL on Mon Sep 10 21:13:16 2018
### 

@<TRIPOS>MOLECULE
4ckj_ligand
   32    34     1     0     0
SMALL
GAST_HUCK


@<TRIPOS>ATOM
      1 O5'        29.1900    8.4640    8.6560 O.3       1 ADN        -0.3924
      2 C5'        29.5740    9.6030    7.9000 C.3       1 ADN         0.0730
      3 C4'        29.2420   10.8590    8.6620 C.3       1 ADN         0.1135
      4 O4'        27.8470   11.1960    8.4470 O.3       1 ADN        -0.3368
      5 C3'        29.3770   10.7610   10.1770 C.3       1 ADN         0.1146
      6 O3'        30.6780   11.0970   10.5890 O.3       1 ADN        -0.3864
      7 C2'        28.3930   11.7800   10.6820 C.3       1 ADN         0.1385
      8 O2'        28.9900   13.0690   10.5550 O.3       1 ADN        -0.3836
      9 C1'        27.2820   11.6930    9.6410 C.3       1 ADN         0.2010
     10 N9         26.1830   10.7860   10.0060 N.pl3     1 ADN        -0.1919
     11 C8         26.0550    9.4380    9.7330 C.2       1 ADN         0.1123
     12 N7         24.9390    8.9110   10.1670 N.2       1 ADN        -0.2958
     13 C5         24.2700   10.0000   10.7430 C.ar      1 ADN         0.1045
     14 C6         23.0460   10.1050   11.4130 C.ar      1 ADN         0.1298
     15 N6         22.1900    9.0940   11.5830 N.pl3     1 ADN        -0.3152
     16 N1         22.7330   11.3110   11.9520 N.ar      1 ADN        -0.2698
     17 C2         23.5780   12.3370   11.7930 C.ar      1 ADN         0.0533
     18 N3         24.7490   12.3630   11.1600 N.ar      1 ADN        -0.2714
     19 C4         25.0350   11.1470   10.6470 C.ar      1 ADN         0.1613
     20 H          29.6571    8.4622    9.4832 H         1 ADN         0.2095
     21 H          29.0337    9.6041    6.9418 H         1 ADN         0.0584
     22 H          30.6569    9.5669    7.7103 H         1 ADN         0.0584
     23 H          29.8926   11.6659    8.2937 H         1 ADN         0.0647
     24 H          29.1234    9.7514   10.5326 H         1 ADN         0.0648
     25 H          30.8735   11.9875   10.3220 H         1 ADN         0.2100
     26 H          28.0483   11.5803   11.7073 H         1 ADN         0.0676
     27 H          29.7880   13.0993   11.0696 H         1 ADN         0.2101
     28 H          26.8724   12.7006    9.4766 H         1 ADN         0.0996
     29 H          26.8151    8.8652    9.2038 H         1 ADN         0.1349
     30 H          21.3057    9.2474   12.0884 H         1 ADN         0.1820
     31 H          22.4141    8.1609   11.2087 H         1 ADN         0.1820
     32 H          23.2665   13.2740   12.2404 H         1 ADN         0.0996
@<TRIPOS>BOND
     1    1    2 1  
     2    2    3 1  
     3    3    4 1  
     4    3    5 1  
     5    4    9 1  
     6    5    6 1  
     7    5    7 1  
     8    7    8 1  
     9    7    9 1  
    10    9   10 1  
    11   10   11 1  
    12   10   19 1  
    13   11   12 2  
    14   12   13 1  
    15   13   14 ar 
    16   13   19 ar 
    17   14   15 1  
    18   14   16 ar 
    19   16   17 ar 
    20   17   18 ar 
    21   18   19 ar 
    22    1   20 1  
    23    2   21 1  
    24    2   22 1  
    25    3   23 1  
    26    5   24 1  
    27    6   25 1  
    28    7   26 1  
    29    8   27 1  
    30    9   28 1  
    31   11   29 1  
    32   15   30 1  
    33   15   31 1  
    34   17   32 1  
@<TRIPOS>SUBSTRUCTURE
     1 ADN         1

