### 
### Created by X-TOOL on Mon Sep 10 21:13:19 2018
### 

@<TRIPOS>MOLECULE
4ckr_ligand
   73    77     1     0     0
SMALL
GAST_HUCK


@<TRIPOS>ATOM
      1 C01        -9.1260   38.1710   11.8860 C.3       1 DI1        -0.0245
      2 C02        -7.7910   37.6510   11.5290 C.3       1 DI1        -0.0344
      3 N03        -7.1170   36.8740   12.5650 N.4       1 DI1         0.2425
      4 C04        -6.8430   37.7090   13.7390 C.3       1 DI1         0.0095
      5 C05        -6.0560   36.9310   14.7790 C.3       1 DI1         0.0116
      6 N06        -4.8140   36.4090   14.1970 N.4       1 DI1         0.2605
      7 C07        -5.1170   35.5690   13.0430 C.3       1 DI1         0.0116
      8 C08        -5.8590   36.3580   12.0130 C.3       1 DI1         0.0095
      9 C09        -4.0160   35.6850   15.1850 C.3       1 DI1         0.0190
     10 C10        -2.6170   35.4110   14.6950 C.ar      1 DI1         0.0395
     11 C11        -1.9220   36.3800   13.9870 C.ar      1 DI1        -0.0192
     12 C12        -0.6670   36.1220   13.4770 C.ar      1 DI1        -0.0206
     13 C13        -0.0850   34.8750   13.6480 C.ar      1 DI1         0.0778
     14 C14        -0.7650   33.9060   14.3680 C.ar      1 DI1        -0.0166
     15 C15        -2.0230   34.1650   14.8950 C.ar      1 DI1         0.0603
     16 C16        -2.7120   33.0710   15.6340 C.3       1 DI1         0.3722
     17 F17        -3.0810   33.4250   16.7800 F         1 DI1        -0.2259
     18 F18        -1.9870   32.0250   15.7830 F         1 DI1        -0.2259
     19 F19        -3.7460   32.6690   15.0510 F         1 DI1        -0.2259
     20 C20         1.2870   34.5010   13.2100 C.2       1 DI1         0.2333
     21 N21         2.0950   35.5220   12.8510 N.am      1 DI1        -0.2395
     22 C22         3.4690   35.4400   12.5340 C.ar      1 DI1         0.0509
     23 C23         4.4220   36.1910   13.1980 C.ar      1 DI1        -0.0581
     24 C24         5.7550   36.0540   12.8720 C.ar      1 DI1        -0.0809
     25 C25         6.1750   35.1550   11.9050 C.ar      1 DI1        -0.0272
     26 C26         7.6360   34.9760   11.6120 C.3       1 DI1        -0.0393
     27 C27         5.1960   34.4270   11.2270 C.ar      1 DI1         0.1014
     28 C28         3.8600   34.5760   11.5270 C.ar      1 DI1        -0.0155
     29 O29         5.3360   33.3400   10.4310 O.3       1 DI1        -0.2760
     30 C30         6.2220   32.3040   10.4380 C.ar      1 DI1         0.0933
     31 C31         6.5720   31.7760    9.2140 C.ar      1 DI1        -0.0477
     32 C32         7.1980   30.5480    9.1460 C.ar      1 DI1        -0.0533
     33 C33         7.4940   29.8810   10.3150 C.ar      1 DI1         0.0624
     34 C34         7.1600   30.4180   11.5520 C.ar      1 DI1        -0.0082
     35 C35         7.6330   29.4680   12.6060 C.3       1 DI1         0.0695
     36 C36         8.2480   28.3510   11.8130 C.2       1 DI1         0.2061
     37 N37         8.1410   28.6740   10.4980 N.am      1 DI1        -0.2410
     38 O38         8.7450   27.3300   12.2440 O.2       1 DI1        -0.3902
     39 C39         6.5200   31.6420   11.6190 C.ar      1 DI1        -0.0370
     40 O40         1.5960   33.3270   13.0940 O.2       1 DI1        -0.3756
     41 H          -9.5379   38.7370   11.0375 H         1 DI1         0.0281
     42 H          -9.0400   38.8324   12.7607 H         1 DI1         0.0281
     43 H          -9.7946   37.3311   12.1257 H         1 DI1         0.0281
     44 H          -7.1497   38.5090   11.2790 H         1 DI1         0.0812
     45 H          -7.9043   37.0077   10.6439 H         1 DI1         0.0812
     46 H          -7.7049   36.1027   12.8398 H         1 DI1         0.2037
     47 H          -7.7962   38.0376   14.1789 H         1 DI1         0.0868
     48 H          -6.2599   38.5885   13.4285 H         1 DI1         0.0868
     49 H          -6.6668   36.0913   15.1421 H         1 DI1         0.0868
     50 H          -5.8104   37.5963   15.6199 H         1 DI1         0.0868
     51 H          -4.2675   37.1932   13.8771 H         1 DI1         0.2061
     52 H          -5.7358   34.7184   13.3648 H         1 DI1         0.0868
     53 H          -4.1780   35.1957   12.6083 H         1 DI1         0.0868
     54 H          -5.2347   37.2023   11.6855 H         1 DI1         0.0868
     55 H          -6.0807   35.7103   11.1520 H         1 DI1         0.0868
     56 H          -4.5086   34.7264   15.4049 H         1 DI1         0.1070
     57 H          -3.9582   36.2869   16.1039 H         1 DI1         0.1070
     58 H          -2.3717   37.3541   13.8323 H         1 DI1         0.0648
     59 H          -0.1330   36.8976   12.9400 H         1 DI1         0.0879
     60 H          -0.3095   32.9344   14.5216 H         1 DI1         0.0882
     61 H           1.6775   36.4295   12.8049 H         1 DI1         0.2228
     62 H           4.1216   36.8863   13.9735 H         1 DI1         0.0400
     63 H           6.4909   36.6635   13.3839 H         1 DI1         0.0492
     64 H           8.2241   35.6447   12.2578 H         1 DI1         0.0343
     65 H           7.8311   35.2200   10.5573 H         1 DI1         0.0343
     66 H           7.9238   33.9322   11.8062 H         1 DI1         0.0343
     67 H           3.1147   34.0160   10.9738 H         1 DI1         0.0413
     68 H           6.3556   32.3252    8.3048 H         1 DI1         0.0464
     69 H           7.4534   30.1140    8.1861 H         1 DI1         0.0463
     70 H           6.7920   29.1031   13.2138 H         1 DI1         0.0645
     71 H           8.3786   29.9441   13.2598 H         1 DI1         0.0645
     72 H           8.4888   28.1063    9.7518 H         1 DI1         0.2221
     73 H           6.2563   32.0756   12.5769 H         1 DI1         0.0457
@<TRIPOS>BOND
     1    1    2 1  
     2    2    3 1  
     3    3    4 1  
     4    3    8 1  
     5    4    5 1  
     6    5    6 1  
     7    6    7 1  
     8    6    9 1  
     9    7    8 1  
    10    9   10 1  
    11   10   11 ar 
    12   10   15 ar 
    13   11   12 ar 
    14   12   13 ar 
    15   13   14 ar 
    16   13   20 1  
    17   14   15 ar 
    18   15   16 1  
    19   16   17 1  
    20   16   18 1  
    21   16   19 1  
    22   20   21 am 
    23   20   40 2  
    24   21   22 1  
    25   22   23 ar 
    26   22   28 ar 
    27   23   24 ar 
    28   24   25 ar 
    29   25   26 1  
    30   25   27 ar 
    31   27   28 ar 
    32   27   29 1  
    33   29   30 1  
    34   30   31 ar 
    35   30   39 ar 
    36   31   32 ar 
    37   32   33 ar 
    38   33   34 ar 
    39   33   37 1  
    40   34   35 1  
    41   34   39 ar 
    42   35   36 1  
    43   36   37 am 
    44   36   38 2  
    45    1   41 1  
    46    1   42 1  
    47    1   43 1  
    48    2   44 1  
    49    2   45 1  
    50    3   46 1  
    51    4   47 1  
    52    4   48 1  
    53    5   49 1  
    54    5   50 1  
    55    6   51 1  
    56    7   52 1  
    57    7   53 1  
    58    8   54 1  
    59    8   55 1  
    60    9   56 1  
    61    9   57 1  
    62   11   58 1  
    63   12   59 1  
    64   14   60 1  
    65   21   61 1  
    66   23   62 1  
    67   24   63 1  
    68   26   64 1  
    69   26   65 1  
    70   26   66 1  
    71   28   67 1  
    72   31   68 1  
    73   32   69 1  
    74   35   70 1  
    75   35   71 1  
    76   37   72 1  
    77   39   73 1  
@<TRIPOS>SUBSTRUCTURE
     1 DI1         1

