### 
### Created by X-TOOL on Mon Sep 10 21:13:16 2018
### 

@<TRIPOS>MOLECULE
4cku_ligand
  102   105     1     0     0
SMALL
GAST_HUCK


@<TRIPOS>ATOM
      1 O3         -0.2670  -12.4920  -45.2110 O.2       1 P2F        -0.3847
      2 C15        -0.4520  -13.4140  -45.9530 C.2       1 P2F         0.2025
      3 C25         0.4710  -14.5830  -45.9840 C.ar      1 P2F         0.0397
      4 C24         0.7970  -15.1360  -47.2230 C.ar      1 P2F        -0.0393
      5 C26         0.9710  -15.1180  -44.8070 C.ar      1 P2F        -0.0214
      6 C27         1.8080  -16.2240  -44.9000 C.ar      1 P2F         0.0757
      7 N2          2.3230  -16.7880  -43.7400 N.am      1 P2F        -0.1763
      8 C30         1.7500  -17.9640  -43.1310 C.3       1 P2F         0.0557
      9 C31         2.7760  -19.0500  -43.4130 C.3       1 P2F        -0.0283
     10 C32         4.2280  -18.5610  -43.2740 C.3       1 P2F        -0.0293
     11 C29         4.3840  -17.3530  -42.3660 C.3       1 P2F         0.0902
     12 S1          3.4970  -16.1240  -43.0510 S.o2      1 P2F         0.0624
     13 O4          4.3130  -15.3550  -43.9450 O.2       1 P2F        -0.1497
     14 O5          2.8810  -15.3390  -42.0130 O.2       1 P2F        -0.1497
     15 C22         2.1530  -16.7640  -46.1260 C.ar      1 P2F        -0.0214
     16 C23         1.6560  -16.2190  -47.2820 C.ar      1 P2F         0.0398
     17 C28         2.0190  -16.8260  -48.5910 C.2       1 P2F         0.2045
     18 N3          3.0220  -16.3410  -49.4210 N.am      1 P2F        -0.2725
     19 C33         3.8130  -17.4640  -49.9820 C.3       1 P2F         0.0332
     20 C34         3.4370  -17.7710  -51.4140 C.3       1 P2F        -0.0354
     21 C35         4.1610  -19.0260  -51.8750 C.3       1 P2F        -0.0634
     22 C36         3.9580  -15.4230  -48.7020 C.3       1 P2F         0.0332
     23 C37         3.9340  -14.0390  -49.3290 C.3       1 P2F        -0.0354
     24 C38         4.5620  -13.0280  -48.3790 C.3       1 P2F        -0.0634
     25 O6          1.3740  -17.8040  -48.9100 O.2       1 P2F        -0.3845
     26 N1         -1.5280  -13.4610  -46.7920 N.am      1 P2F        -0.2786
     27 C11        -2.4510  -12.3040  -46.8040 C.3       1 P2F         0.0818
     28 C14        -2.6840  -12.0070  -48.2690 C.3       1 P2F         0.0065
     29 C19        -1.3650  -11.5730  -48.9030 C.ar      1 P2F        -0.0408
     30 C20        -0.6960  -12.3720  -49.8280 C.ar      1 P2F        -0.0603
     31 C21         0.5360  -11.9720  -50.3660 C.ar      1 P2F        -0.0686
     32 C16         1.0420  -10.7390  -49.9830 C.ar      1 P2F        -0.0687
     33 C17         0.3550   -9.9510  -49.0760 C.ar      1 P2F        -0.0686
     34 C18        -0.8590  -10.3830  -48.5110 C.ar      1 P2F        -0.0603
     35 C10        -3.7600  -12.7310  -46.1070 C.3       1 P2F         0.1193
     36 O2         -4.6680  -11.6250  -46.1490 O.3       1 P2F        -0.3840
     37 C9         -3.5210  -13.0400  -44.6190 C.3       1 P2F        -0.0088
     38 N4         -4.7960  -13.5230  -44.0200 N.4       1 P2F         0.1880
     39 C7         -4.7750  -13.5220  -42.5260 C.3       1 P2F        -0.0237
     40 C12        -4.9500  -12.0980  -42.0310 C.3       1 P2F        -0.0420
     41 C13        -5.9550  -14.3830  -42.0630 C.3       1 P2F        -0.0420
     42 C3         -3.5130  -14.1830  -41.9650 C.ar      1 P2F        -0.0119
     43 C2         -2.9500  -15.3440  -42.4950 C.ar      1 P2F        -0.0441
     44 C1         -1.7850  -15.9840  -41.9760 C.ar      1 P2F        -0.0392
     45 C6         -1.2120  -15.4340  -40.8280 C.ar      1 P2F        -0.0037
     46 C5         -1.7980  -14.3000  -40.2740 C.ar      1 P2F         0.1189
     47 C4         -2.9190  -13.6940  -40.8410 C.ar      1 P2F        -0.0067
     48 O1         -1.3220  -13.6790  -39.1470 O.3       1 P2F        -0.3143
     49 C8          0.0800  -13.4700  -38.9340 C.3       1 P2F         0.0600
     50 H           0.3801  -14.7199  -48.1330 H         1 P2F         0.0576
     51 H           0.7174  -14.6877  -43.8449 H         1 P2F         0.0566
     52 H           0.7810  -18.2109  -43.5894 H         1 P2F         0.0554
     53 H           1.6177  -17.8206  -42.0485 H         1 P2F         0.0554
     54 H           2.6264  -19.4144  -44.4400 H         1 P2F         0.0287
     55 H           2.6155  -19.8755  -42.7040 H         1 P2F         0.0287
     56 H           4.6012  -18.2939  -44.2737 H         1 P2F         0.0282
     57 H           4.8331  -19.3832  -42.8643 H         1 P2F         0.0282
     58 H           5.4431  -17.0639  -42.2979 H         1 P2F         0.0524
     59 H           4.0011  -17.5822  -41.3606 H         1 P2F         0.0524
     60 H           2.8173  -17.6193  -46.1729 H         1 P2F         0.0566
     61 H           3.6373  -18.3610  -49.3700 H         1 P2F         0.0522
     62 H           4.8798  -17.1983  -49.9455 H         1 P2F         0.0522
     63 H           3.7243  -16.9260  -52.0569 H         1 P2F         0.0282
     64 H           2.3506  -17.9300  -51.4810 H         1 P2F         0.0282
     65 H           3.8854  -19.2465  -52.9168 H         1 P2F         0.0230
     66 H           3.8739  -19.8717  -51.2329 H         1 P2F         0.0230
     67 H           5.2475  -18.8677  -51.8089 H         1 P2F         0.0230
     68 H           4.9787  -15.8288  -48.7601 H         1 P2F         0.0522
     69 H           3.6527  -15.3480  -47.6479 H         1 P2F         0.0522
     70 H           2.8927  -13.7493  -49.5334 H         1 P2F         0.0282
     71 H           4.5017  -14.0556  -50.2710 H         1 P2F         0.0282
     72 H           4.5408  -12.0295  -48.8399 H         1 P2F         0.0230
     73 H           5.6039  -13.3152  -48.1743 H         1 P2F         0.0230
     74 H           3.9949  -13.0089  -47.4366 H         1 P2F         0.0230
     75 H          -1.6877  -14.2534  -47.3808 H         1 P2F         0.1851
     76 H          -2.0138  -11.4338  -46.2926 H         1 P2F         0.0606
     77 H          -3.4245  -11.1997  -48.3686 H         1 P2F         0.0449
     78 H          -3.0564  -12.9105  -48.7740 H         1 P2F         0.0449
     79 H          -1.1334  -13.3149  -50.1358 H         1 P2F         0.0557
     80 H           1.0757  -12.6068  -51.0594 H         1 P2F         0.0599
     81 H           1.9814  -10.3902  -50.3965 H         1 P2F         0.0559
     82 H           0.7590   -8.9848  -48.7962 H         1 P2F         0.0599
     83 H          -1.3766   -9.7750  -47.7779 H         1 P2F         0.0557
     84 H          -4.1866  -13.6085  -46.6149 H         1 P2F         0.0672
     85 H          -5.4819  -11.8686  -45.7238 H         1 P2F         0.2101
     86 H          -3.1906  -12.1281  -44.1001 H         1 P2F         0.0841
     87 H          -2.7488  -13.8173  -44.5219 H         1 P2F         0.0841
     88 H          -4.9644  -14.4644  -44.3384 H         1 P2F         0.1976
     89 H          -5.5446  -12.9240  -44.3313 H         1 P2F         0.1976
     90 H          -4.9357  -12.0878  -40.9311 H         1 P2F         0.0190
     91 H          -5.9114  -11.7009  -42.3889 H         1 P2F         0.0190
     92 H          -4.1297  -11.4732  -42.4141 H         1 P2F         0.0190
     93 H          -5.9793  -14.4111  -40.9636 H         1 P2F         0.0190
     94 H          -5.8388  -15.4048  -42.4534 H         1 P2F         0.0190
     95 H          -6.8940  -13.9512  -42.4395 H         1 P2F         0.0190
     96 H          -3.4296  -15.7898  -43.3589 H         1 P2F         0.0770
     97 H          -1.3625  -16.8608  -42.4533 H         1 P2F         0.0674
     98 H          -0.3317  -15.8796  -40.3789 H         1 P2F         0.0794
     99 H          -3.3300  -12.8069  -40.3729 H         1 P2F         0.0757
    100 H           0.2324  -12.9579  -37.9725 H         1 P2F         0.0577
    101 H           0.4862  -12.8510  -39.7475 H         1 P2F         0.0577
    102 H           0.5972  -14.4407  -38.9185 H         1 P2F         0.0577
@<TRIPOS>BOND
     1    1    2 2  
     2    2    3 1  
     3    2   26 am 
     4    3    4 ar 
     5    3    5 ar 
     6    4   16 ar 
     7    5    6 ar 
     8    6    7 1  
     9    6   15 ar 
    10    7    8 1  
    11    7   12 am 
    12    8    9 1  
    13    9   10 1  
    14   10   11 1  
    15   11   12 1  
    16   12   13 2  
    17   12   14 2  
    18   15   16 ar 
    19   16   17 1  
    20   17   18 am 
    21   17   25 2  
    22   18   19 1  
    23   18   22 1  
    24   19   20 1  
    25   20   21 1  
    26   22   23 1  
    27   23   24 1  
    28   26   27 1  
    29   27   28 1  
    30   27   35 1  
    31   28   29 1  
    32   29   30 ar 
    33   29   34 ar 
    34   30   31 ar 
    35   31   32 ar 
    36   32   33 ar 
    37   33   34 ar 
    38   35   36 1  
    39   35   37 1  
    40   37   38 1  
    41   38   39 1  
    42   39   40 1  
    43   39   41 1  
    44   39   42 1  
    45   42   43 ar 
    46   42   47 ar 
    47   43   44 ar 
    48   44   45 ar 
    49   45   46 ar 
    50   46   47 ar 
    51   46   48 1  
    52   48   49 1  
    53    4   50 1  
    54    5   51 1  
    55    8   52 1  
    56    8   53 1  
    57    9   54 1  
    58    9   55 1  
    59   10   56 1  
    60   10   57 1  
    61   11   58 1  
    62   11   59 1  
    63   15   60 1  
    64   19   61 1  
    65   19   62 1  
    66   20   63 1  
    67   20   64 1  
    68   21   65 1  
    69   21   66 1  
    70   21   67 1  
    71   22   68 1  
    72   22   69 1  
    73   23   70 1  
    74   23   71 1  
    75   24   72 1  
    76   24   73 1  
    77   24   74 1  
    78   26   75 1  
    79   27   76 1  
    80   28   77 1  
    81   28   78 1  
    82   30   79 1  
    83   31   80 1  
    84   32   81 1  
    85   33   82 1  
    86   34   83 1  
    87   35   84 1  
    88   36   85 1  
    89   37   86 1  
    90   37   87 1  
    91   38   88 1  
    92   38   89 1  
    93   40   90 1  
    94   40   91 1  
    95   40   92 1  
    96   41   93 1  
    97   41   94 1  
    98   41   95 1  
    99   43   96 1  
   100   44   97 1  
   101   45   98 1  
   102   47   99 1  
   103   49  100 1  
   104   49  101 1  
   105   49  102 1  
@<TRIPOS>SUBSTRUCTURE
     1 P2F         1

