### 
### Created by X-TOOL on Mon Sep 10 21:13:23 2018
### 

@<TRIPOS>MOLECULE
4cl6_ligand
   30    32     1     0     0
SMALL
GAST_HUCK


@<TRIPOS>ATOM
      1 CL        -37.9330   59.9620    0.0660 Cl        1 7SB        -0.0771
      2 CAB       -34.7620   52.4480    9.7560 C.2       1 7SB        -0.0584
      3 CAC       -35.7930   51.6480    9.9630 C.2       1 7SB         0.0835
      4 CAD       -35.1650   53.5430    9.1470 C.2       1 7SB        -0.0493
      5 CAE       -37.6100   59.9340    2.8780 C.ar      1 7SB        -0.0545
      6 CAF       -37.3710   57.7690    1.8540 C.ar      1 7SB        -0.0545
      7 CAG       -37.3550   59.3680    4.1240 C.ar      1 7SB        -0.0578
      8 CAH       -37.1180   57.1910    3.1130 C.ar      1 7SB        -0.0578
      9 CAI       -36.8550   57.5070    5.5390 C.3       1 7SB         0.0654
     10 NAJ       -38.5410   54.4140    8.4250 N.2       1 7SB        -0.2828
     11 NAK       -36.7850   55.2800    7.4840 N.pl3     1 7SB        -0.2121
     12 NAL       -38.0350   56.9460    6.2490 N.pl3     1 7SB        -0.2667
     13 NAM       -38.9500   55.3490    7.7310 N.2       1 7SB        -0.2687
     14 OAN       -36.9100   52.3210    9.4230 O.3       1 7SB        -0.2563
     15 CAO       -37.6130   59.1430    1.7210 C.ar      1 7SB         0.0330
     16 CAP       -37.1160   58.0010    4.2610 C.ar      1 7SB        -0.0206
     17 CAQ       -37.2190   54.3590    8.3480 C.2       1 7SB         0.1707
     18 CAR       -36.4700   53.4630    8.9740 C.2       1 7SB         0.1621
     19 CAS       -37.9180   55.9200    7.1190 C.2       1 7SB         0.2247
     20 H1        -33.7343   52.2338   10.0455 H         1 7SB         0.0363
     21 H2        -35.7830   50.6733   10.4486 H         1 7SB         0.1019
     22 H3        -34.5301   54.3724    8.8389 H         1 7SB         0.0403
     23 H4        -37.8082   60.9970    2.8019 H         1 7SB         0.0606
     24 H5        -37.3787   57.1396    0.9715 H         1 7SB         0.0606
     25 H6        -37.3420   60.0013    5.0036 H         1 7SB         0.0558
     26 H7        -36.9259   56.1274    3.1959 H         1 7SB         0.0558
     27 H8        -36.1005   56.7116    5.4498 H         1 7SB         0.0686
     28 H9        -36.4504   58.3297    6.1468 H         1 7SB         0.0686
     29 H10       -35.8201   55.4593    7.1713 H         1 7SB         0.2395
     30 H11       -38.9657   57.3505    6.0726 H         1 7SB         0.1891
@<TRIPOS>BOND
     1   15    1 1  
     2    3    2 2  
     3    4    2 1  
     4   14    3 1  
     5   18    4 2  
     6    7    5 ar 
     7    5   15 ar 
     8    8    6 ar 
     9    6   15 ar 
    10   16    7 ar 
    11   16    8 ar 
    12   12    9 1  
    13    9   16 1  
    14   10   13 1  
    15   17   10 2  
    16   17   11 1  
    17   11   19 1  
    18   19   12 1  
    19   19   13 2  
    20   18   14 1  
    21   17   18 1  
    22    2   20 1  
    23    3   21 1  
    24    4   22 1  
    25    5   23 1  
    26    6   24 1  
    27    7   25 1  
    28    8   26 1  
    29    9   27 1  
    30    9   28 1  
    31   11   29 1  
    32   12   30 1  
@<TRIPOS>SUBSTRUCTURE
     1 7SB         1

