### 
### Created by X-TOOL on Mon Sep 10 21:13:18 2018
### 

@<TRIPOS>MOLECULE
4cl9_ligand
   80    82     1     0     0
SMALL
GAST_HUCK


@<TRIPOS>ATOM
      1 C01        31.9210   47.2450   -2.8230 C.3       1 IES        -0.0346
      2 C05        31.0140   47.8930   -3.8220 C.3       1 IES         0.0826
      3 C07        30.5080   46.9330   -4.8390 C.3       1 IES        -0.0346
      4 O11        29.8390   48.4130   -3.0550 O.3       1 IES        -0.2611
      5 C12        29.3800   49.6360   -3.3940 C.2       1 IES         0.3216
      6 O13        29.9030   50.3460   -4.2220 O.2       1 IES        -0.3774
      7 N14        28.4560   50.0640   -2.5130 N.am      1 IES        -0.2503
      8 C16        27.7040   49.1620   -1.6380 C.3       1 IES         0.0762
      9 C18        26.2590   49.6430   -1.5510 C.3       1 IES         0.0060
     10 C21        25.4170   48.8630   -0.5370 C.3       1 IES         0.0662
     11 C23        24.4320   49.7370    0.2200 C.3       1 IES        -0.0366
     12 N27        26.2310   48.0410    0.3850 N.am      1 IES        -0.2198
     13 C28        25.6980   46.8710    0.8660 C.2       1 IES         0.2020
     14 C29        26.5330   46.0280    1.7800 C.3       1 IES         0.0316
     15 O33        24.5710   46.5250    0.5400 O.2       1 IES        -0.3855
     16 C34        27.5100   48.5610    0.7440 C.ar      1 IES         0.0745
     17 C35        27.9560   48.5290    2.0550 C.ar      1 IES        -0.0469
     18 C37        29.1940   49.0390    2.3720 C.ar      1 IES        -0.0766
     19 C39        30.0240   49.5990    1.4060 C.ar      1 IES        -0.0482
     20 C40        29.5590   49.6470    0.0870 C.ar      1 IES        -0.0659
     21 C42        28.3170   49.1050   -0.2570 C.ar      1 IES         0.0040
     22 C43        31.3470   50.1520    1.7940 C.ar      1 IES        -0.0430
     23 C44        31.8960   51.2610    1.1530 C.ar      1 IES        -0.0699
     24 C46        33.1020   51.8040    1.5640 C.ar      1 IES        -0.0412
     25 C48        33.7710   51.2720    2.6620 C.ar      1 IES         0.0665
     26 N49        35.0390   51.7500    3.0710 N.am      1 IES        -0.2337
     27 C51        35.6150   51.6790    4.2900 C.2       1 IES         0.2041
     28 O52        35.0660   51.2200    5.2870 O.2       1 IES        -0.3846
     29 C53        37.0370   52.1780    4.3440 C.3       1 IES         0.0433
     30 C56        38.0220   51.0090    4.2860 C.3       1 IES        -0.0356
     31 C59        37.9300   50.1570    3.0190 C.3       1 IES        -0.0508
     32 C62        38.5740   48.7640    3.1170 C.3       1 IES        -0.0509
     33 C65        40.0660   48.7800    3.4000 C.3       1 IES        -0.0361
     34 C68        40.7080   47.3910    3.3160 C.3       1 IES         0.0389
     35 C71        40.4100   46.5250    4.5180 C.2       1 IES         0.1988
     36 O72        40.5220   46.9510    5.6650 O.2       1 IES        -0.3970
     37 N73        40.0180   45.2970    4.2370 N.am      1 IES        -0.1642
     38 O75        39.7190   44.4240    5.2790 O.3       1 IES        -0.2717
     39 C77        33.2400   50.1600    3.3010 C.ar      1 IES        -0.0412
     40 C79        32.0460   49.6190    2.8760 C.ar      1 IES        -0.0699
     41 H          32.8063   46.8435   -3.3379 H         1 IES         0.0258
     42 H          31.3866   46.4258   -2.3197 H         1 IES         0.0258
     43 H          32.2368   47.9895   -2.0774 H         1 IES         0.0258
     44 H          31.5434   48.7151   -4.3258 H         1 IES         0.0642
     45 H          29.8493   47.4600   -5.5449 H         1 IES         0.0258
     46 H          29.9435   46.1324   -4.3387 H         1 IES         0.0258
     47 H          31.3569   46.4966   -5.3857 H         1 IES         0.0258
     48 H          28.2744   51.0456   -2.4533 H         1 IES         0.1893
     49 H          27.7203   48.1512   -2.0715 H         1 IES         0.0690
     50 H          25.7961   49.5369   -2.5432 H         1 IES         0.0333
     51 H          26.2617   50.7036   -1.2591 H         1 IES         0.0333
     52 H          24.8127   48.1575   -1.1260 H         1 IES         0.0620
     53 H          23.8619   49.1181    0.9284 H         1 IES         0.0257
     54 H          23.7402   50.2111   -0.4918 H         1 IES         0.0257
     55 H          24.9805   50.5147    0.7716 H         1 IES         0.0257
     56 H          25.9653   45.1327    2.0737 H         1 IES         0.0472
     57 H          26.7934   46.6078    2.6778 H         1 IES         0.0472
     58 H          27.4534   45.7242    1.2599 H         1 IES         0.0472
     59 H          27.3302   48.1025    2.8306 H         1 IES         0.0483
     60 H          29.5315   49.0035    3.4015 H         1 IES         0.0516
     61 H          30.1703   50.1109   -0.6787 H         1 IES         0.0503
     62 H          31.3693   51.7070    0.3171 H         1 IES         0.0570
     63 H          33.5260   52.6459    1.0287 H         1 IES         0.0505
     64 H          35.5810   52.2008    2.3618 H         1 IES         0.2264
     65 H          37.1898   52.7329    5.2814 H         1 IES         0.0508
     66 H          37.2182   52.8458    3.4889 H         1 IES         0.0508
     67 H          37.8315   50.3573    5.1515 H         1 IES         0.0290
     68 H          39.0416   51.4166    4.3513 H         1 IES         0.0290
     69 H          38.4264   50.7045    2.2042 H         1 IES         0.0267
     70 H          36.8656   50.0232    2.7757 H         1 IES         0.0267
     71 H          38.4107   48.2417    2.1628 H         1 IES         0.0267
     72 H          38.0763   48.2113    3.9274 H         1 IES         0.0267
     73 H          40.2262   49.1792    4.4124 H         1 IES         0.0289
     74 H          40.5548   49.4367    2.6653 H         1 IES         0.0289
     75 H          41.7981   47.5138    3.2350 H         1 IES         0.0502
     76 H          40.3283   46.8839    2.4168 H         1 IES         0.0502
     77 H          39.9367   44.9970    3.2865 H         1 IES         0.2216
     78 H          39.0116   44.7852    5.8001 H         1 IES         0.2490
     79 H          33.7667   49.7154    4.1377 H         1 IES         0.0505
     80 H          31.6405   48.7583    3.3955 H         1 IES         0.0570
@<TRIPOS>BOND
     1    1    2 1  
     2    2    3 1  
     3    2    4 1  
     4    4    5 1  
     5    5    6 2  
     6    5    7 am 
     7    7    8 1  
     8    8    9 1  
     9    8   21 1  
    10    9   10 1  
    11   10   11 1  
    12   10   12 1  
    13   12   13 am 
    14   12   16 1  
    15   13   14 1  
    16   13   15 2  
    17   16   17 ar 
    18   16   21 ar 
    19   17   18 ar 
    20   18   19 ar 
    21   19   20 ar 
    22   19   22 1  
    23   20   21 ar 
    24   22   23 ar 
    25   22   40 ar 
    26   23   24 ar 
    27   24   25 ar 
    28   25   26 1  
    29   25   39 ar 
    30   26   27 am 
    31   27   28 2  
    32   27   29 1  
    33   29   30 1  
    34   30   31 1  
    35   31   32 1  
    36   32   33 1  
    37   33   34 1  
    38   34   35 1  
    39   35   36 2  
    40   35   37 am 
    41   37   38 1  
    42   39   40 ar 
    43    1   41 1  
    44    1   42 1  
    45    1   43 1  
    46    2   44 1  
    47    3   45 1  
    48    3   46 1  
    49    3   47 1  
    50    7   48 1  
    51    8   49 1  
    52    9   50 1  
    53    9   51 1  
    54   10   52 1  
    55   11   53 1  
    56   11   54 1  
    57   11   55 1  
    58   14   56 1  
    59   14   57 1  
    60   14   58 1  
    61   17   59 1  
    62   18   60 1  
    63   20   61 1  
    64   23   62 1  
    65   24   63 1  
    66   26   64 1  
    67   29   65 1  
    68   29   66 1  
    69   30   67 1  
    70   30   68 1  
    71   31   69 1  
    72   31   70 1  
    73   32   71 1  
    74   32   72 1  
    75   33   73 1  
    76   33   74 1  
    77   34   75 1  
    78   34   76 1  
    79   37   77 1  
    80   38   78 1  
    81   39   79 1  
    82   40   80 1  
@<TRIPOS>SUBSTRUCTURE
     1 IES         1

