### 
### Created by X-TOOL on Mon Sep 10 21:13:17 2018
### 

@<TRIPOS>MOLECULE
4clb_ligand
   62    64     1     0     0
SMALL
GAST_HUCK


@<TRIPOS>ATOM
      1 C01       -19.7180    1.9460   -5.4650 C.3       1 83T        -0.0435
      2 N05       -19.2090    3.2670   -5.8500 N.4       1 83T         0.2369
      3 C07       -17.8850    3.5300   -5.2700 C.3       1 83T        -0.0006
      4 C10       -17.4000    4.9310   -5.5600 C.ar      1 83T         0.0002
      5 C11       -16.5650    5.1810   -6.6360 C.ar      1 83T        -0.0563
      6 C13       -16.0980    6.4570   -6.8970 C.ar      1 83T        -0.0637
      7 C15       -16.4380    7.5360   -6.0810 C.ar      1 83T        -0.0354
      8 C16       -17.2700    7.2720   -4.9930 C.ar      1 83T        -0.0637
      9 C18       -17.7380    5.9930   -4.7370 C.ar      1 83T        -0.0563
     10 C20       -15.9290    8.9120   -6.3610 C.ar      1 83T        -0.0430
     11 C21       -15.4910    9.2720   -7.6330 C.ar      1 83T        -0.0745
     12 C23       -15.0170   10.5420   -7.9020 C.ar      1 83T        -0.0455
     13 C25       -14.9490   11.4900   -6.8880 C.ar      1 83T         0.0758
     14 N26       -14.4560   12.8120   -7.1080 N.am      1 83T        -0.2190
     15 C27       -15.2310   13.9180   -6.4930 C.3       1 83T         0.0665
     16 C29       -16.2920   14.4480   -7.4420 C.3       1 83T        -0.0365
     17 C33       -15.7870   13.5470   -5.1110 C.3       1 83T         0.0061
     18 C36       -15.3150   12.2120   -4.5380 C.3       1 83T         0.0765
     19 N38       -16.1310   11.8300   -3.3880 N.am      1 83T        -0.2503
     20 C40       -15.6160   11.2940   -2.2680 C.2       1 83T         0.3216
     21 O41       -16.2550   11.0560   -1.2660 O.2       1 83T        -0.3774
     22 O42       -14.3470   10.8750   -2.4770 O.3       1 83T        -0.2611
     23 C43       -13.8010    9.9110   -1.5120 C.3       1 83T         0.0826
     24 C45       -12.3150   10.0860   -1.4990 C.3       1 83T        -0.0346
     25 C49       -14.2320    8.5580   -1.9610 C.3       1 83T        -0.0346
     26 C53       -15.3540   11.1580   -5.5920 C.ar      1 83T         0.0053
     27 C54       -15.8540    9.8750   -5.3460 C.ar      1 83T        -0.0639
     28 C56       -13.3210   13.1220   -7.8180 C.2       1 83T         0.2024
     29 C57       -12.5340   12.0000   -8.4270 C.3       1 83T         0.0317
     30 O61       -12.9750   14.2850   -7.9540 O.2       1 83T        -0.3853
     31 H         -20.7079    1.7882   -5.9180 H         1 83T         0.0777
     32 H         -19.8030    1.8907   -4.3697 H         1 83T         0.0777
     33 H         -19.0248    1.1686   -5.8187 H         1 83T         0.0777
     34 H         -19.8529    3.9720   -5.5269 H         1 83T         0.2025
     35 H         -19.1398    3.3102   -6.8547 H         1 83T         0.2025
     36 H         -17.1655    2.8124   -5.6910 H         1 83T         0.0978
     37 H         -17.9430    3.3944   -4.1799 H         1 83T         0.0978
     38 H         -16.2723    4.3633   -7.2847 H         1 83T         0.0556
     39 H         -15.4544    6.6216   -7.7536 H         1 83T         0.0588
     40 H         -17.5563    8.0839   -4.3343 H         1 83T         0.0588
     41 H         -18.3785    5.8208   -3.8795 H         1 83T         0.0556
     42 H         -15.5226    8.5389   -8.4308 H         1 83T         0.0527
     43 H         -14.6977   10.7991   -8.9055 H         1 83T         0.0487
     44 H         -14.5223   14.7428   -6.3275 H         1 83T         0.0621
     45 H         -16.8453   15.2642   -6.9544 H         1 83T         0.0257
     46 H         -16.9885   13.6376   -7.7028 H         1 83T         0.0257
     47 H         -15.8106   14.8261   -8.3559 H         1 83T         0.0257
     48 H         -16.8838   13.5120   -5.1873 H         1 83T         0.0333
     49 H         -15.4936   14.3388   -4.4061 H         1 83T         0.0333
     50 H         -14.2744   12.3265   -4.2004 H         1 83T         0.0690
     51 H         -17.1194   11.9741   -3.4363 H         1 83T         0.1893
     52 H         -14.1983   10.1047   -0.5047 H         1 83T         0.0642
     53 H         -11.8687    9.3781   -0.7850 H         1 83T         0.0258
     54 H         -12.0696   11.1149   -1.1972 H         1 83T         0.0258
     55 H         -11.9143    9.8935   -2.5052 H         1 83T         0.0258
     56 H         -13.8442    7.7998   -1.2647 H         1 83T         0.0258
     57 H         -13.8393    8.3641   -2.9700 H         1 83T         0.0258
     58 H         -15.3308    8.5106   -1.9798 H         1 83T         0.0258
     59 H         -16.1910    9.6200   -4.3478 H         1 83T         0.0514
     60 H         -11.6619   12.4097   -8.9576 H         1 83T         0.0472
     61 H         -13.1693   11.4493   -9.1363 H         1 83T         0.0472
     62 H         -12.1935   11.3181   -7.6338 H         1 83T         0.0472
@<TRIPOS>BOND
     1    1    2 1  
     2    2    3 1  
     3    3    4 1  
     4    4    5 ar 
     5    4    9 ar 
     6    5    6 ar 
     7    6    7 ar 
     8    7    8 ar 
     9    7   10 1  
    10    8    9 ar 
    11   10   11 ar 
    12   10   27 ar 
    13   11   12 ar 
    14   12   13 ar 
    15   13   14 1  
    16   13   26 ar 
    17   14   15 1  
    18   14   28 am 
    19   15   16 1  
    20   15   17 1  
    21   17   18 1  
    22   18   19 1  
    23   18   26 1  
    24   19   20 am 
    25   20   21 2  
    26   20   22 1  
    27   22   23 1  
    28   23   24 1  
    29   23   25 1  
    30   26   27 ar 
    31   28   29 1  
    32   28   30 2  
    33    1   31 1  
    34    1   32 1  
    35    1   33 1  
    36    2   34 1  
    37    2   35 1  
    38    3   36 1  
    39    3   37 1  
    40    5   38 1  
    41    6   39 1  
    42    8   40 1  
    43    9   41 1  
    44   11   42 1  
    45   12   43 1  
    46   15   44 1  
    47   16   45 1  
    48   16   46 1  
    49   16   47 1  
    50   17   48 1  
    51   17   49 1  
    52   18   50 1  
    53   19   51 1  
    54   23   52 1  
    55   24   53 1  
    56   24   54 1  
    57   24   55 1  
    58   25   56 1  
    59   25   57 1  
    60   25   58 1  
    61   27   59 1  
    62   29   60 1  
    63   29   61 1  
    64   29   62 1  
@<TRIPOS>SUBSTRUCTURE
     1 83T         1

