### 
### Created by X-TOOL on Mon Sep 10 21:13:18 2018
### 

@<TRIPOS>MOLECULE
4cli_ligand
   49    52     1     0     0
SMALL
GAST_HUCK


@<TRIPOS>ATOM
      1 C23        26.3890   48.2230    7.4390 C.1       1 5P8         0.1148
      2 C12        34.4000   46.8120    8.7880 C.ar      1 5P8        -0.0500
      3 C13        34.8690   46.6270   10.1040 C.ar      1 5P8        -0.0292
      4 C6         29.9120   45.4530    8.5200 C.ar      1 5P8        -0.0203
      5 C15        33.6470   44.5010   10.2610 C.ar      1 5P8        -0.0180
      6 C4         27.8220   45.9680    9.4930 C.ar      1 5P8        -0.0103
      7 C19        27.8080   48.4060    7.3250 C.2       1 5P8         0.2054
      8 C5         28.8480   46.3680    8.6050 C.ar      1 5P8        -0.0168
      9 C18        28.8920   47.6360    7.8070 C.2       1 5P8         0.0434
     10 C11        33.5380   45.8350    8.1850 C.ar      1 5P8         0.0502
     11 C10        33.1400   44.6400    8.9220 C.ar      1 5P8         0.0084
     12 C1         29.9930   44.2340    9.2420 C.ar      1 5P8         0.1397
     13 C14        34.4920   45.4820   10.8230 C.ar      1 5P8         0.1312
     14 C22        30.0600   48.3890    7.3350 C.2       1 5P8         0.0649
     15 C2         28.9160   43.9330   10.0990 C.ar      1 5P8         0.1407
     16 C27        33.0940   46.1240    6.7820 C.2       1 5P8         0.2011
     17 C28        31.5520   48.1510    7.4820 C.3       1 5P8         0.0758
     18 C8         32.2090   43.5390    8.3520 C.3       1 5P8         0.1138
     19 C9         32.9180   42.1720    8.2670 C.3       1 5P8        -0.0234
     20 C25        27.6890   50.5690    5.9860 C.3       1 5P8         0.0605
     21 C29        31.8320   47.3710    5.0630 C.3       1 5P8         0.0239
     22 N24        25.2410   48.0740    7.4870 N.1       1 5P8        -0.3433
     23 N3         27.8390   44.7890   10.2230 N.ar      1 5P8        -0.2959
     24 N21        29.7090   49.4810    6.6570 N.2       1 5P8        -0.1979
     25 N20        28.3760   49.4780    6.6600 N.pl3     1 5P8        -0.1869
     26 N26        32.1780   47.1950    6.4830 N.am      1 5P8        -0.2661
     27 N17        28.9340   42.7370   10.8520 N.pl3     1 5P8        -0.3246
     28 O30        33.5850   45.3670    5.9340 O.2       1 5P8        -0.3901
     29 O7         31.0350   43.3250    9.1860 O.3       1 5P8        -0.2995
     30 F16        34.9420   45.3170   12.0630 F         1 5P8        -0.1813
     31 H          34.6909   47.6944    8.2295 H         1 5P8         0.0642
     32 H          35.5183   47.3661   10.5592 H         1 5P8         0.0560
     33 H          30.7314   45.6968    7.8534 H         1 5P8         0.0593
     34 H          33.3761   43.6302   10.8469 H         1 5P8         0.0555
     35 H          26.9679   46.6251    9.6103 H         1 5P8         0.0676
     36 H          31.7302   47.7478    8.4898 H         1 5P8         0.0679
     37 H          32.0587   49.1220    7.3806 H         1 5P8         0.0679
     38 H          31.8895   43.8480    7.3458 H         1 5P8         0.0823
     39 H          32.2231   41.4233    7.8588 H         1 5P8         0.0282
     40 H          33.2406   41.8631    9.2722 H         1 5P8         0.0282
     41 H          33.7959   42.2545    7.6093 H         1 5P8         0.0282
     42 H          28.4301   51.2594    5.5569 H         1 5P8         0.0601
     43 H          27.0605   51.1091    6.7094 H         1 5P8         0.0601
     44 H          27.0571   50.1635    5.1821 H         1 5P8         0.0601
     45 H          32.3555   46.6133    4.4614 H         1 5P8         0.0487
     46 H          32.1362   48.3753    4.7332 H         1 5P8         0.0487
     47 H          30.7458   47.2558    4.9332 H         1 5P8         0.0487
     48 H          28.1493   42.5120   11.4801 H         1 5P8         0.1741
     49 H          29.7319   42.0904   10.7727 H         1 5P8         0.1741
@<TRIPOS>BOND
     1    7    1 1  
     2    1   22 3  
     3    2    3 ar 
     4   10    2 ar 
     5    3   13 ar 
     6    8    4 ar 
     7    4   12 ar 
     8   11    5 ar 
     9    5   13 ar 
    10    8    6 ar 
    11    6   23 ar 
    12    9    7 2  
    13    7   25 1  
    14    9    8 1  
    15   14    9 1  
    16   10   11 ar 
    17   16   10 1  
    18   11   18 1  
    19   12   15 ar 
    20   12   29 1  
    21   13   30 1  
    22   17   14 1  
    23   14   24 2  
    24   23   15 ar 
    25   15   27 1  
    26   26   16 am 
    27   16   28 2  
    28   17   26 1  
    29   18   19 1  
    30   18   29 1  
    31   25   20 1  
    32   26   21 1  
    33   24   25 1  
    34    2   31 1  
    35    3   32 1  
    36    4   33 1  
    37    5   34 1  
    38    6   35 1  
    39   17   36 1  
    40   17   37 1  
    41   18   38 1  
    42   19   39 1  
    43   19   40 1  
    44   19   41 1  
    45   20   42 1  
    46   20   43 1  
    47   20   44 1  
    48   21   45 1  
    49   21   46 1  
    50   21   47 1  
    51   27   48 1  
    52   27   49 1  
@<TRIPOS>SUBSTRUCTURE
     1 5P8         1

