### 
### Created by X-TOOL on Mon Sep 10 21:13:18 2018
### 

@<TRIPOS>MOLECULE
4clj_ligand
   49    52     1     0     0
SMALL
GAST_HUCK


@<TRIPOS>ATOM
      1 C23       -26.4020  -20.0140   59.8440 C.1       1 5P8         0.1148
      2 C12       -34.4190  -18.7630   61.1520 C.ar      1 5P8        -0.0500
      3 C13       -34.9010  -18.5840   62.4650 C.ar      1 5P8        -0.0292
      4 C6        -29.9730  -17.3450   60.9060 C.ar      1 5P8        -0.0203
      5 C15       -33.7080  -16.4310   62.6190 C.ar      1 5P8        -0.0180
      6 C4        -27.8860  -17.8580   61.8940 C.ar      1 5P8        -0.0103
      7 C19       -27.8150  -20.2460   59.7130 C.2       1 5P8         0.2054
      8 C5        -28.9010  -18.2500   61.0000 C.ar      1 5P8        -0.0168
      9 C18       -28.9220  -19.5080   60.1950 C.2       1 5P8         0.0434
     10 C11       -33.5690  -17.7760   60.5510 C.ar      1 5P8         0.0502
     11 C10       -33.1940  -16.5750   61.2820 C.ar      1 5P8         0.0084
     12 C1        -30.0660  -16.1370   61.6330 C.ar      1 5P8         0.1397
     13 C14       -34.5440  -17.4250   63.1840 C.ar      1 5P8         0.1312
     14 C22       -30.0690  -20.2820   59.7170 C.2       1 5P8         0.0649
     15 C2        -28.9910  -15.8410   62.5050 C.ar      1 5P8         0.1407
     16 C27       -33.1100  -18.0620   59.1520 C.2       1 5P8         0.2011
     17 C28       -31.5670  -20.0660   59.8730 C.3       1 5P8         0.0758
     18 C8        -32.2750  -15.4690   60.7050 C.3       1 5P8         0.1138
     19 C9        -33.0120  -14.1260   60.5870 C.3       1 5P8        -0.0234
     20 C25       -27.6310  -22.3840   58.3540 C.3       1 5P8         0.0605
     21 C29       -31.8200  -19.3160   57.4560 C.3       1 5P8         0.0239
     22 N24       -25.2690  -19.8160   59.9700 N.1       1 5P8        -0.3433
     23 N3        -27.9150  -16.6900   62.6300 N.ar      1 5P8        -0.2959
     24 N21       -29.6860  -21.3610   59.0280 N.2       1 5P8        -0.1979
     25 N20       -28.3490  -21.3210   59.0370 N.pl3     1 5P8        -0.1869
     26 N26       -32.1870  -19.1260   58.8710 N.am      1 5P8        -0.2661
     27 N17       -29.0060  -14.6680   63.2680 N.pl3     1 5P8        -0.3246
     28 O30       -33.5930  -17.3130   58.2950 O.2       1 5P8        -0.3901
     29 O7        -31.1180  -15.2320   61.5680 O.3       1 5P8        -0.2995
     30 F16       -35.0020  -17.2600   64.4230 F         1 5P8        -0.1813
     31 H         -34.6922  -19.6512   60.5938 H         1 5P8         0.0642
     32 H         -35.5414  -19.3321   62.9182 H         1 5P8         0.0560
     33 H         -30.7835  -17.5909   60.2295 H         1 5P8         0.0593
     34 H         -33.4524  -15.5521   63.1998 H         1 5P8         0.0555
     35 H         -27.0301  -18.5128   62.0115 H         1 5P8         0.0676
     36 H         -31.7495  -19.6599   60.8789 H         1 5P8         0.0679
     37 H         -32.0637  -21.0427   59.7761 H         1 5P8         0.0679
     38 H         -31.9309  -15.7864   59.7096 H         1 5P8         0.0823
     39 H         -32.3294  -13.3682   60.1750 H         1 5P8         0.0282
     40 H         -33.3556  -13.8076   61.5823 H         1 5P8         0.0282
     41 H         -33.8785  -14.2407   59.9192 H         1 5P8         0.0282
     42 H         -28.3515  -23.0896   57.9146 H         1 5P8         0.0601
     43 H         -26.9902  -22.9148   59.0735 H         1 5P8         0.0601
     44 H         -27.0079  -21.9523   57.5569 H         1 5P8         0.0601
     45 H         -32.3399  -18.5685   56.8388 H         1 5P8         0.0487
     46 H         -32.1135  -20.3259   57.1335 H         1 5P8         0.0487
     47 H         -30.7328  -19.1954   57.3398 H         1 5P8         0.0487
     48 H         -28.2221  -14.4557   63.9015 H         1 5P8         0.1741
     49 H         -29.8009  -14.0170   63.1961 H         1 5P8         0.1741
@<TRIPOS>BOND
     1    7    1 1  
     2    1   22 3  
     3    2    3 ar 
     4   10    2 ar 
     5    3   13 ar 
     6    8    4 ar 
     7    4   12 ar 
     8   11    5 ar 
     9    5   13 ar 
    10    8    6 ar 
    11    6   23 ar 
    12    9    7 2  
    13    7   25 1  
    14    9    8 1  
    15   14    9 1  
    16   10   11 ar 
    17   16   10 1  
    18   11   18 1  
    19   12   15 ar 
    20   12   29 1  
    21   13   30 1  
    22   17   14 1  
    23   14   24 2  
    24   23   15 ar 
    25   15   27 1  
    26   26   16 am 
    27   16   28 2  
    28   17   26 1  
    29   18   19 1  
    30   18   29 1  
    31   25   20 1  
    32   26   21 1  
    33   24   25 1  
    34    2   31 1  
    35    3   32 1  
    36    4   33 1  
    37    5   34 1  
    38    6   35 1  
    39   17   36 1  
    40   17   37 1  
    41   18   38 1  
    42   19   39 1  
    43   19   40 1  
    44   19   41 1  
    45   20   42 1  
    46   20   43 1  
    47   20   44 1  
    48   21   45 1  
    49   21   46 1  
    50   21   47 1  
    51   27   48 1  
    52   27   49 1  
@<TRIPOS>SUBSTRUCTURE
     1 5P8         1

