### 
### Created by X-TOOL on Mon Sep 10 21:13:17 2018
### 

@<TRIPOS>MOLECULE
4clz_ligand
   36    37     1     0     0
SMALL
GAST_HUCK


@<TRIPOS>ATOM
      1 OAA         0.4380  -47.5040   -1.5920 O.co2     1 4DS        -0.4797
      2 SAB        -0.5100  -48.4230   -0.9460 S.o2      1 4DS        -0.1624
      3 OAC        -1.8400  -48.0590   -1.4240 O.co2     1 4DS        -0.4797
      4 OAD        -0.4870  -48.4070    0.5370 O.co2     1 4DS        -0.4797
      5 CAE        -0.2790  -50.0620   -1.5370 C.ar      1 4DS         0.0596
      6 CAF        -0.1430  -51.0670   -0.5440 C.ar      1 4DS        -0.0190
      7 CAG         0.0390  -52.3960   -0.9570 C.ar      1 4DS         0.0524
      8 CAH         0.0590  -52.6720   -2.3370 C.ar      1 4DS        -0.0407
      9 CAI        -0.0820  -51.6610   -3.3130 C.ar      1 4DS        -0.0517
     10 CAJ        -0.2680  -50.3240   -2.9130 C.ar      1 4DS        -0.0035
     11 CAK        -0.4020  -49.2520   -3.8720 C.2       1 4DS        -0.0525
     12 CAL        -0.0910  -49.3770   -5.1960 C.2       1 4DS        -0.0525
     13 CAM        -0.1300  -48.3460   -6.1600 C.ar      1 4DS        -0.0035
     14 CAN        -0.2820  -48.5410   -7.5460 C.ar      1 4DS         0.0596
     15 CAO        -0.2550  -47.4790   -8.4500 C.ar      1 4DS        -0.0190
     16 CAP        -0.0260  -46.1880   -7.9620 C.ar      1 4DS         0.0524
     17 CAQ         0.1970  -46.0450   -6.6070 C.ar      1 4DS        -0.0407
     18 CAR         0.1660  -47.0800   -5.7310 C.ar      1 4DS        -0.0517
     19 NAS         0.0300  -45.1750   -8.8050 N.2       1 4DS        -0.2138
     20 CAT         0.3450  -43.9600   -8.9180 C.1       1 4DS         0.0917
     21 SAU         0.7290  -42.3560   -9.1530 S.2       1 4DS         0.0268
     22 SAV        -0.5690  -50.2250   -8.1320 S.o2      1 4DS        -0.1624
     23 OAW         0.6500  -51.0200   -7.8910 O.co2     1 4DS        -0.4797
     24 OAX        -0.9840  -50.0700   -9.4890 O.co2     1 4DS        -0.4797
     25 OAY        -1.6420  -50.7120   -7.1940 O.co2     1 4DS        -0.4797
     26 NAZ         0.1860  -53.3810   -0.0310 N.2       1 4DS        -0.2138
     27 CBA         0.2220  -53.0540    1.2130 C.1       1 4DS         0.0917
     28 SBB         0.2820  -52.6320    2.8680 S.2       1 4DS         0.0268
     29 H          -0.1789  -50.8139    0.5094 H         1 4DS         0.0647
     30 H           0.1873  -53.6980   -2.6626 H         1 4DS         0.0629
     31 H          -0.0471  -51.9136   -4.3666 H         1 4DS         0.0624
     32 H          -0.7717  -48.2903   -3.5195 H         1 4DS         0.0623
     33 H           0.2156  -50.3636   -5.5403 H         1 4DS         0.0623
     34 H          -0.4084  -47.6506   -9.5093 H         1 4DS         0.0647
     35 H           0.4079  -45.0534   -6.2231 H         1 4DS         0.0629
     36 H           0.3773  -46.9034   -4.6826 H         1 4DS         0.0624
@<TRIPOS>BOND
     1    1    2 ar 
     2    2    3 ar 
     3    2    4 ar 
     4    2    5 1  
     5    5    6 ar 
     6    5   10 ar 
     7    6    7 ar 
     8    7    8 ar 
     9    7   26 1  
    10    8    9 ar 
    11    9   10 ar 
    12   10   11 1  
    13   11   12 2  
    14   12   13 1  
    15   13   14 ar 
    16   13   18 ar 
    17   14   15 ar 
    18   14   22 1  
    19   15   16 ar 
    20   16   17 ar 
    21   16   19 1  
    22   17   18 ar 
    23   19   20 2  
    24   20   21 2  
    25   22   23 ar 
    26   22   24 ar 
    27   22   25 ar 
    28   26   27 2  
    29   27   28 2  
    30    6   29 1  
    31    8   30 1  
    32    9   31 1  
    33   11   32 1  
    34   12   33 1  
    35   15   34 1  
    36   17   35 1  
    37   18   36 1  
@<TRIPOS>SUBSTRUCTURE
     1 4DS         1

