### 
### Created by X-TOOL on Mon Sep 10 21:13:18 2018
### 

@<TRIPOS>MOLECULE
4cmo_ligand
   49    51     1     0     0
SMALL
GAST_HUCK


@<TRIPOS>ATOM
      1 C1         29.9790   44.6360    9.2200 C.ar      1 YPW         0.2168
      2 C2         28.9000   44.3150   10.0640 C.ar      1 YPW         0.1725
      3 N3         27.8540   45.1960   10.1760 N.ar      1 YPW        -0.2725
      4 C4         27.8900   46.3720    9.4670 C.ar      1 YPW         0.0180
      5 C5         28.9580   46.7110    8.6230 C.ar      1 YPW         0.0575
      6 N6         30.0090   45.8120    8.5120 N.ar      1 YPW        -0.2612
      7 N7         28.8740   43.1140   10.7870 N.pl3     1 YPW        -0.3175
      8 O8         31.0160   43.7080    9.1370 O.3       1 YPW        -0.2794
      9 C9         32.1420   43.9830    8.2650 C.3       1 YPW         0.1180
     10 C10        33.1510   44.9930    8.8400 C.ar      1 YPW         0.0090
     11 C11        33.7930   46.0240    8.0340 C.ar      1 YPW         0.0500
     12 C12        34.7260   46.9310    8.6420 C.ar      1 YPW        -0.0500
     13 C13        35.0330   46.8350   10.0220 C.ar      1 YPW        -0.0292
     14 C14        34.4160   45.8360   10.8040 C.ar      1 YPW         0.1312
     15 C15        33.4910   44.9260   10.2400 C.ar      1 YPW        -0.0180
     16 F16        34.7070   45.7470   12.1060 F         1 YPW        -0.1813
     17 C17        29.0690   47.9790    7.8380 C.ar      1 YPW         0.0525
     18 C18        27.9850   48.7810    7.3380 C.ar      1 YPW         0.1758
     19 N19        28.1750   49.9580    6.6190 N.ar      1 YPW        -0.2720
     20 C20        29.4520   50.3830    6.3700 C.ar      1 YPW        -0.0001
     21 C21        30.5840   49.6940    6.8030 C.ar      1 YPW        -0.0449
     22 C22        30.3740   48.4960    7.5340 C.ar      1 YPW        -0.0418
     23 O23        26.6820   48.3560    7.5900 O.3       1 YPW        -0.2991
     24 C24        25.6180   49.1820    7.0900 C.3       1 YPW         0.0641
     25 C25        33.5340   46.1950    6.5570 C.2       1 YPW         0.1970
     26 N26        33.3440   47.5060    6.1210 N.am      1 YPW        -0.2910
     27 O27        33.5180   45.2010    5.8310 O.2       1 YPW        -0.3904
     28 C28        33.0970   47.8410    4.7310 C.3       1 YPW         0.0188
     29 C29        32.8030   42.6170    8.0150 C.3       1 YPW        -0.0228
     30 H          27.0616   47.0644    9.5634 H         1 YPW         0.0773
     31 H          28.0742   42.8987   11.3993 H         1 YPW         0.1767
     32 H          29.6547   42.4470   10.7059 H         1 YPW         0.1767
     33 H          31.7659   44.3887    7.3142 H         1 YPW         0.0830
     34 H          35.2002   47.6969    8.0390 H         1 YPW         0.0642
     35 H          35.7371   47.5244   10.4737 H         1 YPW         0.0560
     36 H          33.0327   44.1699   10.8672 H         1 YPW         0.0555
     37 H          29.5899   51.3001    5.8087 H         1 YPW         0.0789
     38 H          31.5826   50.0581    6.5902 H         1 YPW         0.0616
     39 H          31.2407   47.9443    7.8798 H         1 YPW         0.0712
     40 H          24.6496   48.7338    7.3569 H         1 YPW         0.0586
     41 H          25.6971   49.2592    5.9956 H         1 YPW         0.0586
     42 H          25.6927   50.1853    7.5348 H         1 YPW         0.0586
     43 H          33.3794   48.2451    6.7936 H         1 YPW         0.1837
     44 H          32.9799   48.9302    4.6316 H         1 YPW         0.0483
     45 H          32.1781   47.3410    4.3910 H         1 YPW         0.0483
     46 H          33.9457   47.5059    4.1166 H         1 YPW         0.0483
     47 H          33.6736   42.7462    7.3551 H         1 YPW         0.0283
     48 H          32.0784   41.9408    7.5378 H         1 YPW         0.0283
     49 H          33.1299   42.1870    8.9732 H         1 YPW         0.0283
@<TRIPOS>BOND
     1    1    2 ar 
     2    1    6 ar 
     3    1    8 1  
     4    2    3 ar 
     5    2    7 1  
     6    3    4 ar 
     7    4    5 ar 
     8    5    6 ar 
     9    5   17 1  
    10    8    9 1  
    11    9   10 1  
    12    9   29 1  
    13   10   11 ar 
    14   10   15 ar 
    15   11   12 ar 
    16   11   25 1  
    17   12   13 ar 
    18   13   14 ar 
    19   14   15 ar 
    20   14   16 1  
    21   17   18 ar 
    22   17   22 ar 
    23   18   19 ar 
    24   18   23 1  
    25   19   20 ar 
    26   20   21 ar 
    27   21   22 ar 
    28   23   24 1  
    29   25   26 am 
    30   25   27 2  
    31   26   28 1  
    32    4   30 1  
    33    7   31 1  
    34    7   32 1  
    35    9   33 1  
    36   12   34 1  
    37   13   35 1  
    38   15   36 1  
    39   20   37 1  
    40   21   38 1  
    41   22   39 1  
    42   24   40 1  
    43   24   41 1  
    44   24   42 1  
    45   26   43 1  
    46   28   44 1  
    47   28   45 1  
    48   28   46 1  
    49   29   47 1  
    50   29   48 1  
    51   29   49 1  
@<TRIPOS>SUBSTRUCTURE
     1 YPW         1

