### 
### Created by X-TOOL on Mon Sep 10 21:13:19 2018
### 

@<TRIPOS>MOLECULE
4cmt_ligand
   52    55     1     0     0
SMALL
GAST_HUCK


@<TRIPOS>ATOM
      1 C1         30.0790   44.7040    9.2780 C.ar      1 GWH         0.1411
      2 C2         28.9810   44.3830   10.1220 C.ar      1 GWH         0.1420
      3 N3         27.8970   45.2190   10.2550 N.ar      1 GWH        -0.2942
      4 C4         27.8780   46.3940    9.5550 C.ar      1 GWH        -0.0076
      5 C5         28.9050   46.8280    8.6860 C.ar      1 GWH        -0.0137
      6 C6         30.0040   45.9390    8.5730 C.ar      1 GWH        -0.0174
      7 O7         31.1140   43.7830    9.2250 O.3       1 GWH        -0.3010
      8 N8         28.9800   43.1830   10.8520 N.pl3     1 GWH        -0.3240
      9 C9         32.3050   43.9770    8.4000 C.3       1 GWH         0.1117
     10 C10        33.2620   45.0350    8.9830 C.ar      1 GWH         0.0288
     11 C11        32.9800   42.6020    8.2990 C.3       1 GWH        -0.0251
     12 C12        33.7880   46.1530    8.2350 C.ar      1 GWH         0.1356
     13 C13        34.6690   47.1000    8.8490 C.ar      1 GWH        -0.0298
     14 C14        35.0370   46.9500   10.2090 C.ar      1 GWH        -0.0378
     15 C15        34.5280   45.8600   10.9490 C.ar      1 GWH         0.1198
     16 C16        33.6590   44.9160   10.3630 C.ar      1 GWH        -0.0263
     17 F17        34.8730   45.7160   12.2330 F         1 GWH        -0.1901
     18 N18        33.4740   46.3850    6.8690 N.pl3     1 GWH        -0.0865
     19 N19        32.7880   47.4920    6.4770 N.2       1 GWH        -0.1654
     20 C20        32.7150   47.3170    5.1550 C.2       1 GWH         0.0343
     21 C21        33.3500   46.1310    4.8000 C.2       1 GWH         0.0343
     22 N22        33.8380   45.5290    5.8870 N.2       1 GWH        -0.1654
     23 C23        28.8470   48.1140    7.9510 C.ar      1 GWH        -0.0201
     24 C24        27.5980   48.6860    7.5730 C.ar      1 GWH        -0.0308
     25 C25        27.5410   49.9120    6.8770 C.ar      1 GWH         0.0874
     26 C26        28.7260   50.6180    6.5290 C.ar      1 GWH        -0.0378
     27 C27        29.9840   50.0740    6.8910 C.ar      1 GWH        -0.0605
     28 C28        30.0420   48.8380    7.5940 C.ar      1 GWH        -0.0556
     29 S29        25.9600   50.5610    6.4550 S.o2      1 GWH        -0.0061
     30 C30        26.0710   51.1330    4.7820 C.3       1 GWH         0.0596
     31 O31        25.0060   49.4670    6.4620 O.2       1 GWH        -0.1696
     32 O32        25.7680   51.7080    7.3250 O.2       1 GWH        -0.1696
     33 H          27.0143   47.0379    9.6751 H         1 GWH         0.0693
     34 H          30.8249   46.2121    7.9198 H         1 GWH         0.0613
     35 H          28.1834   42.9525   11.4629 H         1 GWH         0.1743
     36 H          29.7759   42.5336   10.7764 H         1 GWH         0.1743
     37 H          31.9994   44.3083    7.3966 H         1 GWH         0.0799
     38 H          33.8893   42.6841    7.6854 H         1 GWH         0.0279
     39 H          32.2866   41.8865    7.8329 H         1 GWH         0.0279
     40 H          33.2479   42.2501    9.3062 H         1 GWH         0.0279
     41 H          35.0550   47.9329    8.2726 H         1 GWH         0.0567
     42 H          35.7032   47.6654   10.6773 H         1 GWH         0.0533
     43 H          33.2852   44.0908   10.9583 H         1 GWH         0.0528
     44 H          32.2308   48.0004    4.4590 H         1 GWH         0.0723
     45 H          33.4363   45.7495    3.7837 H         1 GWH         0.0723
     46 H          26.6775   48.1714    7.8240 H         1 GWH         0.0633
     47 H          28.6678   51.5591    5.9943 H         1 GWH         0.0628
     48 H          30.8978   50.5972    6.6335 H         1 GWH         0.0616
     49 H          31.0085   48.4306    7.8679 H         1 GWH         0.0615
     50 H          25.1013   51.5496    4.4719 H         1 GWH         0.0468
     51 H          26.3362   50.2924    4.1239 H         1 GWH         0.0468
     52 H          26.8443   51.9121    4.7114 H         1 GWH         0.0468
@<TRIPOS>BOND
     1    1    2 ar 
     2    1    6 ar 
     3    1    7 1  
     4    2    3 ar 
     5    2    8 1  
     6    3    4 ar 
     7    4    5 ar 
     8    5    6 ar 
     9    5   23 1  
    10    7    9 1  
    11    9   10 1  
    12    9   11 1  
    13   10   12 ar 
    14   10   16 ar 
    15   12   13 ar 
    16   12   18 1  
    17   13   14 ar 
    18   14   15 ar 
    19   15   16 ar 
    20   15   17 1  
    21   18   19 1  
    22   18   22 1  
    23   19   20 2  
    24   20   21 1  
    25   21   22 2  
    26   23   24 ar 
    27   23   28 ar 
    28   24   25 ar 
    29   25   26 ar 
    30   25   29 1  
    31   26   27 ar 
    32   27   28 ar 
    33   29   30 1  
    34   29   31 2  
    35   29   32 2  
    36    4   33 1  
    37    6   34 1  
    38    8   35 1  
    39    8   36 1  
    40    9   37 1  
    41   11   38 1  
    42   11   39 1  
    43   11   40 1  
    44   13   41 1  
    45   14   42 1  
    46   16   43 1  
    47   20   44 1  
    48   21   45 1  
    49   24   46 1  
    50   26   47 1  
    51   27   48 1  
    52   28   49 1  
    53   30   50 1  
    54   30   51 1  
    55   30   52 1  
@<TRIPOS>SUBSTRUCTURE
     1 GWH         1

