### 
### Created by X-TOOL on Mon Sep 10 21:13:19 2018
### 

@<TRIPOS>MOLECULE
4cmu_ligand
   51    54     1     0     0
SMALL
GAST_HUCK


@<TRIPOS>ATOM
      1 C12        34.5540   46.9480    8.7900 C.ar      1 IV7        -0.0500
      2 C13        35.0130   46.7660   10.1150 C.ar      1 IV7        -0.0292
      3 C6         30.0020   45.6640    8.4860 C.ar      1 IV7        -0.0290
      4 C15        33.7240   44.6730   10.2920 C.ar      1 IV7        -0.0180
      5 C4         27.9030   46.2360    9.3980 C.ar      1 IV7        -0.0203
      6 C5         28.9530   46.5960    8.5280 C.ar      1 IV7        -0.0384
      7 C23        28.9850   47.8550    7.7170 C.2       1 IV7         0.0034
      8 C11        33.6690   45.9920    8.2010 C.ar      1 IV7         0.0503
      9 C10        33.2310   44.8160    8.9480 C.ar      1 IV7         0.0084
     10 C1         30.0470   44.4610    9.2310 C.ar      1 IV7         0.1337
     11 C14        34.5970   45.6370   10.8510 C.ar      1 IV7         0.1312
     12 C22        30.1620   48.5520    7.2810 C.2       1 IV7         0.1008
     13 C24        27.9010   48.6560    7.1880 C.2       1 IV7         0.0051
     14 C2         28.9380   44.1980   10.0720 C.ar      1 IV7         0.1341
     15 C17        33.2340   46.2650    6.7970 C.2       1 IV7         0.2018
     16 C29        31.6740   48.3070    7.4560 C.3       1 IV7         0.0974
     17 C9         32.2710   43.7400    8.3740 C.3       1 IV7         0.1137
     18 C28        26.4250   48.4770    7.2870 C.3       1 IV7        -0.0289
     19 C18        32.9560   42.3670    8.2760 C.3       1 IV7        -0.0234
     20 C27        30.4300   50.6970    5.9070 C.3       1 IV7         0.0568
     21 C21        31.9770   47.4840    5.0490 C.3       1 IV7         0.0246
     22 N3         27.8790   45.0780   10.1510 N.ar      1 IV7        -0.3043
     23 N25        28.3420   49.7190    6.5100 N.2       1 IV7        -0.2369
     24 N26        29.6780   49.6480    6.5710 N.pl3     1 IV7        -0.2108
     25 N20        32.3130   47.3350    6.4780 N.am      1 IV7        -0.2608
     26 N8         28.9030   43.0240   10.8500 N.pl3     1 IV7        -0.3281
     27 O19        33.7340   45.4970    5.9670 O.2       1 IV7        -0.3900
     28 O7         31.0840   43.5360    9.2050 O.3       1 IV7        -0.3008
     29 F16        35.0330   45.4760   12.1030 F         1 IV7        -0.1813
     30 H          34.8734   47.8131    8.2203 H         1 IV7         0.0642
     31 H          35.6821   47.4915   10.5634 H         1 IV7         0.0560
     32 H          30.8404   45.8818    7.8343 H         1 IV7         0.0544
     33 H          33.4232   43.8163   10.8841 H         1 IV7         0.0555
     34 H          27.0597   46.9120    9.4813 H         1 IV7         0.0614
     35 H          31.8355   47.9163    8.4715 H         1 IV7         0.0748
     36 H          32.1855   49.2750    7.3498 H         1 IV7         0.0748
     37 H          31.9572   44.0642    7.3708 H         1 IV7         0.0823
     38 H          25.9198   49.2954    6.7532 H         1 IV7         0.0379
     39 H          26.1243   48.4887    8.3450 H         1 IV7         0.0379
     40 H          26.1412   47.5148    6.8358 H         1 IV7         0.0379
     41 H          32.2474   41.6321    7.8664 H         1 IV7         0.0282
     42 H          33.2791   42.0461    9.2773 H         1 IV7         0.0282
     43 H          33.8315   42.4404    7.6142 H         1 IV7         0.0282
     44 H          29.7330   51.4090    5.4409 H         1 IV7         0.0592
     45 H          31.0731   50.2533    5.1327 H         1 IV7         0.0592
     46 H          31.0538   51.2238    6.6441 H         1 IV7         0.0592
     47 H          32.5088   46.7180    4.4655 H         1 IV7         0.0487
     48 H          32.2794   48.4836    4.7035 H         1 IV7         0.0487
     49 H          30.8924   47.3614    4.9126 H         1 IV7         0.0487
     50 H          28.0955   42.8349   11.4608 H         1 IV7         0.1719
     51 H          29.6849   42.3548   10.8080 H         1 IV7         0.1719
@<TRIPOS>BOND
     1    1    2 ar 
     2    8    1 ar 
     3    2   11 ar 
     4    6    3 ar 
     5    3   10 ar 
     6    9    4 ar 
     7    4   11 ar 
     8    6    5 ar 
     9    5   22 ar 
    10    7    6 1  
    11   12    7 2  
    12    7   13 1  
    13    8    9 ar 
    14   15    8 1  
    15    9   17 1  
    16   10   14 ar 
    17   10   28 1  
    18   11   29 1  
    19   16   12 1  
    20   12   24 1  
    21   13   18 1  
    22   13   23 2  
    23   22   14 ar 
    24   14   26 1  
    25   25   15 am 
    26   15   27 2  
    27   16   25 1  
    28   17   19 1  
    29   17   28 1  
    30   24   20 1  
    31   25   21 1  
    32   23   24 1  
    33    1   30 1  
    34    2   31 1  
    35    3   32 1  
    36    4   33 1  
    37    5   34 1  
    38   16   35 1  
    39   16   36 1  
    40   17   37 1  
    41   18   38 1  
    42   18   39 1  
    43   18   40 1  
    44   19   41 1  
    45   19   42 1  
    46   19   43 1  
    47   20   44 1  
    48   20   45 1  
    49   20   46 1  
    50   21   47 1  
    51   21   48 1  
    52   21   49 1  
    53   26   50 1  
    54   26   51 1  
@<TRIPOS>SUBSTRUCTURE
     1 IV7         1

