### 
### Created by X-TOOL on Mon Sep 10 21:13:19 2018
### 

@<TRIPOS>MOLECULE
4cnh_ligand
   43    45     1     0     0
SMALL
GAST_HUCK


@<TRIPOS>ATOM
      1 C14        48.2310   -1.9910  -47.9280 C.ar      1 3U9        -0.0411
      2 C11        48.7500   -0.6740  -47.8890 C.ar      1 3U9        -0.0440
      3 C6         43.7320   -1.9260  -46.6380 C.ar      1 3U9        -0.0149
      4 C13        47.5590   -0.2530  -45.7830 C.ar      1 3U9        -0.0325
      5 C4         41.6330   -0.8970  -47.1300 C.ar      1 3U9        -0.0045
      6 C24        43.6680   -3.1190  -49.5040 C.2       1 3U9         0.0292
      7 C5         42.6280   -1.8190  -47.5200 C.ar      1 3U9         0.0168
      8 C10        47.0160   -1.5800  -45.7940 C.ar      1 3U9         0.0174
      9 C15        47.3600   -2.4660  -46.8890 C.ar      1 3U9         0.0912
     10 C1         43.8460   -1.1640  -45.4370 C.ar      1 3U9         0.1409
     11 C12        48.4130    0.1830  -46.8210 C.ar      1 3U9         0.1138
     12 C20        42.5930   -2.6410  -48.7570 C.2       1 3U9         0.1098
     13 C2         42.7870   -0.2710  -45.1460 C.ar      1 3U9         0.1423
     14 C16        46.7880   -2.0210  -43.3010 C.3       1 3U9        -0.0260
     15 C25        40.0840   -3.0280  -49.2840 C.3       1 3U9         0.0657
     16 C18        47.0660   -4.6890  -47.8720 C.3       1 3U9         0.0569
     17 C9         46.0690   -2.0450  -44.6590 C.3       1 3U9         0.1087
     18 N3         41.6970   -0.1420  -45.9800 N.ar      1 3U9        -0.2936
     19 N23        43.2440   -3.8340  -50.5740 N.2       1 3U9        -0.2265
     20 N22        41.9270   -3.8420  -50.5570 N.2       1 3U9        -0.0968
     21 N21        41.5150   -3.1390  -49.4840 N.pl3     1 3U9        -0.1719
     22 N7         42.8380    0.5130  -43.9800 N.pl3     1 3U9        -0.3238
     23 O17        46.7920   -3.7390  -46.8350 O.3       1 3U9        -0.3274
     24 O8         44.8910   -1.1890  -44.5110 O.3       1 3U9        -0.3022
     25 F19        48.9080    1.4280  -46.7890 F         1 3U9        -0.1947
     26 H          48.4935   -2.6472  -48.7499 H         1 3U9         0.0512
     27 H          49.4053   -0.3252  -48.6789 H         1 3U9         0.0519
     28 H          44.5272   -2.6192  -46.8874 H         1 3U9         0.0611
     29 H          47.3122    0.4217  -44.9713 H         1 3U9         0.0514
     30 H          40.7685   -0.7762  -47.7728 H         1 3U9         0.0696
     31 H          44.7141   -2.9408  -49.2593 H         1 3U9         0.0568
     32 H          46.0959   -2.3546  -42.5138 H         1 3U9         0.0278
     33 H          47.1254   -0.9970  -43.0828 H         1 3U9         0.0278
     34 H          47.6572   -2.6943  -43.3344 H         1 3U9         0.0278
     35 H          39.5588   -3.5674  -50.0860 H         1 3U9         0.0608
     36 H          39.7922   -1.9676  -49.3032 H         1 3U9         0.0608
     37 H          39.8147   -3.4648  -48.3110 H         1 3U9         0.0608
     38 H          46.5345   -5.6282  -47.6586 H         1 3U9         0.0573
     39 H          48.1480   -4.8819  -47.9160 H         1 3U9         0.0573
     40 H          46.7257   -4.2864  -48.8374 H         1 3U9         0.0573
     41 H          45.7422   -3.0710  -44.8838 H         1 3U9         0.0785
     42 H          42.0701    1.1644  -43.7634 H         1 3U9         0.1745
     43 H          43.6432    0.4359  -43.3424 H         1 3U9         0.1745
@<TRIPOS>BOND
     1    1    2 ar 
     2    9    1 ar 
     3   11    2 ar 
     4    3    7 ar 
     5   10    3 ar 
     6    8    4 ar 
     7    4   11 ar 
     8    7    5 ar 
     9   18    5 ar 
    10   12    6 2  
    11    6   19 1  
    12    7   12 1  
    13    8    9 ar 
    14   17    8 1  
    15    9   23 1  
    16   10   13 ar 
    17   24   10 1  
    18   11   25 1  
    19   12   21 1  
    20   13   18 ar 
    21   13   22 1  
    22   17   14 1  
    23   21   15 1  
    24   23   16 1  
    25   17   24 1  
    26   19   20 2  
    27   20   21 1  
    28    1   26 1  
    29    2   27 1  
    30    3   28 1  
    31    4   29 1  
    32    5   30 1  
    33    6   31 1  
    34   14   32 1  
    35   14   33 1  
    36   14   34 1  
    37   15   35 1  
    38   15   36 1  
    39   15   37 1  
    40   16   38 1  
    41   16   39 1  
    42   16   40 1  
    43   17   41 1  
    44   22   42 1  
    45   22   43 1  
@<TRIPOS>SUBSTRUCTURE
     1 3U9         1

