### 
### Created by X-TOOL on Mon Sep 10 21:13:17 2018
### 

@<TRIPOS>MOLECULE
4cp7_ligand
  118   120     1     0     0
SMALL
GAST_HUCK


@<TRIPOS>ATOM
      1 CAB         4.5320   25.3650    0.2410 C.3       1 9MW        -0.0636
      2 CAO         5.8710   25.6740    0.8880 C.3       1 9MW        -0.0470
      3 CBD         6.1100   25.2980    2.3050 C.3       1 9MW        -0.0225
      4 CBS         7.4890   24.9450    2.5020 C.ar      1 9MW        -0.0497
      5 CAT         8.5080   25.8300    2.1330 C.ar      1 9MW        -0.0668
      6 CAV         9.8590   25.4720    2.3320 C.ar      1 9MW        -0.0669
      7 CAU         7.8190   23.7050    3.0700 C.ar      1 9MW        -0.0668
      8 CAW         9.1580   23.3560    3.2650 C.ar      1 9MW        -0.0669
      9 CBU        10.1790   24.2450    2.8940 C.ar      1 9MW        -0.0480
     10 CBH        11.5500   23.8880    3.0940 C.3       1 9MW         0.0139
     11 CBR        10.8400   24.4680    5.5340 C.2       1 9MW         0.2318
     12 OAL        10.4780   23.4380    6.1140 O.2       1 9MW        -0.3414
     13 N          10.2580   25.6660    5.7080 N.am      1 9MW        -0.2622
     14 CA          9.0810   25.8350    6.6370 C.3       1 9MW         0.1333
     15 CB          9.5240   26.4260    8.1110 C.3       1 9MW        -0.0061
     16 CG1        10.9580   25.9690    8.4650 C.3       1 9MW        -0.0584
     17 CG2         9.4430   27.9800    8.1210 C.3       1 9MW        -0.0584
     18 C           8.0300   26.8090    5.9210 C.2       1 9MW         0.2021
     19 O           8.3720   27.9300    5.4790 O.2       1 9MW        -0.3945
     20 NBJ         6.8460   26.3480    5.8300 N.am      1 9MW        -0.2850
     21 CBB         5.7930   27.0980    5.2140 C.3       1 9MW         0.0307
     22 CAN         5.0490   27.8110    6.2570 C.3       1 9MW        -0.0356
     23 CAA         4.4980   27.0470    7.4350 C.3       1 9MW        -0.0635
     24 OAM        12.5580   25.7690    4.3300 O.3       1 9MW        -0.3819
     25 CBF        13.1540   23.5640    4.9980 C.3       1 9MW        -0.0103
     26 CBC        13.7710   24.1380    6.2130 C.3       1 9MW        -0.0098
     27 CBE        15.1900   23.6960    6.2780 C.3       1 9MW        -0.0058
     28 NCA        15.2980   22.3420    6.8410 N.4       1 9MW         0.3802
     29 NBM        15.9110   21.6620    6.1250 N.am      1 9MW        -0.2494
     30 CBQ        15.2710   20.6170    5.5200 C.2       1 9MW         0.2392
     31 CCC        12.0610   24.4530    4.5020 C.3       1 9MW         0.1538
     32 OAK        14.0600   20.3380    5.6800 O.2       1 9MW        -0.3898
     33 CBZ        16.1870   19.7750    4.6110 C.3       1 9MW         0.1419
     34 CCB        15.3930   19.0510    3.4750 C.3       1 9MW         0.0027
     35 CAG        14.5460   20.0760    2.6880 C.3       1 9MW        -0.0558
     36 CAH        14.4620   17.9620    4.0900 C.3       1 9MW        -0.0558
     37 CAF        16.4290   18.3600    2.4960 C.3       1 9MW        -0.0558
     38 NBK        16.8500   18.7810    5.4560 N.am      1 9MW        -0.2405
     39 CBO        18.1230   18.7640    5.5940 C.2       1 9MW         0.3216
     40 OAI        18.8250   19.6030    4.9980 O.2       1 9MW        -0.3774
     41 OBN        18.7180   17.7920    6.4210 O.3       1 9MW        -0.2672
     42 CAC        20.0400   18.1640    6.7590 C.3       1 9MW         0.0663
     43 CBG        16.0470   22.4680    8.0050 C.3       1 9MW         0.0278
     44 CBT        16.2280   21.1870    8.7470 C.ar      1 9MW         0.0049
     45 CAX        15.1620   20.5850    9.3490 C.ar      1 9MW        -0.0521
     46 CAZ        15.3330   19.3790   10.0540 C.ar      1 9MW        -0.0569
     47 CAY        17.5120   20.5940    8.8370 C.ar      1 9MW        -0.0521
     48 CBA        17.6790   19.3900    9.5420 C.ar      1 9MW        -0.0569
     49 CBW        16.5780   18.7860   10.1470 C.ar      1 9MW        -0.0152
     50 CBV        16.7290   17.5680   10.8740 C.ar      1 9MW        -0.0034
     51 CAR        17.9020   17.3900   11.6610 C.ar      1 9MW        -0.0289
     52 CAP        18.0980   16.2280   12.3950 C.ar      1 9MW         0.0089
     53 NBI        17.1520   15.2300   12.3720 N.ar      1 9MW        -0.3001
     54 CAQ        15.9800   15.3890   11.6010 C.ar      1 9MW         0.0089
     55 CAS        15.7770   16.5870   10.8450 C.ar      1 9MW        -0.0289
     56 H           4.5398   25.7136   -0.8023 H         1 9MW         0.0231
     57 H           3.7309   25.8782    0.7931 H         1 9MW         0.0231
     58 H           4.3557   24.2795    0.2635 H         1 9MW         0.0231
     59 H           6.0148   26.7623    0.8186 H         1 9MW         0.0283
     60 H           6.6396   25.1637    0.2890 H         1 9MW         0.0283
     61 H           5.4749   24.4382    2.5643 H         1 9MW         0.0413
     62 H           5.8573   26.1495    2.9539 H         1 9MW         0.0413
     63 H           8.2602   26.7899    1.6946 H         1 9MW         0.0540
     64 H          10.6481   26.1576    2.0449 H         1 9MW         0.0540
     65 H           7.0332   23.0161    3.3582 H         1 9MW         0.0540
     66 H           9.4087   22.3969    3.7036 H         1 9MW         0.0540
     67 H          12.1602   24.3173    2.2857 H         1 9MW         0.0428
     68 H          11.6467   22.7923    3.0841 H         1 9MW         0.0428
     69 H          10.6110   26.4600    5.2131 H         1 9MW         0.1889
     70 H           8.6103   24.8529    6.7913 H         1 9MW         0.0804
     71 H           8.8313   26.0325    8.8694 H         1 9MW         0.0343
     72 H          11.2383   26.3709    9.4498 H         1 9MW         0.0235
     73 H          11.6598   26.3409    7.7040 H         1 9MW         0.0235
     74 H          10.9962   24.8700    8.4932 H         1 9MW         0.0235
     75 H           8.4200   28.2954    7.8682 H         1 9MW         0.0235
     76 H          10.1462   28.3886    7.3804 H         1 9MW         0.0235
     77 H           9.7055   28.3544    9.1214 H         1 9MW         0.0235
     78 H           6.6469   25.4397    6.1979 H         1 9MW         0.1851
     79 H           5.1169   26.4152    4.6787 H         1 9MW         0.0520
     80 H           6.2205   27.8217    4.5045 H         1 9MW         0.0520
     81 H           4.1943   28.2971    5.7638 H         1 9MW         0.0282
     82 H           5.7241   28.5791    6.6622 H         1 9MW         0.0282
     83 H           3.9742   27.7406    8.1092 H         1 9MW         0.0230
     84 H           5.3238   26.5627    7.9767 H         1 9MW         0.0230
     85 H           3.7941   26.2807    7.0783 H         1 9MW         0.0230
     86 H          11.8664   26.3258    3.9921 H         1 9MW         0.2082
     87 H          12.7369   22.5743    5.2358 H         1 9MW         0.0283
     88 H          13.9206   23.4606    4.2159 H         1 9MW         0.0283
     89 H          13.2318   23.7854    7.1046 H         1 9MW         0.0316
     90 H          13.7265   25.2362    6.1679 H         1 9MW         0.0316
     91 H          15.7552   24.3948    6.9123 H         1 9MW         0.0822
     92 H          15.6136   23.6976    5.2628 H         1 9MW         0.0822
     93 H          14.3873   21.9496    7.0216 H         1 9MW         0.2322
     94 H          16.8810   21.8369    5.9561 H         1 9MW         0.2384
     95 H          16.9403   20.4316    4.1513 H         1 9MW         0.0806
     96 H          13.9912   19.5586    1.8915 H         1 9MW         0.0237
     97 H          15.2077   20.8329    2.2417 H         1 9MW         0.0237
     98 H          13.8361   20.5661    3.3705 H         1 9MW         0.0237
     99 H          15.0685   17.2344    4.6493 H         1 9MW         0.0237
    100 H          13.9201   17.4452    3.2842 H         1 9MW         0.0237
    101 H          13.7406   18.4380    4.7704 H         1 9MW         0.0237
    102 H          17.0879   19.1253    2.0599 H         1 9MW         0.0237
    103 H          15.8849   17.8431    1.6917 H         1 9MW         0.0237
    104 H          17.0336   17.6318    3.0565 H         1 9MW         0.0237
    105 H          16.2969   18.1002    5.9361 H         1 9MW         0.1899
    106 H          20.4846   17.3919    7.4041 H         1 9MW         0.0575
    107 H          20.0251   19.1249    7.2942 H         1 9MW         0.0575
    108 H          20.6386   18.2645    5.8416 H         1 9MW         0.0575
    109 H          15.5393   23.1839    8.6681 H         1 9MW         0.0995
    110 H          17.0405   22.8569    7.7375 H         1 9MW         0.0995
    111 H          14.1791   21.0375    9.2840 H         1 9MW         0.0567
    112 H          14.4790   18.9101   10.5292 H         1 9MW         0.0624
    113 H          18.3637   21.0683    8.3629 H         1 9MW         0.0567
    114 H          18.6593   18.9331    9.6150 H         1 9MW         0.0624
    115 H          18.6520   18.1722   11.6875 H         1 9MW         0.0703
    116 H          18.9979   16.1072   12.9871 H         1 9MW         0.0817
    117 H          15.2335   14.6032   11.5817 H         1 9MW         0.0817
    118 H          14.8769   16.7155   10.2548 H         1 9MW         0.0703
@<TRIPOS>BOND
     1    2    1 1  
     2    3    2 1  
     3    4    3 1  
     4    5    4 ar 
     5    7    4 ar 
     6    6    5 ar 
     7    9    6 ar 
     8    8    7 ar 
     9    9    8 ar 
    10   10    9 1  
    11   31   10 1  
    12   11   12 2  
    13   11   13 am 
    14   31   11 1  
    15   13   14 1  
    16   14   15 1  
    17   14   18 1  
    18   15   16 1  
    19   15   17 1  
    20   18   19 2  
    21   18   20 am 
    22   20   21 1  
    23   21   22 1  
    24   22   23 1  
    25   31   24 1  
    26   25   26 1  
    27   25   31 1  
    28   26   27 1  
    29   27   28 1  
    30   28   29 1  
    31   28   43 1  
    32   29   30 am 
    33   30   32 2  
    34   30   33 1  
    35   33   34 1  
    36   33   38 1  
    37   34   35 1  
    38   34   36 1  
    39   34   37 1  
    40   38   39 am 
    41   39   40 2  
    42   39   41 1  
    43   41   42 1  
    44   43   44 1  
    45   44   45 ar 
    46   44   47 ar 
    47   45   46 ar 
    48   46   49 ar 
    49   47   48 ar 
    50   48   49 ar 
    51   49   50 1  
    52   50   51 ar 
    53   50   55 ar 
    54   51   52 ar 
    55   52   53 ar 
    56   53   54 ar 
    57   54   55 ar 
    58    1   56 1  
    59    1   57 1  
    60    1   58 1  
    61    2   59 1  
    62    2   60 1  
    63    3   61 1  
    64    3   62 1  
    65    5   63 1  
    66    6   64 1  
    67    7   65 1  
    68    8   66 1  
    69   10   67 1  
    70   10   68 1  
    71   13   69 1  
    72   14   70 1  
    73   15   71 1  
    74   16   72 1  
    75   16   73 1  
    76   16   74 1  
    77   17   75 1  
    78   17   76 1  
    79   17   77 1  
    80   20   78 1  
    81   21   79 1  
    82   21   80 1  
    83   22   81 1  
    84   22   82 1  
    85   23   83 1  
    86   23   84 1  
    87   23   85 1  
    88   24   86 1  
    89   25   87 1  
    90   25   88 1  
    91   26   89 1  
    92   26   90 1  
    93   27   91 1  
    94   27   92 1  
    95   28   93 1  
    96   29   94 1  
    97   33   95 1  
    98   35   96 1  
    99   35   97 1  
   100   35   98 1  
   101   36   99 1  
   102   36  100 1  
   103   36  101 1  
   104   37  102 1  
   105   37  103 1  
   106   37  104 1  
   107   38  105 1  
   108   42  106 1  
   109   42  107 1  
   110   42  108 1  
   111   43  109 1  
   112   43  110 1  
   113   45  111 1  
   114   46  112 1  
   115   47  113 1  
   116   48  114 1  
   117   51  115 1  
   118   52  116 1  
   119   54  117 1  
   120   55  118 1  
@<TRIPOS>SUBSTRUCTURE
     1 9MW         1

