### 
### Created by X-TOOL on Mon Sep 10 21:13:17 2018
### 

@<TRIPOS>MOLECULE
4cpr_ligand
  112   114     1     0     0
SMALL
GAST_HUCK


@<TRIPOS>ATOM
      1 C           7.9440   26.6820    5.8230 C.2       1 378         0.2042
      2 N          10.1670   25.6040    5.7500 N.am      1 378        -0.2622
      3 O           8.3120   27.7760    5.3940 O.2       1 378        -0.3943
      4 CA          8.9170   25.7210    6.5260 C.3       1 378         0.1334
      5 CB          9.1990   26.1870    7.9670 C.3       1 378        -0.0061
      6 CAA         5.0230   27.4490    7.3000 C.2       1 378        -0.1156
      7 CAB         4.5640   25.7740    0.7220 C.2       1 378        -0.1154
      8 CAC        19.4830   17.9600    7.2560 C.3       1 378         0.0663
      9 CAF        14.4320   17.9290    4.0150 C.3       1 378        -0.0558
     10 CAG        16.4290   18.3610    2.5790 C.3       1 378        -0.0558
     11 CAH        14.5880   20.0530    2.7040 C.3       1 378        -0.0558
     12 OAI        18.7590   19.3550    4.9480 O.2       1 378        -0.3774
     13 SAI        16.1600   16.2440   10.8280 S.3       1 378        -0.0410
     14 OAK        13.9400   20.2750    5.5780 O.2       1 378        -0.3898
     15 OAL        10.2900   23.3550    5.9850 O.2       1 378        -0.3414
     16 OAM        12.4700   25.7160    4.4780 O.3       1 378        -0.3819
     17 CAN         5.0550   27.8670    6.0250 C.2       1 378        -0.0674
     18 CAO         5.7600   25.7140    1.3210 C.2       1 378        -0.0792
     19 CAP        17.2890   20.6640    8.7450 C.ar      1 378        -0.0556
     20 CAQ        15.9480   21.0310    8.7650 C.ar      1 378         0.0018
     21 CAR        17.6970   19.4830    9.3560 C.ar      1 378        -0.0612
     22 CAS        15.5420   22.2320    8.1920 C.3       1 378         0.0264
     23 CAT         7.9660   23.1560    2.8450 C.ar      1 378        -0.0645
     24 CAU         8.3190   25.4360    2.1680 C.ar      1 378        -0.0645
     25 CAV         9.3310   23.0030    3.0600 C.ar      1 378        -0.0664
     26 CAW         9.6840   25.2850    2.3920 C.ar      1 378        -0.0664
     27 CAY        17.1670   17.5340   10.5720 C.2       1 378         0.0305
     28 CAZ        18.2800   17.4190   11.3150 C.2       1 378        -0.0706
     29 CBA        16.7720   18.6800   10.0150 C.ar      1 378        -0.0175
     30 CBB         5.6610   26.9530    4.9590 C.3       1 378         0.0589
     31 CBC        13.6630   24.0770    6.2970 C.3       1 378        -0.0098
     32 CBD         6.0820   24.4940    2.1860 C.3       1 378         0.0049
     33 CBE        15.0850   23.5280    6.3850 C.3       1 378        -0.0058
     34 CBF        12.9700   23.4430    5.0920 C.3       1 378        -0.0103
     35 CBG        17.3870   15.3230   11.7880 C.2       1 378        -0.0073
     36 CBH        11.5440   23.9390    3.1190 C.3       1 378         0.0141
     37 NBJ         6.7390   26.1580    5.5630 N.am      1 378        -0.2728
     38 NBK        16.7330   18.6450    5.5020 N.am      1 378        -0.2405
     39 NBM        15.7510   21.4690    6.2810 N.am      1 378        -0.2494
     40 OBN        18.6420   17.4820    6.2000 O.3       1 378        -0.2672
     41 CBO        18.0650   18.5270    5.5380 C.2       1 378         0.3216
     42 CBQ        15.1440   20.5290    5.5290 C.2       1 378         0.2392
     43 CBR        10.6810   24.3970    5.4590 C.2       1 378         0.2318
     44 CBS         7.4600   24.3590    2.3630 C.ar      1 378        -0.0377
     45 CBT        18.4750   16.2060   11.8800 C.2       1 378        -0.0762
     46 CBU        10.1810   24.0890    2.8980 C.ar      1 378        -0.0476
     47 CBV        15.0260   20.2430    9.4450 C.ar      1 378        -0.0556
     48 CBW        15.4320   19.0510   10.0370 C.ar      1 378        -0.0612
     49 CBZ        16.1030   19.6830    4.6720 C.3       1 378         0.1419
     50 NCA        15.0740   22.1690    6.9460 N.4       1 378         0.3799
     51 CCB        15.3830   19.0100    3.4950 C.3       1 378         0.0027
     52 CCC        11.9150   24.4000    4.5380 C.3       1 378         0.1539
     53 CG1         9.0920   27.7150    8.0800 C.3       1 378        -0.0584
     54 CG2        10.5970   25.7340    8.4010 C.3       1 378        -0.0584
     55 H          10.6357   26.4304    5.4380 H         1 378         0.1889
     56 H           8.4473   24.7275    6.5736 H         1 378         0.0804
     57 H           8.4540   25.7311    8.6357 H         1 378         0.0343
     58 H           4.5951   28.0872    8.0717 H         1 378         0.0290
     59 H           5.4250   26.4716    7.5628 H         1 378         0.0290
     60 H           4.3086   26.6311    0.1006 H         1 378         0.0298
     61 H           3.8466   24.9657    0.8562 H         1 378         0.0298
     62 H          19.9386   17.1052    7.7773 H         1 378         0.0575
     63 H          18.8817   18.5451    7.9673 H         1 378         0.0575
     64 H          20.2748   18.5967    6.8345 H         1 378         0.0575
     65 H          13.9202   17.4518    3.1663 H         1 378         0.0237
     66 H          13.6867   18.3864    4.6824 H         1 378         0.0237
     67 H          15.0056   17.1720    4.5699 H         1 378         0.0237
     68 H          17.1157   19.1332    2.2019 H         1 378         0.0237
     69 H          15.9233   17.8748    1.7318 H         1 378         0.0237
     70 H          16.9979   17.6099    3.1466 H         1 378         0.0237
     71 H          13.8382   20.5181    3.3609 H         1 378         0.0237
     72 H          14.0819   19.5644    1.8584 H         1 378         0.0237
     73 H          15.2728   20.8257    2.3246 H         1 378         0.0237
     74 H          11.8198   26.3173    4.1343 H         1 378         0.2082
     75 H           4.6552   28.8429    5.7535 H         1 378         0.0692
     76 H           6.4868   26.5152    1.1953 H         1 378         0.0686
     77 H          18.0170   21.2988    8.2529 H         1 378         0.0559
     78 H          18.7393   19.1874    9.3185 H         1 378         0.0593
     79 H          16.4078   22.9105    8.1896 H         1 378         0.0989
     80 H          14.7479   22.6530    8.8261 H         1 378         0.0989
     81 H           7.2920   22.3332    3.0541 H         1 378         0.0545
     82 H           7.9252   26.3919    1.8419 H         1 378         0.0545
     83 H           9.7305   22.0389    3.3532 H         1 378         0.0541
     84 H          10.3617   26.1018    2.1715 H         1 378         0.0541
     85 H          18.9765   18.2447   11.4527 H         1 378         0.0423
     86 H           6.0683   27.5629    4.1392 H         1 378         0.0700
     87 H           4.8842   26.2810    4.5652 H         1 378         0.0700
     88 H          13.6944   25.1696    6.1740 H         1 378         0.0316
     89 H          13.1117   23.8271    7.2155 H         1 378         0.0316
     90 H           5.6918   23.5907    1.6943 H         1 378         0.0586
     91 H           5.6025   24.6126    3.1689 H         1 378         0.0586
     92 H          15.6873   24.1827    7.0320 H         1 378         0.0822
     93 H          15.5265   23.5011    5.3779 H         1 378         0.0822
     94 H          12.4856   22.5051    5.4012 H         1 378         0.0283
     95 H          13.7159   23.2307    4.3119 H         1 378         0.0283
     96 H          17.3015   14.3180   12.1987 H         1 378         0.0728
     97 H          12.0980   24.5436    2.3859 H         1 378         0.0429
     98 H          11.8152   22.8796    3.0004 H         1 378         0.0429
     99 H           6.5682   25.1983    5.7863 H         1 378         0.1882
    100 H          16.1633   18.0250    6.0415 H         1 378         0.1899
    101 H          16.7459   21.5697    6.2750 H         1 378         0.2384
    102 H          19.4082   15.9336   12.3708 H         1 378         0.0419
    103 H          13.9909   20.5573    9.5139 H         1 378         0.0559
    104 H          14.7015   18.4097   10.5168 H         1 378         0.0593
    105 H          16.8852   20.3447    4.2716 H         1 378         0.0806
    106 H          14.1321   21.8103    6.9568 H         1 378         0.2321
    107 H           9.2973   28.0213    9.1164 H         1 378         0.0235
    108 H           8.0777   28.0334    7.7977 H         1 378         0.0235
    109 H           9.8244   28.1847    7.4070 H         1 378         0.0235
    110 H          10.6697   24.6395    8.3187 H         1 378         0.0235
    111 H          10.7729   26.0357    9.4441 H         1 378         0.0235
    112 H          11.3519   26.2014    7.7518 H         1 378         0.0235
@<TRIPOS>BOND
     1    1    3 2  
     2    4    1 1  
     3    1   37 am 
     4    2    4 1  
     5   43    2 am 
     6    4    5 1  
     7    5   53 1  
     8    5   54 1  
     9   17    6 2  
    10   18    7 2  
    11   40    8 1  
    12   51    9 1  
    13   51   10 1  
    14   51   11 1  
    15   41   12 2  
    16   27   13 1  
    17   13   35 1  
    18   42   14 2  
    19   43   15 2  
    20   52   16 1  
    21   30   17 1  
    22   32   18 1  
    23   20   19 ar 
    24   19   21 ar 
    25   22   20 1  
    26   20   47 ar 
    27   21   29 ar 
    28   50   22 1  
    29   25   23 ar 
    30   23   44 ar 
    31   26   24 ar 
    32   24   44 ar 
    33   46   25 ar 
    34   46   26 ar 
    35   27   28 2  
    36   29   27 1  
    37   28   45 1  
    38   48   29 ar 
    39   37   30 1  
    40   33   31 1  
    41   31   34 1  
    42   44   32 1  
    43   50   33 1  
    44   34   52 1  
    45   45   35 2  
    46   36   46 1  
    47   52   36 1  
    48   38   41 am 
    49   49   38 1  
    50   42   39 am 
    51   39   50 1  
    52   41   40 1  
    53   49   42 1  
    54   52   43 1  
    55   47   48 ar 
    56   49   51 1  
    57    2   55 1  
    58    4   56 1  
    59    5   57 1  
    60    6   58 1  
    61    6   59 1  
    62    7   60 1  
    63    7   61 1  
    64    8   62 1  
    65    8   63 1  
    66    8   64 1  
    67    9   65 1  
    68    9   66 1  
    69    9   67 1  
    70   10   68 1  
    71   10   69 1  
    72   10   70 1  
    73   11   71 1  
    74   11   72 1  
    75   11   73 1  
    76   16   74 1  
    77   17   75 1  
    78   18   76 1  
    79   19   77 1  
    80   21   78 1  
    81   22   79 1  
    82   22   80 1  
    83   23   81 1  
    84   24   82 1  
    85   25   83 1  
    86   26   84 1  
    87   28   85 1  
    88   30   86 1  
    89   30   87 1  
    90   31   88 1  
    91   31   89 1  
    92   32   90 1  
    93   32   91 1  
    94   33   92 1  
    95   33   93 1  
    96   34   94 1  
    97   34   95 1  
    98   35   96 1  
    99   36   97 1  
   100   36   98 1  
   101   37   99 1  
   102   38  100 1  
   103   39  101 1  
   104   45  102 1  
   105   47  103 1  
   106   48  104 1  
   107   49  105 1  
   108   50  106 1  
   109   53  107 1  
   110   53  108 1  
   111   53  109 1  
   112   54  110 1  
   113   54  111 1  
   114   54  112 1  
@<TRIPOS>SUBSTRUCTURE
     1 378         1

