### 
### Created by X-TOOL on Mon Sep 10 21:13:17 2018
### 

@<TRIPOS>MOLECULE
4cps_ligand
  108   111     1     0     0
SMALL
GAST_HUCK


@<TRIPOS>ATOM
      1 CAR         7.8720   23.5280    2.8200 C.ar      1 1T8        -0.0652
      2 CAT         9.1330   23.0550    3.1690 C.ar      1 1T8        -0.0666
      3 CBS        10.2630   23.8370    2.9470 C.ar      1 1T8        -0.0478
      4 CBF        11.5230   23.3880    3.3480 C.3       1 1T8         0.0140
      5 CAU        10.1350   25.0450    2.2790 C.ar      1 1T8        -0.0666
      6 CAS         8.8720   25.5240    1.9470 C.ar      1 1T8        -0.0652
      7 CBQ         7.7380   24.7500    2.1670 C.ar      1 1T8        -0.0420
      8 CBB         6.4790   25.2650    1.8310 C.3       1 1T8        -0.0062
      9 CAM         5.4930   24.8520    2.7320 C.2       1 1T8        -0.0866
     10 CAL         5.1690   25.5980    3.8690 C.2       1 1T8        -0.0745
     11 CAZ         6.0450   26.5420    4.4170 C.3       1 1T8         0.0485
     12 NBH         6.9670   25.8690    5.3620 N.am      1 1T8        -0.2769
     13 C           8.1590   26.4880    5.7470 C.2       1 1T8         0.2037
     14 O           8.3950   27.6030    5.2650 O.2       1 1T8        -0.3944
     15 CA          9.1210   25.7190    6.4490 C.3       1 1T8         0.1334
     16 CB          9.3800   26.2810    7.8670 C.3       1 1T8        -0.0061
     17 CG1        10.6920   25.7250    8.4340 C.3       1 1T8        -0.0584
     18 CG2         9.4320   27.8110    7.8620 C.3       1 1T8        -0.0584
     19 N          10.3750   25.5710    5.6580 N.am      1 1T8        -0.2622
     20 CBP        11.0040   24.3280    5.5260 C.2       1 1T8         0.2318
     21 OAJ        10.5770   23.3710    6.1860 O.2       1 1T8        -0.3414
     22 CCA        12.0320   24.1730    4.5720 C.3       1 1T8         0.1538
     23 OAK        12.4920   25.4640    4.1380 O.3       1 1T8        -0.3819
     24 CBD        13.2300   23.4130    5.1570 C.3       1 1T8        -0.0103
     25 CBA        13.7190   24.0740    6.4510 C.3       1 1T8        -0.0098
     26 CBC        15.1740   23.6720    6.7030 C.3       1 1T8        -0.0058
     27 NBY        15.2830   22.2760    7.1350 N.4       1 1T8         0.3802
     28 NBK        15.8670   21.6560    6.2960 N.am      1 1T8        -0.2494
     29 CBO        15.2300   20.6410    5.6720 C.2       1 1T8         0.2392
     30 OAI        14.0940   20.2550    5.9690 O.2       1 1T8        -0.3898
     31 CBX        16.1730   19.7700    4.8210 C.3       1 1T8         0.1419
     32 CBZ        15.4710   19.0860    3.6490 C.3       1 1T8         0.0027
     33 CAD        14.6080   17.9250    4.1600 C.3       1 1T8        -0.0558
     34 CAE        16.5220   18.5440    2.6870 C.3       1 1T8        -0.0558
     35 CAF        14.5740   20.0780    2.9230 C.3       1 1T8        -0.0558
     36 NBI        16.8270   18.7550    5.6590 N.am      1 1T8        -0.2405
     37 CBM        18.1550   18.7120    5.7440 C.2       1 1T8         0.3216
     38 OAG        18.8340   19.4630    5.0390 O.2       1 1T8        -0.3774
     39 OBL        18.7370   17.7980    6.5700 O.3       1 1T8        -0.2672
     40 CAA        20.0130   18.2430    7.0370 C.3       1 1T8         0.0663
     41 CBE        16.0200   22.2590    8.4060 C.3       1 1T8         0.0278
     42 CBR        16.2210   20.9640    8.8820 C.ar      1 1T8         0.0049
     43 CAW        17.5140   20.4740    9.0000 C.ar      1 1T8        -0.0521
     44 CAY        17.7470   19.2380    9.5920 C.ar      1 1T8        -0.0569
     45 CAV        15.1630   20.2320    9.4030 C.ar      1 1T8        -0.0521
     46 CAX        15.3880   18.9660    9.9370 C.ar      1 1T8        -0.0569
     47 CBU        16.6780   18.4530   10.0090 C.ar      1 1T8        -0.0152
     48 CBT        15.8710   16.4540   11.1020 C.ar      1 1T8        -0.0289
     49 CAQ        16.9200   17.2070   10.5870 C.ar      1 1T8        -0.0034
     50 CAO        18.2190   16.7100   10.6410 C.ar      1 1T8        -0.0289
     51 CAN        18.4800   15.4870   11.2490 C.ar      1 1T8         0.0089
     52 NBG        17.4350   14.7610   11.8280 N.ar      1 1T8        -0.3001
     53 CAP        16.1270   15.2550   11.7590 C.ar      1 1T8         0.0089
     54 H           6.9909   22.9429    3.0574 H         1 1T8         0.0543
     55 H           9.2360   22.0728    3.6159 H         1 1T8         0.0540
     56 H          12.2318   23.5200    2.5173 H         1 1T8         0.0428
     57 H          11.4575   22.3212    3.6081 H         1 1T8         0.0428
     58 H          11.0182   25.6157    2.0157 H         1 1T8         0.0540
     59 H           8.7707   26.5117    1.5119 H         1 1T8         0.0543
     60 H           6.2090   24.9167    0.8231 H         1 1T8         0.0534
     61 H           6.5301   26.3638    1.8378 H         1 1T8         0.0534
     62 H           4.9612   23.9208    2.5423 H         1 1T8         0.0466
     63 H           4.2022   25.4392    4.3444 H         1 1T8         0.0480
     64 H           5.4681   27.3106    4.9521 H         1 1T8         0.0647
     65 H           6.6261   27.0144    3.6113 H         1 1T8         0.0647
     66 H           6.7348   24.9670    5.7261 H         1 1T8         0.1876
     67 H           8.7001   24.7108    6.5764 H         1 1T8         0.0804
     68 H           8.5532   25.9635    8.5193 H         1 1T8         0.0343
     69 H          10.8591   26.1350    9.4410 H         1 1T8         0.0235
     70 H          11.5264   26.0132    7.7777 H         1 1T8         0.0235
     71 H          10.6315   24.6281    8.4901 H         1 1T8         0.0235
     72 H           8.4905   28.2085    7.4551 H         1 1T8         0.0235
     73 H          10.2724   28.1473    7.2370 H         1 1T8         0.0235
     74 H           9.5704   28.1766    8.8902 H         1 1T8         0.0235
     75 H          10.7738   26.3734    5.2140 H         1 1T8         0.1889
     76 H          11.7695   25.9415    3.7474 H         1 1T8         0.2082
     77 H          14.0486   23.4108    4.4223 H         1 1T8         0.0283
     78 H          12.9286   22.3775    5.3733 H         1 1T8         0.0283
     79 H          13.0943   23.7411    7.2930 H         1 1T8         0.0316
     80 H          13.6511   25.1676    6.3539 H         1 1T8         0.0316
     81 H          15.5929   24.3212    7.4860 H         1 1T8         0.0822
     82 H          15.7464   23.8031    5.7729 H         1 1T8         0.0822
     83 H          14.3653   21.8809    7.2680 H         1 1T8         0.2322
     84 H          16.8114   21.8849    6.0600 H         1 1T8         0.2384
     85 H          16.9501   20.4294    4.4072 H         1 1T8         0.0806
     86 H          14.1069   17.4389    3.3100 H         1 1T8         0.0237
     87 H          13.8519   18.3105    4.8598 H         1 1T8         0.0237
     88 H          15.2465   17.1932    4.6765 H         1 1T8         0.0237
     89 H          17.1435   19.3732    2.3178 H         1 1T8         0.0237
     90 H          16.0237   18.0531    1.8381 H         1 1T8         0.0237
     91 H          17.1573   17.8147    3.2109 H         1 1T8         0.0237
     92 H          13.8173   20.4666    3.6204 H         1 1T8         0.0237
     93 H          14.0738   19.5736    2.0831 H         1 1T8         0.0237
     94 H          15.1824   20.9109    2.5408 H         1 1T8         0.0237
     95 H          16.2731   18.0950    6.1666 H         1 1T8         0.1899
     96 H          20.4480   17.4794    7.6985 H         1 1T8         0.0575
     97 H          19.8920   19.1842    7.5933 H         1 1T8         0.0575
     98 H          20.6807   18.4077    6.1785 H         1 1T8         0.0575
     99 H          15.4479   22.8265    9.1547 H         1 1T8         0.0995
    100 H          16.9993   22.7362    8.2539 H         1 1T8         0.0995
    101 H          18.3476   21.0588    8.6282 H         1 1T8         0.0567
    102 H          18.7631   18.8859    9.7286 H         1 1T8         0.0624
    103 H          14.1613   20.6461    9.3941 H         1 1T8         0.0567
    104 H          14.5527   18.3772   10.2986 H         1 1T8         0.0624
    105 H          14.8505   16.8023   10.9912 H         1 1T8         0.0703
    106 H          19.0323   17.2799   10.2064 H         1 1T8         0.0703
    107 H          19.4913   15.0975   11.2740 H         1 1T8         0.0817
    108 H          15.3141   14.7034   12.2173 H         1 1T8         0.0817
@<TRIPOS>BOND
     1    1    2 ar 
     2    1    7 ar 
     3    2    3 ar 
     4    3    4 1  
     5    3    5 ar 
     6    4   22 1  
     7    5    6 ar 
     8    6    7 ar 
     9    7    8 1  
    10    8    9 1  
    11    9   10 2  
    12   10   11 1  
    13   11   12 1  
    14   12   13 am 
    15   13   14 2  
    16   13   15 1  
    17   15   16 1  
    18   15   19 1  
    19   16   17 1  
    20   16   18 1  
    21   19   20 am 
    22   20   21 2  
    23   20   22 1  
    24   22   23 1  
    25   22   24 1  
    26   24   25 1  
    27   25   26 1  
    28   26   27 1  
    29   27   28 1  
    30   27   41 1  
    31   28   29 am 
    32   29   30 2  
    33   29   31 1  
    34   31   32 1  
    35   31   36 1  
    36   32   33 1  
    37   32   34 1  
    38   32   35 1  
    39   36   37 am 
    40   37   38 2  
    41   37   39 1  
    42   39   40 1  
    43   41   42 1  
    44   42   43 ar 
    45   42   45 ar 
    46   43   44 ar 
    47   44   47 ar 
    48   45   46 ar 
    49   46   47 ar 
    50   47   49 1  
    51   49   48 ar 
    52   48   53 ar 
    53   49   50 ar 
    54   50   51 ar 
    55   51   52 ar 
    56   52   53 ar 
    57    1   54 1  
    58    2   55 1  
    59    4   56 1  
    60    4   57 1  
    61    5   58 1  
    62    6   59 1  
    63    8   60 1  
    64    8   61 1  
    65    9   62 1  
    66   10   63 1  
    67   11   64 1  
    68   11   65 1  
    69   12   66 1  
    70   15   67 1  
    71   16   68 1  
    72   17   69 1  
    73   17   70 1  
    74   17   71 1  
    75   18   72 1  
    76   18   73 1  
    77   18   74 1  
    78   19   75 1  
    79   23   76 1  
    80   24   77 1  
    81   24   78 1  
    82   25   79 1  
    83   25   80 1  
    84   26   81 1  
    85   26   82 1  
    86   27   83 1  
    87   28   84 1  
    88   31   85 1  
    89   33   86 1  
    90   33   87 1  
    91   33   88 1  
    92   34   89 1  
    93   34   90 1  
    94   34   91 1  
    95   35   92 1  
    96   35   93 1  
    97   35   94 1  
    98   36   95 1  
    99   40   96 1  
   100   40   97 1  
   101   40   98 1  
   102   41   99 1  
   103   41  100 1  
   104   43  101 1  
   105   44  102 1  
   106   45  103 1  
   107   46  104 1  
   108   48  105 1  
   109   50  106 1  
   110   51  107 1  
   111   53  108 1  
@<TRIPOS>SUBSTRUCTURE
     1 1T8         1

