### 
### Created by X-TOOL on Mon Sep 10 21:13:17 2018
### 

@<TRIPOS>MOLECULE
4cpt_ligand
  108   111     1     0     0
SMALL
GAST_HUCK


@<TRIPOS>ATOM
      1 CAR         7.8350   23.4840    2.7730 C.ar      1 1T8        -0.0652
      2 CAT         9.0990   23.0340    3.1410 C.ar      1 1T8        -0.0666
      3 CBS        10.2220   23.8290    2.9230 C.ar      1 1T8        -0.0478
      4 CBF        11.4750   23.4640    3.4340 C.3       1 1T8         0.0140
      5 CAU        10.0680   25.0370    2.2540 C.ar      1 1T8        -0.0666
      6 CAS         8.8020   25.4970    1.9090 C.ar      1 1T8        -0.0652
      7 CBQ         7.6760   24.7220    2.1540 C.ar      1 1T8        -0.0420
      8 CBB         6.4140   25.2120    1.7890 C.3       1 1T8        -0.0062
      9 CAM         5.4170   24.8740    2.7070 C.2       1 1T8        -0.0866
     10 CAL         5.1920   25.5620    3.9040 C.2       1 1T8        -0.0745
     11 CAZ         6.0780   26.5090    4.4230 C.3       1 1T8         0.0485
     12 NBH         6.9930   25.8500    5.3840 N.am      1 1T8        -0.2769
     13 C           8.2080   26.4520    5.7240 C.2       1 1T8         0.2037
     14 O           8.4740   27.5340    5.1960 O.2       1 1T8        -0.3944
     15 CA          9.1690   25.7330    6.4700 C.3       1 1T8         0.1334
     16 CB          9.5330   26.5320    7.7300 C.3       1 1T8        -0.0061
     17 CG1         8.2790   26.7280    8.5880 C.3       1 1T8        -0.0584
     18 CG2        10.6040   25.7920    8.5380 C.3       1 1T8        -0.0584
     19 N          10.3730   25.5260    5.6250 N.am      1 1T8        -0.2622
     20 CBP        11.0380   24.2960    5.5340 C.2       1 1T8         0.2318
     21 OAJ        10.5840   23.3230    6.1440 O.2       1 1T8        -0.3414
     22 CCA        12.0230   24.1550    4.5400 C.3       1 1T8         0.1538
     23 OAK        12.4380   25.4660    4.1210 O.3       1 1T8        -0.3819
     24 CBD        13.2760   23.4260    5.0700 C.3       1 1T8        -0.0103
     25 CBA        13.6300   23.9230    6.4840 C.3       1 1T8        -0.0098
     26 CBC        15.1290   23.7600    6.7790 C.3       1 1T8        -0.0058
     27 NBY        15.4910   22.3770    7.1440 N.4       1 1T8         0.3801
     28 NBK        15.8930   21.6160    6.2070 N.am      1 1T8        -0.2494
     29 CBO        15.3770   20.5260    5.6070 C.2       1 1T8         0.2392
     30 OAI        14.0710   20.1770    6.0640 O.2       1 1T8        -0.3898
     31 CBX        16.1520   19.7380    4.8150 C.3       1 1T8         0.1419
     32 CBZ        15.4770   18.9870    3.6540 C.3       1 1T8         0.0027
     33 CAD        14.5890   17.8600    4.1950 C.3       1 1T8        -0.0558
     34 CAE        14.6280   19.9550    2.8320 C.3       1 1T8        -0.0558
     35 CAF        16.5510   18.3710    2.7590 C.3       1 1T8        -0.0558
     36 NBI        16.8510   18.7510    5.6530 N.am      1 1T8        -0.2405
     37 CBM        18.1810   18.7530    5.7890 C.2       1 1T8         0.3216
     38 OAG        18.8780   19.5100    5.1070 O.2       1 1T8        -0.3774
     39 OBL        18.7450   17.9010    6.6900 O.3       1 1T8        -0.2672
     40 CAA        20.1590   18.0940    6.7910 C.3       1 1T8         0.0663
     41 CBE        16.1380   22.1990    8.3200 C.3       1 1T8         0.0275
     42 CBR        16.2400   20.9050    8.8360 C.ar      1 1T8         0.0040
     43 CAW        17.4810   20.2900    8.9720 C.ar      1 1T8        -0.0530
     44 CAY        17.6050   19.0590    9.6220 C.ar      1 1T8        -0.0582
     45 CAV        15.1560   20.3580    9.5030 C.ar      1 1T8        -0.0530
     46 CAX        15.2670   19.1190   10.1230 C.ar      1 1T8        -0.0582
     47 CBU        16.4880   18.4660   10.1990 C.ar      1 1T8        -0.0170
     48 CBT        16.5690   17.2360   10.8560 C.ar      1 1T8         0.0053
     49 CAQ        17.6830   16.9280   11.6280 C.ar      1 1T8        -0.0366
     50 CAO        17.7250   15.7470   12.3620 C.ar      1 1T8        -0.0349
     51 CAN        16.6270   14.8970   12.3850 C.ar      1 1T8         0.0098
     52 NBG        15.4650   15.2460   11.6900 N.ar      1 1T8        -0.2976
     53 CAP        15.4470   16.4150   10.9170 C.ar      1 1T8         0.0170
     54 H           6.9664   22.8660    2.9696 H         1 1T8         0.0543
     55 H           9.2107   22.0585    3.6003 H         1 1T8         0.0540
     56 H          12.1951   23.5665    2.6088 H         1 1T8         0.0428
     57 H          11.4011   22.4063    3.7270 H         1 1T8         0.0428
     58 H          10.9419   25.6256    1.9990 H         1 1T8         0.0540
     59 H           8.6929   26.4702    1.4442 H         1 1T8         0.0543
     60 H           6.1448   24.7941    0.8078 H         1 1T8         0.0534
     61 H           6.4695   26.3083    1.7179 H         1 1T8         0.0534
     62 H           4.7764   24.0239    2.4771 H         1 1T8         0.0466
     63 H           4.2799   25.3485    4.4594 H         1 1T8         0.0480
     64 H           5.5113   27.2987    4.9380 H         1 1T8         0.0647
     65 H           6.6631   26.9523    3.6038 H         1 1T8         0.0647
     66 H           6.7407   24.9719    5.7906 H         1 1T8         0.1876
     67 H           8.7553   24.7570    6.7638 H         1 1T8         0.0804
     68 H           9.9248   27.5156    7.4318 H         1 1T8         0.0343
     69 H           8.5383   27.3002    9.4909 H         1 1T8         0.0235
     70 H           7.8767   25.7464    8.8790 H         1 1T8         0.0235
     71 H           7.5217   27.2781    8.0102 H         1 1T8         0.0235
     72 H          11.5016   25.6542    7.9172 H         1 1T8         0.0235
     73 H          10.2171   24.8096    8.8464 H         1 1T8         0.0235
     74 H          10.8623   26.3810    9.4304 H         1 1T8         0.0235
     75 H          10.7248   26.2992    5.0974 H         1 1T8         0.1889
     76 H          13.1043   25.3862    3.4486 H         1 1T8         0.2082
     77 H          14.1219   23.6222    4.3948 H         1 1T8         0.0283
     78 H          13.0781   22.3445    5.1052 H         1 1T8         0.0283
     79 H          13.0555   23.3428    7.2211 H         1 1T8         0.0316
     80 H          13.3632   24.9870    6.5662 H         1 1T8         0.0316
     81 H          15.3980   24.4256    7.6124 H         1 1T8         0.0822
     82 H          15.6973   24.0473    5.8821 H         1 1T8         0.0822
     83 H          14.5846   21.9866    7.3489 H         1 1T8         0.2321
     84 H          16.7823   21.8845    5.8368 H         1 1T8         0.2384
     85 H          16.9041   20.4008    4.3622 H         1 1T8         0.0806
     86 H          14.1135   17.3325    3.3549 H         1 1T8         0.0237
     87 H          13.8123   18.2861    4.8471 H         1 1T8         0.0237
     88 H          15.2041   17.1529    4.7709 H         1 1T8         0.0237
     89 H          15.2654   20.7633    2.4441 H         1 1T8         0.0237
     90 H          13.8399   20.3832    3.4688 H         1 1T8         0.0237
     91 H          14.1675   19.4157    1.9911 H         1 1T8         0.0237
     92 H          17.1638   17.6734    3.3487 H         1 1T8         0.0237
     93 H          17.1911   19.1680    2.3527 H         1 1T8         0.0237
     94 H          16.0714   17.8280    1.9313 H         1 1T8         0.0237
     95 H          16.3152   18.0579    6.1353 H         1 1T8         0.1899
     96 H          20.5737   17.3888    7.5264 H         1 1T8         0.0575
     97 H          20.3662   19.1248    7.1142 H         1 1T8         0.0575
     98 H          20.6243   17.9166    5.8102 H         1 1T8         0.0575
     99 H          15.6167   22.8084    9.0728 H         1 1T8         0.0993
    100 H          17.1624   22.5772    8.1874 H         1 1T8         0.0993
    101 H          18.3637   20.7725    8.5682 H         1 1T8         0.0564
    102 H          18.5698   18.5679    9.6761 H         1 1T8         0.0617
    103 H          14.2172   20.8986    9.5415 H         1 1T8         0.0564
    104 H          14.3862   18.6564   10.5534 H         1 1T8         0.0617
    105 H          18.5236   17.6117   11.6583 H         1 1T8         0.0731
    106 H          18.6188   15.4891   12.9185 H         1 1T8         0.0706
    107 H          16.6706   13.9666   12.9396 H         1 1T8         0.0812
    108 H          14.5538   16.6812   10.3634 H         1 1T8         0.0822
@<TRIPOS>BOND
     1    1    2 ar 
     2    1    7 ar 
     3    2    3 ar 
     4    3    4 1  
     5    3    5 ar 
     6    4   22 1  
     7    5    6 ar 
     8    6    7 ar 
     9    7    8 1  
    10    8    9 1  
    11    9   10 2  
    12   10   11 1  
    13   11   12 1  
    14   12   13 am 
    15   13   14 2  
    16   13   15 1  
    17   15   16 1  
    18   15   19 1  
    19   16   17 1  
    20   16   18 1  
    21   19   20 am 
    22   20   21 2  
    23   20   22 1  
    24   22   23 1  
    25   22   24 1  
    26   24   25 1  
    27   25   26 1  
    28   26   27 1  
    29   27   28 1  
    30   27   41 1  
    31   28   29 am 
    32   29   30 2  
    33   29   31 1  
    34   31   32 1  
    35   31   36 1  
    36   32   33 1  
    37   32   34 1  
    38   32   35 1  
    39   36   37 am 
    40   37   38 2  
    41   37   39 1  
    42   39   40 1  
    43   41   42 1  
    44   42   43 ar 
    45   42   45 ar 
    46   43   44 ar 
    47   44   47 ar 
    48   45   46 ar 
    49   46   47 ar 
    50   47   48 1  
    51   48   49 ar 
    52   48   53 ar 
    53   49   50 ar 
    54   50   51 ar 
    55   51   52 ar 
    56   52   53 ar 
    57    1   54 1  
    58    2   55 1  
    59    4   56 1  
    60    4   57 1  
    61    5   58 1  
    62    6   59 1  
    63    8   60 1  
    64    8   61 1  
    65    9   62 1  
    66   10   63 1  
    67   11   64 1  
    68   11   65 1  
    69   12   66 1  
    70   15   67 1  
    71   16   68 1  
    72   17   69 1  
    73   17   70 1  
    74   17   71 1  
    75   18   72 1  
    76   18   73 1  
    77   18   74 1  
    78   19   75 1  
    79   23   76 1  
    80   24   77 1  
    81   24   78 1  
    82   25   79 1  
    83   25   80 1  
    84   26   81 1  
    85   26   82 1  
    86   27   83 1  
    87   28   84 1  
    88   31   85 1  
    89   33   86 1  
    90   33   87 1  
    91   33   88 1  
    92   34   89 1  
    93   34   90 1  
    94   34   91 1  
    95   35   92 1  
    96   35   93 1  
    97   35   94 1  
    98   36   95 1  
    99   40   96 1  
   100   40   97 1  
   101   40   98 1  
   102   41   99 1  
   103   41  100 1  
   104   43  101 1  
   105   44  102 1  
   106   45  103 1  
   107   46  104 1  
   108   49  105 1  
   109   50  106 1  
   110   51  107 1  
   111   53  108 1  
@<TRIPOS>SUBSTRUCTURE
     1 1T8         1

