### 
### Created by X-TOOL on Mon Sep 10 21:13:20 2018
### 

@<TRIPOS>MOLECULE
4cpu_ligand
  106   109     1     0     0
SMALL
GAST_HUCK


@<TRIPOS>ATOM
      1 CAR         7.9540   23.4930    2.6660 C.ar      1 V78        -0.0652
      2 CAT         9.2200   23.0440    3.0300 C.ar      1 V78        -0.0666
      3 CBS        10.3290   23.8680    2.8680 C.ar      1 V78        -0.0478
      4 CBF        11.5620   23.4970    3.3980 C.3       1 V78         0.0140
      5 CAU        10.1620   25.1500    2.3600 C.ar      1 V78        -0.0666
      6 CAS         8.8980   25.5890    1.9780 C.ar      1 V78        -0.0652
      7 CBQ         7.7800   24.7930    2.2010 C.ar      1 V78        -0.0420
      8 CBB         6.5430   25.2130    1.7130 C.3       1 V78        -0.0062
      9 CAM         5.5030   24.8620    2.5740 C.2       1 V78        -0.0866
     10 CAL         5.2980   25.4770    3.8110 C.2       1 V78        -0.0745
     11 CAZ         6.1670   26.4390    4.3220 C.3       1 V78         0.0485
     12 NBH         7.0930   25.8040    5.2930 N.am      1 V78        -0.2769
     13 C           8.2510   26.4810    5.6930 C.2       1 V78         0.2037
     14 O           8.4600   27.6080    5.2450 O.2       1 V78        -0.3944
     15 CA          9.2340   25.8050    6.4230 C.3       1 V78         0.1334
     16 CB          9.6180   26.6350    7.6530 C.3       1 V78        -0.0061
     17 CG1         8.3540   27.0740    8.3990 C.3       1 V78        -0.0584
     18 CG2        10.5000   25.7940    8.5780 C.3       1 V78        -0.0584
     19 N          10.4190   25.5880    5.5520 N.am      1 V78        -0.2622
     20 CBP        11.0460   24.3400    5.4690 C.2       1 V78         0.2318
     21 OAJ        10.5510   23.3840    6.0670 O.2       1 V78        -0.3414
     22 CCA        12.0630   24.1600    4.5210 C.3       1 V78         0.1537
     23 OAK        12.5650   25.4390    4.1320 O.3       1 V78        -0.3819
     24 CBD        13.2170   23.3460    5.1070 C.3       1 V78        -0.0133
     25 CBA        13.7280   24.0030    6.3910 C.3       1 V78        -0.0298
     26 CBC        15.2370   23.7830    6.4900 C.3       1 V78         0.0565
     27 NBY        15.5230   22.4390    7.0100 N.2       1 V78        -0.2282
     28 NBK        16.0930   21.6240    6.3110 N.am      1 V78        -0.1370
     29 CBO        15.3640   20.6680    5.6920 C.2       1 V78         0.2835
     30 OAI        14.2890   20.2500    6.1190 O.2       1 V78        -0.3556
     31 CBX        16.2330   19.7750    4.7880 C.3       1 V78         0.1545
     32 CBZ        15.4580   19.0860    3.6530 C.3       1 V78         0.0040
     33 CAD        14.5420   17.9930    4.2080 C.3       1 V78        -0.0558
     34 CAE        14.6260   20.1110    2.8760 C.3       1 V78        -0.0558
     35 CAF        16.4750   18.4400    2.7060 C.3       1 V78        -0.0558
     36 NBI        16.8760   18.7510    5.6150 N.am      1 V78        -0.2391
     37 CBM        18.2040   18.7330    5.7530 C.2       1 V78         0.3216
     38 OAG        18.8970   19.5040    5.0860 O.2       1 V78        -0.3774
     39 OBL        18.7800   17.8740    6.6380 O.3       1 V78        -0.2672
     40 CAA        20.1700   18.1720    6.7820 C.3       1 V78         0.0663
     41 CBE        15.6550   22.2780    8.3340 C.2       1 V78         0.0685
     42 CXQ        15.9570   21.0000    8.7880 C.ar      1 V78         0.0278
     43 CXV        17.2790   20.5690    8.8570 C.ar      1 V78        -0.0264
     44 CXW        17.5800   19.3380    9.4340 C.ar      1 V78        -0.0268
     45 CXP        14.9660   20.2820    9.4420 C.ar      1 V78        -0.0264
     46 CXR        15.2630   19.0540   10.0140 C.ar      1 V78        -0.0268
     47 CXA        16.5670   18.5800   10.0140 C.ar      1 V78         0.0215
     48 CXY        16.8180   17.3850   10.5440 C.2       1 V78         0.0315
     49 CXZ        15.8270   16.4740   10.6450 C.2       1 V78        -0.0018
     50 CXT        16.1740   15.3840   11.3410 C.3       1 V78         0.0542
     51 SAI        17.6420   15.6910   12.0350 S.3       1 V78        -0.1154
     52 CXG        17.8360   17.2050   11.3920 C.3       1 V78         0.0467
     53 H           7.1013   22.8284    2.7449 H         1 V78         0.0543
     54 H           9.3423   22.0485    3.4413 H         1 V78         0.0540
     55 H          12.3043   23.6233    2.5962 H         1 V78         0.0428
     56 H          11.4870   22.4323    3.6639 H         1 V78         0.0428
     57 H          11.0170   25.8090    2.2611 H         1 V78         0.0540
     58 H           8.7843   26.5571    1.5038 H         1 V78         0.0543
     59 H           6.3683   24.7443    0.7333 H         1 V78         0.0534
     60 H           6.5575   26.3069    1.5988 H         1 V78         0.0534
     61 H           4.8193   24.0718    2.2673 H         1 V78         0.0466
     62 H           4.4259   25.1940    4.3986 H         1 V78         0.0480
     63 H           5.5872   27.2248    4.8284 H         1 V78         0.0647
     64 H           6.7466   26.8834    3.4995 H         1 V78         0.0647
     65 H           6.8903   24.8961    5.6599 H         1 V78         0.1876
     66 H           8.8420   24.8313    6.7520 H         1 V78         0.0804
     67 H          10.1759   27.5264    7.3303 H         1 V78         0.0343
     68 H           8.6363   27.6689    9.2801 H         1 V78         0.0235
     69 H           7.7913   26.1855    8.7214 H         1 V78         0.0235
     70 H           7.7269   27.6828    7.7312 H         1 V78         0.0235
     71 H          11.4056   25.4819    8.0372 H         1 V78         0.0235
     72 H           9.9434   24.9036    8.9057 H         1 V78         0.0235
     73 H          10.7852   26.3919    9.4562 H         1 V78         0.0235
     74 H          10.7760   26.3511    5.0133 H         1 V78         0.1889
     75 H          13.2551   25.3249    3.4891 H         1 V78         0.2082
     76 H          14.0355   23.2959    4.3738 H         1 V78         0.0282
     77 H          12.8656   22.3288    5.3343 H         1 V78         0.0282
     78 H          13.2305   23.5501    7.2613 H         1 V78         0.0283
     79 H          13.5126   25.0814    6.3655 H         1 V78         0.0283
     80 H          15.6696   24.5339    7.1675 H         1 V78         0.0527
     81 H          15.6855   23.8887    5.4912 H         1 V78         0.0527
     82 H          17.0857   21.6600    6.1955 H         1 V78         0.3003
     83 H          17.0096   20.4071    4.3326 H         1 V78         0.0820
     84 H          13.9986   17.5146    3.3799 H         1 V78         0.0237
     85 H          13.8220   18.4393    4.9097 H         1 V78         0.0237
     86 H          15.1470   17.2393    4.7333 H         1 V78         0.0237
     87 H          15.2876   20.8948    2.4787 H         1 V78         0.0237
     88 H          13.8824   20.5647    3.5477 H         1 V78         0.0237
     89 H          14.1106   19.6096    2.0436 H         1 V78         0.0237
     90 H          17.0750   17.7029    3.2598 H         1 V78         0.0237
     91 H          17.1367   19.2160    2.2938 H         1 V78         0.0237
     92 H          15.9434   17.9373    1.8846 H         1 V78         0.0237
     93 H          16.3180   18.0625    6.0782 H         1 V78         0.1900
     94 H          20.6228   17.4714    7.4990 H         1 V78         0.0575
     95 H          20.2880   19.2015    7.1510 H         1 V78         0.0575
     96 H          20.6693   18.0724    5.8069 H         1 V78         0.0575
     97 H          15.5311   23.1119    9.0234 H         1 V78         0.1006
     98 H          18.0736   21.1914    8.4617 H         1 V78         0.0738
     99 H          18.6001   18.9712    9.4315 H         1 V78         0.0735
    100 H          13.9600   20.6808    9.5058 H         1 V78         0.0738
    101 H          14.4734   18.4623   10.4628 H         1 V78         0.0735
    102 H          14.8412   16.6121   10.2034 H         1 V78         0.1148
    103 H          16.2494   14.5164   10.6690 H         1 V78         0.0710
    104 H          15.4246   15.1804   12.1200 H         1 V78         0.0710
    105 H          17.8075   17.9635   12.1881 H         1 V78         0.0582
    106 H          18.7944   17.2715   10.8563 H         1 V78         0.0582
@<TRIPOS>BOND
     1    1    2 ar 
     2    1    7 ar 
     3    2    3 ar 
     4    3    4 1  
     5    3    5 ar 
     6    4   22 1  
     7    5    6 ar 
     8    6    7 ar 
     9    7    8 1  
    10    8    9 1  
    11    9   10 2  
    12   10   11 1  
    13   11   12 1  
    14   12   13 am 
    15   13   14 2  
    16   13   15 1  
    17   15   16 1  
    18   15   19 1  
    19   16   17 1  
    20   16   18 1  
    21   19   20 am 
    22   20   21 2  
    23   20   22 1  
    24   22   23 1  
    25   22   24 1  
    26   24   25 1  
    27   25   26 1  
    28   26   27 1  
    29   27   28 1  
    30   27   41 2  
    31   28   29 am 
    32   29   30 2  
    33   29   31 1  
    34   31   32 1  
    35   31   36 1  
    36   32   33 1  
    37   32   34 1  
    38   32   35 1  
    39   36   37 am 
    40   37   38 2  
    41   37   39 1  
    42   39   40 1  
    43   41   42 1  
    44   42   43 ar 
    45   42   45 ar 
    46   43   44 ar 
    47   44   47 ar 
    48   45   46 ar 
    49   46   47 ar 
    50   47   48 1  
    51   48   49 2  
    52   48   52 1  
    53   49   50 1  
    54   50   51 1  
    55   51   52 1  
    56    1   53 1  
    57    2   54 1  
    58    4   55 1  
    59    4   56 1  
    60    5   57 1  
    61    6   58 1  
    62    8   59 1  
    63    8   60 1  
    64    9   61 1  
    65   10   62 1  
    66   11   63 1  
    67   11   64 1  
    68   12   65 1  
    69   15   66 1  
    70   16   67 1  
    71   17   68 1  
    72   17   69 1  
    73   17   70 1  
    74   18   71 1  
    75   18   72 1  
    76   18   73 1  
    77   19   74 1  
    78   23   75 1  
    79   24   76 1  
    80   24   77 1  
    81   25   78 1  
    82   25   79 1  
    83   26   80 1  
    84   26   81 1  
    85   28   82 1  
    86   31   83 1  
    87   33   84 1  
    88   33   85 1  
    89   33   86 1  
    90   34   87 1  
    91   34   88 1  
    92   34   89 1  
    93   35   90 1  
    94   35   91 1  
    95   35   92 1  
    96   36   93 1  
    97   40   94 1  
    98   40   95 1  
    99   40   96 1  
   100   41   97 1  
   101   43   98 1  
   102   44   99 1  
   103   45  100 1  
   104   46  101 1  
   105   49  102 1  
   106   50  103 1  
   107   50  104 1  
   108   52  105 1  
   109   52  106 1  
@<TRIPOS>SUBSTRUCTURE
     1 V78         1

