### 
### Created by X-TOOL on Mon Sep 10 21:13:17 2018
### 

@<TRIPOS>MOLECULE
4cpw_ligand
  104   107     1     0     0
SMALL
GAST_HUCK


@<TRIPOS>ATOM
      1 CAR         7.9020   23.2340    2.8770 C.ar      1 V78        -0.0667
      2 CAT         9.2210   22.9110    3.1690 C.ar      1 V78        -0.0669
      3 CBS        10.2360   23.8110    2.8600 C.ar      1 V78        -0.0480
      4 CBF        11.5300   23.5760    3.3040 C.3       1 V78         0.0139
      5 CAU         9.9350   25.0060    2.2230 C.ar      1 V78        -0.0669
      6 CAS         8.6150   25.3220    1.9280 C.ar      1 V78        -0.0667
      7 CBQ         7.6100   24.3950    2.1670 C.ar      1 V78        -0.0485
      8 CBB         6.2850   24.7450    1.9300 C.3       1 V78        -0.0196
      9 CAM         5.6430   24.8550    3.1600 C.3       1 V78        -0.0392
     10 CAL         5.3940   26.1970    3.4450 C.2       1 V78        -0.0918
     11 CAZ         5.9480   26.8120    4.5730 C.2       1 V78         0.0093
     12 NBH         6.9610   25.9450    5.2240 N.am      1 V78        -0.2490
     13 C           8.1490   26.5340    5.6800 C.2       1 V78         0.2275
     14 O           8.4060   27.6780    5.2910 O.2       1 V78        -0.3829
     15 CA          9.1020   25.7620    6.3670 C.3       1 V78         0.1390
     16 CB          9.5250   26.4870    7.6550 C.3       1 V78        -0.0057
     17 CG1         8.3120   26.6450    8.5730 C.3       1 V78        -0.0584
     18 CG2        10.6230   25.6960    8.3740 C.3       1 V78        -0.0584
     19 N          10.2740   25.5460    5.4850 N.am      1 V78        -0.2618
     20 CBP        10.9090   24.3060    5.4010 C.2       1 V78         0.2318
     21 OAJ        10.4920   23.3730    6.0890 O.2       1 V78        -0.3414
     22 CCA        11.9760   24.1470    4.4990 C.3       1 V78         0.1537
     23 OAK        12.5560   25.4300    4.2210 O.3       1 V78        -0.3819
     24 CBD        13.0520   23.2370    5.0880 C.3       1 V78        -0.0133
     25 CBA        13.8170   23.9670    6.1900 C.3       1 V78        -0.0291
     26 CBC        15.2990   23.6120    6.0750 C.3       1 V78         0.0608
     27 NBY        15.5750   22.3780    6.8240 N.2       1 V78        -0.2170
     28 NBK        16.0870   21.4750    6.3020 N.am      1 V78        -0.1285
     29 CBO        15.3270   20.6710    5.5330 C.2       1 V78         0.2917
     30 OAI        14.1570   20.3780    5.8100 O.2       1 V78        -0.3505
     31 CBX        16.1930   19.7240    4.6930 C.3       1 V78         0.1565
     32 CBZ        15.4120   18.9820    3.6080 C.3       1 V78         0.0042
     33 CAD        14.4280   18.0000    4.2510 C.3       1 V78        -0.0558
     34 CAE        14.6570   19.9770    2.7280 C.3       1 V78        -0.0558
     35 CAF        16.4070   18.1990    2.7510 C.3       1 V78        -0.0558
     36 NBI        16.8440   18.7410    5.5690 N.am      1 V78        -0.2389
     37 CBM        18.1660   18.7480    5.7030 C.2       1 V78         0.3216
     38 OAG        18.8270   19.5370    5.0270 O.2       1 V78        -0.3774
     39 OBL        18.7640   17.8700    6.5570 O.3       1 V78        -0.2672
     40 CAA        20.0270   18.3590    7.0130 C.3       1 V78         0.0663
     41 CBE        15.6580   22.3960    8.1600 C.2       1 V78         0.0788
     42 CXQ        15.9820   21.1850    8.7690 C.ar      1 V78         0.0349
     43 CXV        17.2990   20.7450    8.8200 C.ar      1 V78        -0.0244
     44 CXW        17.6180   19.5570    9.4750 C.ar      1 V78        -0.0279
     45 CXP        14.9800   20.4130    9.3420 C.ar      1 V78        -0.0244
     46 CXR        15.2930   19.2030    9.9500 C.ar      1 V78        -0.0279
     47 CXA        16.6110   18.7720   10.0250 C.ar      1 V78         0.0110
     48 CXY        16.9010   17.6320   10.6520 C.2       1 V78         0.0238
     49 CXZ        16.0750   16.5670   10.5730 C.2       1 V78        -0.0423
     50 CXT        16.4360   15.5480   11.3650 C.2       1 V78         0.0171
     51 SAI        17.6890   16.0750   12.3120 S.3       1 V78         0.0072
     52 CXG        17.7700   17.6020   11.6710 C.2       1 V78         0.0560
     53 H           7.0997   22.5816    3.2022 H         1 V78         0.0540
     54 H           9.4585   21.9618    3.6356 H         1 V78         0.0540
     55 H          12.2061   23.9301    2.5119 H         1 V78         0.0428
     56 H          11.6341   22.4866    3.4151 H         1 V78         0.0428
     57 H          10.7297   25.6930    1.9555 H         1 V78         0.0540
     58 H           8.3698   26.2922    1.5113 H         1 V78         0.0540
     59 H           5.7968   23.9690    1.3222 H         1 V78         0.0427
     60 H           6.2423   25.7075    1.3992 H         1 V78         0.0427
     61 H           6.2834   24.4277    3.9456 H         1 V78         0.0353
     62 H           4.6902   24.3064    3.1249 H         1 V78         0.0353
     63 H           4.7573   26.7765    2.7781 H         1 V78         0.0217
     64 H           5.6704   27.8031    4.9287 H         1 V78         0.0799
     65 H           6.8003   24.9642    5.3349 H         1 V78         0.2238
     66 H           8.6624   24.7886    6.6300 H         1 V78         0.0809
     67 H           9.9132   27.4830    7.3956 H         1 V78         0.0343
     68 H           8.6147   27.1637    9.4945 H         1 V78         0.0235
     69 H           7.9116   25.6521    8.8258 H         1 V78         0.0235
     70 H           7.5372   27.2328    8.0590 H         1 V78         0.0235
     71 H          11.4917   25.5864    7.7082 H         1 V78         0.0235
     72 H          10.2406   24.7008    8.6446 H         1 V78         0.0235
     73 H          10.9250   26.2331    9.2852 H         1 V78         0.0235
     74 H          10.6182   26.3080    4.9365 H         1 V78         0.1890
     75 H          13.2773   25.3249    3.6116 H         1 V78         0.2082
     76 H          13.7532   22.9423    4.2933 H         1 V78         0.0282
     77 H          12.5770   22.3388    5.5096 H         1 V78         0.0282
     78 H          13.4368   23.6547    7.1738 H         1 V78         0.0284
     79 H          13.6865   25.0531    6.0743 H         1 V78         0.0284
     80 H          15.9042   24.4326    6.4876 H         1 V78         0.0536
     81 H          15.5575   23.4621    5.0164 H         1 V78         0.0536
     82 H          17.0644   21.2995    6.4202 H         1 V78         0.3109
     83 H          16.9697   20.3267    4.1997 H         1 V78         0.0822
     84 H          13.8708   17.4710    3.4638 H         1 V78         0.0237
     85 H          13.7238   18.5524    4.8905 H         1 V78         0.0237
     86 H          14.9826   17.2713    4.8604 H         1 V78         0.0237
     87 H          15.3712   20.6776    2.2708 H         1 V78         0.0237
     88 H          13.9365   20.5368    3.3424 H         1 V78         0.0237
     89 H          14.1198   19.4330    1.9372 H         1 V78         0.0237
     90 H          16.9512   17.4823    3.3836 H         1 V78         0.0237
     91 H          17.1213   18.8963    2.2890 H         1 V78         0.0237
     92 H          15.8644   17.6550    1.9639 H         1 V78         0.0237
     93 H          16.2937   18.0681    6.0633 H         1 V78         0.1900
     94 H          20.4783   17.6261    7.6979 H         1 V78         0.0575
     95 H          19.8819   19.3131    7.5408 H         1 V78         0.0575
     96 H          20.6930   18.5141    6.1514 H         1 V78         0.0575
     97 H          15.4828   23.3030    8.7367 H         1 V78         0.1089
     98 H          18.0816   21.3282    8.3483 H         1 V78         0.0761
     99 H          18.6528   19.2445    9.5558 H         1 V78         0.0718
    100 H          13.9516   20.7548    9.3150 H         1 V78         0.0761
    101 H          14.5023   18.5911   10.3688 H         1 V78         0.0718
    102 H          15.1987   16.5387    9.9271 H         1 V78         0.0466
    103 H          15.9879   14.5556   11.3828 H         1 V78         0.0871
    104 H          18.4044   18.4192   12.0112 H         1 V78         0.1213
@<TRIPOS>BOND
     1    1    2 ar 
     2    1    7 ar 
     3    2    3 ar 
     4    3    4 1  
     5    3    5 ar 
     6    4   22 1  
     7    5    6 ar 
     8    6    7 ar 
     9    7    8 1  
    10    8    9 1  
    11    9   10 1  
    12   10   11 2  
    13   11   12 1  
    14   12   13 am 
    15   13   14 2  
    16   13   15 1  
    17   15   16 1  
    18   15   19 1  
    19   16   17 1  
    20   16   18 1  
    21   19   20 am 
    22   20   21 2  
    23   20   22 1  
    24   22   23 1  
    25   22   24 1  
    26   24   25 1  
    27   25   26 1  
    28   26   27 1  
    29   27   28 1  
    30   27   41 2  
    31   28   29 am 
    32   29   30 2  
    33   29   31 1  
    34   31   32 1  
    35   31   36 1  
    36   32   33 1  
    37   32   34 1  
    38   32   35 1  
    39   36   37 am 
    40   37   38 2  
    41   37   39 1  
    42   39   40 1  
    43   41   42 1  
    44   42   43 ar 
    45   42   45 ar 
    46   43   44 ar 
    47   44   47 ar 
    48   45   46 ar 
    49   46   47 ar 
    50   47   48 1  
    51   48   49 1  
    52   48   52 2  
    53   49   50 2  
    54   50   51 1  
    55   51   52 1  
    56    1   53 1  
    57    2   54 1  
    58    4   55 1  
    59    4   56 1  
    60    5   57 1  
    61    6   58 1  
    62    8   59 1  
    63    8   60 1  
    64    9   61 1  
    65    9   62 1  
    66   10   63 1  
    67   11   64 1  
    68   12   65 1  
    69   15   66 1  
    70   16   67 1  
    71   17   68 1  
    72   17   69 1  
    73   17   70 1  
    74   18   71 1  
    75   18   72 1  
    76   18   73 1  
    77   19   74 1  
    78   23   75 1  
    79   24   76 1  
    80   24   77 1  
    81   25   78 1  
    82   25   79 1  
    83   26   80 1  
    84   26   81 1  
    85   28   82 1  
    86   31   83 1  
    87   33   84 1  
    88   33   85 1  
    89   33   86 1  
    90   34   87 1  
    91   34   88 1  
    92   34   89 1  
    93   35   90 1  
    94   35   91 1  
    95   35   92 1  
    96   36   93 1  
    97   40   94 1  
    98   40   95 1  
    99   40   96 1  
   100   41   97 1  
   101   43   98 1  
   102   44   99 1  
   103   45  100 1  
   104   46  101 1  
   105   49  102 1  
   106   50  103 1  
   107   52  104 1  
@<TRIPOS>SUBSTRUCTURE
     1 V78         1

