### 
### Created by X-TOOL on Mon Sep 10 21:13:20 2018
### 

@<TRIPOS>MOLECULE
4cpx_ligand
  108   111     1     0     0
SMALL
GAST_HUCK


@<TRIPOS>ATOM
      1 CAR         9.0030   25.6560    1.9760 C.ar      1 V78        -0.0652
      2 CAT        10.2710   25.1990    2.3140 C.ar      1 V78        -0.0666
      3 CBS        10.4210   23.9590    2.9200 C.ar      1 V78        -0.0478
      4 CBF        11.6560   23.5920    3.4420 C.3       1 V78         0.0140
      5 CAU         9.2990   23.1680    3.1590 C.ar      1 V78        -0.0666
      6 CAS         8.0350   23.6110    2.7840 C.ar      1 V78        -0.0652
      7 CBQ         7.8800   24.8790    2.2360 C.ar      1 V78        -0.0420
      8 CBB         6.6290   25.3360    1.8300 C.3       1 V78        -0.0062
      9 CAM         5.6240   24.9080    2.6950 C.2       1 V78        -0.0866
     10 CAL         5.3100   25.5880    3.8710 C.2       1 V78        -0.0745
     11 CAZ         6.1580   26.5490    4.4160 C.3       1 V78         0.0485
     12 NBH         7.1270   25.8720    5.3020 N.am      1 V78        -0.2769
     13 C           8.3080   26.5170    5.6800 C.2       1 V78         0.2037
     14 O           8.5600   27.6200    5.2010 O.2       1 V78        -0.3944
     15 CA          9.2690   25.8210    6.4140 C.3       1 V78         0.1334
     16 CB          9.5760   26.6030    7.6980 C.3       1 V78        -0.0061
     17 CG1        10.5400   25.8030    8.5790 C.3       1 V78        -0.0584
     18 CG2         8.2720   26.8480    8.4680 C.3       1 V78        -0.0584
     19 N          10.4890   25.6640    5.5750 N.am      1 V78        -0.2622
     20 CBP        11.1680   24.4480    5.5150 C.2       1 V78         0.2318
     21 OAJ        10.6680   23.4840    6.0960 O.2       1 V78        -0.3414
     22 CCA        12.1710   24.2790    4.5430 C.3       1 V78         0.1538
     23 OAK        12.6200   25.5620    4.1010 O.3       1 V78        -0.3819
     24 CBD        13.3710   23.5120    5.1150 C.3       1 V78        -0.0103
     25 CBA        13.7950   24.1240    6.4560 C.3       1 V78        -0.0098
     26 CBC        15.2450   23.7350    6.7650 C.3       1 V78        -0.0060
     27 NBY        15.3620   22.3190    7.1540 N.4       1 V78         0.3791
     28 NBK        15.9370   21.7250    6.2770 N.am      1 V78        -0.2496
     29 CBO        15.3040   20.6970    5.6810 C.2       1 V78         0.2392
     30 OAI        14.2220   20.2590    6.0700 O.2       1 V78        -0.3898
     31 CBX        16.2240   19.8510    4.7810 C.3       1 V78         0.1419
     32 CBZ        15.4800   19.1790    3.6170 C.3       1 V78         0.0027
     33 CAD        14.6120   20.1990    2.8710 C.3       1 V78        -0.0558
     34 CAE        16.5140   18.6040    2.6520 C.3       1 V78        -0.0558
     35 CAF        14.6050   18.0370    4.1430 C.3       1 V78        -0.0558
     36 NBI        16.8610   18.8060    5.5920 N.am      1 V78        -0.2405
     37 CBM        18.1850   18.7800    5.7670 C.2       1 V78         0.3216
     38 OAG        18.9000   19.5630    5.1420 O.2       1 V78        -0.3774
     39 OBL        18.7300   17.9150    6.6670 O.3       1 V78        -0.2672
     40 CAA        20.1590   17.9380    6.5590 C.3       1 V78         0.0663
     41 CBE        16.0870   22.2620    8.2760 C.3       1 V78         0.0236
     42 CXQ        16.3600   20.9960    8.7970 C.ar      1 V78        -0.0044
     43 CXV        17.6720   20.5440    8.8780 C.ar      1 V78        -0.0615
     44 CXW        17.9570   19.3070    9.4450 C.ar      1 V78        -0.0640
     45 CXP        15.3310   20.1950    9.2850 C.ar      1 V78        -0.0615
     46 CXR        15.6130   18.9360    9.8090 C.ar      1 V78        -0.0640
     47 CXA        16.9260   18.4800    9.8730 C.ar      1 V78        -0.0290
     48 CXY        16.8770   15.5780   11.8750 C.2       1 V78        -0.0853
     49 CXZ        16.4580   16.7850   11.4330 C.2       1 V78        -0.0748
     50 CXT        17.2140   17.3150   10.4580 C.3       1 V78         0.0538
     51 SAI        18.1060   16.1150    9.7130 S.3       1 V78        -0.1247
     52 CXG        17.7440   14.8990   11.0040 C.3       1 V78         0.0150
     53 H           8.8886   26.6260    1.5059 H         1 V78         0.0543
     54 H          11.1418   25.8098    2.1048 H         1 V78         0.0540
     55 H          12.3899   23.6953    2.6292 H         1 V78         0.0428
     56 H          11.5781   22.5342    3.7334 H         1 V78         0.0428
     57 H           9.4118   22.2029    3.6394 H         1 V78         0.0540
     58 H           7.1723   22.9686    2.9189 H         1 V78         0.0543
     59 H           6.4188   24.9530    0.8205 H         1 V78         0.0534
     60 H           6.6392   26.4358    1.8102 H         1 V78         0.0534
     61 H           5.0631   24.0092    2.4432 H         1 V78         0.0466
     62 H           4.3737   25.3609    4.3786 H         1 V78         0.0480
     63 H           5.5705   27.2761    4.9958 H         1 V78         0.0647
     64 H           6.6944   27.0706    3.6096 H         1 V78         0.0647
     65 H           6.9371   24.9477    5.6330 H         1 V78         0.1876
     66 H           8.8826   24.8262    6.6805 H         1 V78         0.0804
     67 H          10.0352   27.5678    7.4367 H         1 V78         0.0343
     68 H          10.7546   26.3703    9.4966 H         1 V78         0.0235
     69 H          11.4766   25.6254    8.0303 H         1 V78         0.0235
     70 H          10.0811   24.8388    8.8430 H         1 V78         0.0235
     71 H           7.5768   27.4225    7.8383 H         1 V78         0.0235
     72 H           8.4889   27.4144    9.3857 H         1 V78         0.0235
     73 H           7.8152   25.8828    8.7321 H         1 V78         0.0235
     74 H          10.8265   26.4429    5.0464 H         1 V78         0.1889
     75 H          13.2975   25.4503    3.4444 H         1 V78         0.2082
     76 H          14.2108   23.5693    4.4069 H         1 V78         0.0283
     77 H          13.0911   22.4592    5.2676 H         1 V78         0.0283
     78 H          13.1375   23.7482    7.2538 H         1 V78         0.0316
     79 H          13.7143   25.2196    6.3999 H         1 V78         0.0316
     80 H          15.6135   24.3622    7.5901 H         1 V78         0.0822
     81 H          15.8589   23.9097    5.8691 H         1 V78         0.0822
     82 H          14.4497   21.9181    7.3054 H         1 V78         0.2319
     83 H          16.8606   21.9889    5.9991 H         1 V78         0.2383
     84 H          17.0000   20.5096    4.3637 H         1 V78         0.0806
     85 H          14.0886   19.6989    2.0428 H         1 V78         0.0237
     86 H          15.2502   21.0004    2.4706 H         1 V78         0.0237
     87 H          13.8744   20.6294    3.5642 H         1 V78         0.0237
     88 H          17.1409   17.8708    3.1806 H         1 V78         0.0237
     89 H          17.1468   19.4166    2.2657 H         1 V78         0.0237
     90 H          15.9993   18.1102    1.8146 H         1 V78         0.0237
     91 H          13.8557   18.4404    4.8400 H         1 V78         0.0237
     92 H          15.2354   17.3034    4.6668 H         1 V78         0.0237
     93 H          14.0955   17.5472    3.3001 H         1 V78         0.0237
     94 H          16.2944   18.1021    6.0204 H         1 V78         0.1899
     95 H          20.5931   17.2378    7.2879 H         1 V78         0.0575
     96 H          20.5259   18.9546    6.7637 H         1 V78         0.0575
     97 H          20.4548   17.6392    5.5425 H         1 V78         0.0575
     98 H          15.5457   22.8277    9.0486 H         1 V78         0.0975
     99 H          17.0512   22.7504    8.0718 H         1 V78         0.0975
    100 H          18.4782   21.1601    8.4966 H         1 V78         0.0542
    101 H          18.9869   18.9868    9.5535 H         1 V78         0.0543
    102 H          14.3079   20.5523    9.2570 H         1 V78         0.0542
    103 H          14.8058   18.3083   10.1687 H         1 V78         0.0543
    104 H          16.5659   15.1642   12.8331 H         1 V78         0.0468
    105 H          15.5789   17.2866   11.8350 H         1 V78         0.0476
    106 H          18.0150   17.7183   11.0950 H         1 V78         0.0683
    107 H          17.2544   14.0107   10.5784 H         1 V78         0.0505
    108 H          18.6641   14.5962   11.5252 H         1 V78         0.0505
@<TRIPOS>BOND
     1    2    1 ar 
     2    1    7 ar 
     3    3    2 ar 
     4    4    3 1  
     5    3    5 ar 
     6   22    4 1  
     7    5    6 ar 
     8    6    7 ar 
     9    7    8 1  
    10    8    9 1  
    11   10    9 2  
    12   11   10 1  
    13   12   11 1  
    14   13   12 am 
    15   13   14 2  
    16   15   13 1  
    17   15   16 1  
    18   19   15 1  
    19   16   17 1  
    20   16   18 1  
    21   20   19 am 
    22   20   21 2  
    23   22   20 1  
    24   22   23 1  
    25   24   22 1  
    26   25   24 1  
    27   26   25 1  
    28   27   26 1  
    29   27   28 1  
    30   41   27 1  
    31   28   29 am 
    32   29   30 2  
    33   29   31 1  
    34   31   32 1  
    35   31   36 1  
    36   32   33 1  
    37   32   34 1  
    38   32   35 1  
    39   36   37 am 
    40   37   38 2  
    41   37   39 1  
    42   39   40 1  
    43   42   41 1  
    44   43   42 ar 
    45   45   42 ar 
    46   44   43 ar 
    47   47   44 ar 
    48   46   45 ar 
    49   47   46 ar 
    50   50   47 1  
    51   49   48 2  
    52   48   52 1  
    53   49   50 1  
    54   50   51 1  
    55   51   52 1  
    56    1   53 1  
    57    2   54 1  
    58    4   55 1  
    59    4   56 1  
    60    5   57 1  
    61    6   58 1  
    62    8   59 1  
    63    8   60 1  
    64    9   61 1  
    65   10   62 1  
    66   11   63 1  
    67   11   64 1  
    68   12   65 1  
    69   15   66 1  
    70   16   67 1  
    71   17   68 1  
    72   17   69 1  
    73   17   70 1  
    74   18   71 1  
    75   18   72 1  
    76   18   73 1  
    77   19   74 1  
    78   23   75 1  
    79   24   76 1  
    80   24   77 1  
    81   25   78 1  
    82   25   79 1  
    83   26   80 1  
    84   26   81 1  
    85   27   82 1  
    86   28   83 1  
    87   31   84 1  
    88   33   85 1  
    89   33   86 1  
    90   33   87 1  
    91   34   88 1  
    92   34   89 1  
    93   34   90 1  
    94   35   91 1  
    95   35   92 1  
    96   35   93 1  
    97   36   94 1  
    98   40   95 1  
    99   40   96 1  
   100   40   97 1  
   101   41   98 1  
   102   41   99 1  
   103   43  100 1  
   104   44  101 1  
   105   45  102 1  
   106   46  103 1  
   107   48  104 1  
   108   49  105 1  
   109   50  106 1  
   110   52  107 1  
   111   52  108 1  
@<TRIPOS>SUBSTRUCTURE
     1 V78         1

