### 
### Created by X-TOOL on Mon Sep 10 21:13:17 2018
### 

@<TRIPOS>MOLECULE
4cpy_ligand
   44    44     1     0     0
SMALL
GAST_HUCK


@<TRIPOS>ATOM
      1 C1        -22.7950   90.8250   11.2080 C.2       1 G39         0.0478
      2 O1A       -24.0350   90.6530   11.2010 O.co2     1 G39        -0.5666
      3 O1B       -22.1980   91.2210   10.1760 O.co2     1 G39        -0.5666
      4 C2        -22.0050   90.5670   12.4320 C.2       1 G39        -0.0181
      5 C3        -22.6660   90.0040   13.6700 C.3       1 G39         0.0201
      6 C4        -21.6610   89.2350   14.5440 C.3       1 G39         0.0100
      7 C5        -20.4150   90.0820   14.8130 C.3       1 G39         0.1202
      8 N5        -19.4840   89.3710   15.6730 N.am      1 G39        -0.2740
      9 C10       -19.0250   89.7990   16.8600 C.2       1 G39         0.1735
     10 O10       -19.2910   90.8710   17.3600 O.2       1 G39        -0.3974
     11 C11       -18.0870   88.8760   17.5750 C.3       1 G39         0.0257
     12 C6        -19.7070   90.3900   13.5060 C.3       1 G39         0.1112
     13 C7        -20.6720   90.7880   12.3980 C.2       1 G39        -0.0470
     14 O7        -18.7660   91.4500   13.7370 O.3       1 G39        -0.3596
     15 C8        -17.4130   91.1580   13.3540 C.3       1 G39         0.0613
     16 C9        -17.1820   91.4510   11.8700 C.3       1 G39        -0.0292
     17 C81       -16.4790   91.9870   14.2240 C.3       1 G39        -0.0292
     18 C82       -17.1140   93.2790   14.6950 C.3       1 G39        -0.0629
     19 C91       -17.8350   92.7560   11.4600 C.3       1 G39        -0.0629
     20 N4        -22.2910   88.8690   15.7980 N.4       1 G39         0.2238
     21 H         -23.4718   89.3200   13.3655 H         1 G39         0.0441
     22 H         -23.0901   90.8320   14.2570 H         1 G39         0.0441
     23 H         -21.3583   88.3194   14.0149 H         1 G39         0.0895
     24 H         -20.7174   91.0214   15.2989 H         1 G39         0.0664
     25 H         -19.1556   88.4828   15.3517 H         1 G39         0.1859
     26 H         -17.7806   89.3310   18.5285 H         1 G39         0.0467
     27 H         -17.1987   88.7000   16.9506 H         1 G39         0.0467
     28 H         -18.5927   87.9191   17.7712 H         1 G39         0.0467
     29 H         -19.1629   89.4903   13.1826 H         1 G39         0.0776
     30 H         -20.2611   91.2837   11.5197 H         1 G39         0.0592
     31 H         -17.2144   90.0909   13.5323 H         1 G39         0.0598
     32 H         -17.6095   90.6327   11.2720 H         1 G39         0.0288
     33 H         -16.1003   91.5165   11.6815 H         1 G39         0.0288
     34 H         -15.5778   92.2294   13.6417 H         1 G39         0.0288
     35 H         -16.1972   91.3916   15.1049 H         1 G39         0.0288
     36 H         -16.3967   93.8347   15.3168 H         1 G39         0.0231
     37 H         -18.0129   93.0514   15.2868 H         1 G39         0.0231
     38 H         -17.3935   93.8892   13.8235 H         1 G39         0.0231
     39 H         -17.6514   92.9378   10.3908 H         1 G39         0.0231
     40 H         -17.4091   93.5806   12.0505 H         1 G39         0.0231
     41 H         -18.9184   92.6967   11.6411 H         1 G39         0.0231
     42 H         -23.1102   88.3117   15.6124 H         1 G39         0.1999
     43 H         -22.5582   89.7037   16.2960 H         1 G39         0.1999
     44 H         -21.6425   88.3372   16.3572 H         1 G39         0.1999
@<TRIPOS>BOND
     1    1    2 ar 
     2    1    3 ar 
     3    1    4 1  
     4    4    5 1  
     5    4   13 2  
     6    5    6 1  
     7    6    7 1  
     8    6   20 1  
     9    7    8 1  
    10    7   12 1  
    11    8    9 am 
    12    9   10 2  
    13    9   11 1  
    14   12   13 1  
    15   12   14 1  
    16   14   15 1  
    17   15   16 1  
    18   15   17 1  
    19   16   19 1  
    20   17   18 1  
    21    5   21 1  
    22    5   22 1  
    23    6   23 1  
    24    7   24 1  
    25    8   25 1  
    26   11   26 1  
    27   11   27 1  
    28   11   28 1  
    29   12   29 1  
    30   13   30 1  
    31   15   31 1  
    32   16   32 1  
    33   16   33 1  
    34   17   34 1  
    35   17   35 1  
    36   18   36 1  
    37   18   37 1  
    38   18   38 1  
    39   19   39 1  
    40   19   40 1  
    41   19   41 1  
    42   20   42 1  
    43   20   43 1  
    44   20   44 1  
@<TRIPOS>SUBSTRUCTURE
     1 G39         1

