### 
### Created by X-TOOL on Mon Sep 10 21:13:16 2018
### 

@<TRIPOS>MOLECULE
4cpz_ligand
   45    45     1     0     0
SMALL
GAST_HUCK


@<TRIPOS>ATOM
      1 C1         -6.6150   45.8180   56.0190 C.2       1 ZMR         0.0637
      2 O1A        -7.6420   46.5040   55.7560 O.co2     1 ZMR        -0.5663
      3 O1B        -6.7440   44.8560   56.8140 O.co2     1 ZMR        -0.5663
      4 C2         -5.3930   46.1420   55.4720 C.3       1 ZMR         0.1148
      5 C3         -4.3940   44.9560   55.2580 C.3       1 ZMR         0.0237
      6 C4         -3.2960   45.2470   54.3120 C.3       1 ZMR         0.1026
      7 C5         -3.3060   46.5520   53.7720 C.3       1 ZMR         0.1065
      8 N5         -2.2900   46.5860   52.6030 N.am      1 ZMR        -0.2778
      9 C10        -1.0240   47.2410   52.6760 C.2       1 ZMR         0.1733
     10 O10        -0.6490   47.8500   53.6710 O.2       1 ZMR        -0.3974
     11 C11        -0.1850   47.1400   51.4490 C.3       1 ZMR         0.0257
     12 C6         -4.5900   46.9310   53.2260 C.3       1 ZMR         0.1158
     13 O6         -5.6890   46.6870   54.1130 O.3       1 ZMR        -0.3542
     14 C7         -4.6910   48.3770   52.7250 C.3       1 ZMR         0.1116
     15 O7         -4.4220   49.2760   53.7180 O.3       1 ZMR        -0.3865
     16 C8         -6.0980   48.6270   52.2050 C.3       1 ZMR         0.1065
     17 O8         -6.4310   47.6220   51.3180 O.3       1 ZMR        -0.3869
     18 C9         -6.2260   49.9710   51.5150 C.3       1 ZMR         0.0727
     19 O9         -5.3700   50.1660   50.4280 O.3       1 ZMR        -0.3924
     20 NE         -1.9240   44.9770   54.9940 N.pl3     1 ZMR        -0.2671
     21 CZ         -0.8440   44.2550   54.3560 C.cat     1 ZMR         0.2885
     22 NH1        -1.0140   43.5270   53.2540 N.pl3     1 ZMR        -0.2849
     23 NH2         0.3180   44.2940   54.9290 N.pl3     1 ZMR        -0.2849
     24 H          -4.9105   46.9021   56.1040 H         1 ZMR         0.0767
     25 H          -4.9598   44.0943   54.8741 H         1 ZMR         0.0346
     26 H          -3.9507   44.6994   56.2314 H         1 ZMR         0.0346
     27 H          -3.4025   44.5476   53.4697 H         1 ZMR         0.0752
     28 H          -3.0164   47.2694   54.5540 H         1 ZMR         0.0621
     29 H          -2.5346   46.1237   51.7506 H         1 ZMR         0.1856
     30 H           0.7632   47.6744   51.6082 H         1 ZMR         0.0467
     31 H          -0.7211   47.5894   50.6002 H         1 ZMR         0.0467
     32 H           0.0225   46.0816   51.2328 H         1 ZMR         0.0467
     33 H          -4.7382   46.2845   52.3485 H         1 ZMR         0.0649
     34 H          -3.9683   48.5213   51.9084 H         1 ZMR         0.0647
     35 H          -5.0449   49.1601   54.4258 H         1 ZMR         0.2100
     36 H          -6.7954   48.6039   53.0554 H         1 ZMR         0.0643
     37 H          -7.3094   47.7706   50.9880 H         1 ZMR         0.2100
     38 H          -6.0176   50.7557   52.2572 H         1 ZMR         0.0584
     39 H          -7.2607   50.0717   51.1555 H         1 ZMR         0.0584
     40 H          -5.5427   49.5050   49.7678 H         1 ZMR         0.2095
     41 H          -1.7765   45.3307   55.9500 H         1 ZMR         0.2645
     42 H          -0.2140   43.0306   52.8362 H         1 ZMR         0.2615
     43 H          -1.9454   43.4603   52.8194 H         1 ZMR         0.2615
     44 H           0.4532   44.8560   55.7815 H         1 ZMR         0.2615
     45 H           1.1062   43.7630   54.5318 H         1 ZMR         0.2615
@<TRIPOS>BOND
     1    1    2 ar 
     2    1    3 ar 
     3    1    4 1  
     4    4    5 1  
     5    4   13 1  
     6    5    6 1  
     7    6    7 1  
     8    6   20 1  
     9    7    8 1  
    10    7   12 1  
    11    8    9 am 
    12    9   10 2  
    13    9   11 1  
    14   12   13 1  
    15   12   14 1  
    16   14   15 1  
    17   14   16 1  
    18   16   17 1  
    19   16   18 1  
    20   18   19 1  
    21   20   21 ar 
    22   21   22 ar 
    23   21   23 ar 
    24    4   24 1  
    25    5   25 1  
    26    5   26 1  
    27    6   27 1  
    28    7   28 1  
    29    8   29 1  
    30   11   30 1  
    31   11   31 1  
    32   11   32 1  
    33   12   33 1  
    34   14   34 1  
    35   15   35 1  
    36   16   36 1  
    37   17   37 1  
    38   18   38 1  
    39   18   39 1  
    40   19   40 1  
    41   20   41 1  
    42   22   42 1  
    43   22   43 1  
    44   23   44 1  
    45   23   45 1  
@<TRIPOS>SUBSTRUCTURE
     1 ZMR         1

