### 
### Created by X-TOOL on Mon Sep 10 21:13:16 2018
### 

@<TRIPOS>MOLECULE
4cq0_ligand
   19    20     1     0     0
SMALL
GAST_HUCK


@<TRIPOS>ATOM
      1 O1         17.0860    0.3810   14.0750 O.2       1 SXS        -0.3891
      2 C2         16.4770    0.9320   14.9510 C.2       1 SXS         0.2171
      3 N3         15.6840    0.3210   15.9070 N.am      1 SXS        -0.1547
      4 C4         16.3740    2.4240   14.8420 C.ar      1 SXS         0.0646
      5 C5         16.9260    3.2980   13.9490 C.ar      1 SXS        -0.0515
      6 C6         16.5510    4.6130   14.1110 C.ar      1 SXS        -0.0383
      7 C7         15.5900    4.9280   15.0640 C.ar      1 SXS         0.0426
      8 N8         15.2730    6.2500   15.1350 N.pl3     1 SXS        -0.3339
      9 C11        15.0680    4.0660   15.9710 C.ar      1 SXS        -0.0114
     10 C12        15.5360    2.8380   15.7790 C.ar      1 SXS         0.1218
     11 S13        15.0330    1.5260   16.7590 S.o2      1 SXS         0.0904
     12 O14        13.5590    1.5330   16.7510 O.2       1 SXS        -0.1451
     13 O15        15.6620    1.6150   18.0640 O.2       1 SXS        -0.1451
     14 H          15.5443   -0.6601   16.0411 H         1 SXS         0.2135
     15 H          17.6092    2.9797   13.1699 H         1 SXS         0.0637
     16 H          16.9990    5.3913   13.5038 H         1 SXS         0.0530
     17 H          14.5697    6.5752   15.8136 H         1 SXS         0.1738
     18 H          15.7365    6.9250   14.5102 H         1 SXS         0.1738
     19 H          14.3640    4.3418   16.7478 H         1 SXS         0.0549
@<TRIPOS>BOND
     1    1    2 2  
     2    2    3 am 
     3    2    4 1  
     4    3   11 am 
     5    4    5 ar 
     6    4   10 ar 
     7    5    6 ar 
     8    6    7 ar 
     9    7    8 1  
    10    7    9 ar 
    11    9   10 ar 
    12   10   11 1  
    13   11   12 2  
    14   11   13 2  
    15    3   14 1  
    16    5   15 1  
    17    6   16 1  
    18    8   17 1  
    19    8   18 1  
    20    9   19 1  
@<TRIPOS>SUBSTRUCTURE
     1 SXS         1

