### 
### Created by X-TOOL on Mon Sep 10 21:13:19 2018
### 

@<TRIPOS>MOLECULE
4cqe_ligand
   72    77     1     0     0
SMALL
GAST_HUCK


@<TRIPOS>ATOM
      1 F18         4.3840   47.3530   18.5730 F         1 CQE        -0.1848
      2 C13         4.7940   48.6020   18.2510 C.ar      1 CQE         0.1550
      3 C14         5.1360   48.9410   16.9300 C.ar      1 CQE        -0.0280
      4 C15         5.5500   50.2570   16.6370 C.ar      1 CQE        -0.0299
      5 C16         5.6220   51.1950   17.6610 C.ar      1 CQE         0.1299
      6 F19         6.0350   52.5210   17.3490 F         1 CQE        -0.1868
      7 C17         5.2740   50.8330   18.9730 C.ar      1 CQE        -0.0028
      8 C12         4.8640   49.5340   19.2630 C.ar      1 CQE         0.1453
      9 S9          4.4160   49.0460   20.9270 S.o2      1 CQE         0.0886
     10 O10         5.1770   47.7530   21.1750 O.2       1 CQE        -0.1454
     11 O11         4.8220   50.1840   21.8250 O.2       1 CQE        -0.1454
     12 N8          2.8260   48.8140   21.0250 N.am      1 CQE        -0.1874
     13 C5          1.9870   49.8760   21.0430 C.ar      1 CQE         0.0958
     14 C6          0.6720   49.5520   21.3430 C.ar      1 CQE         0.1540
     15 F7          0.4250   48.3160   21.5450 F         1 CQE        -0.1951
     16 C4          2.3230   51.2040   20.7820 C.ar      1 CQE        -0.0475
     17 C3          1.2900   52.1670   20.8430 C.ar      1 CQE        -0.0818
     18 C2         -0.0440   51.8400   21.1540 C.ar      1 CQE        -0.0738
     19 C1         -0.3690   50.4960   21.3870 C.ar      1 CQE         0.0034
     20 C20        -1.6260   50.0950   21.7450 C.2       1 CQE         0.0298
     21 N21        -1.6440   49.3950   22.8970 N.2       1 CQE        -0.3046
     22 C22        -2.8280   49.0040   23.3600 C.2       1 CQE         0.1022
     23 C25        -2.9930   48.1860   24.6480 C.3       1 CQE         0.0424
     24 C30        -3.9590   48.8900   25.6060 C.3       1 CQE         0.0081
     25 C29        -4.0390   48.0950   26.9050 C.3       1 CQE        -0.0286
     26 C26        -3.4420   46.7320   24.3170 C.3       1 CQE         0.0081
     27 C27        -3.6840   45.9340   25.6060 C.3       1 CQE        -0.0286
     28 N28        -4.4580   46.6970   26.6350 N.4       1 CQE         0.2377
     29 C37        -5.8850   46.2920   26.8580 C.3       1 CQE        -0.0205
     30 C38        -6.9360   47.3680   27.1920 C.3       1 CQE        -0.0046
     31 C39        -6.9450   46.7050   25.8150 C.3       1 CQE        -0.0046
     32 S23        -3.9870   49.4910   22.3880 S.3       1 CQE         0.0086
     33 C24        -2.8900   50.3230   21.2530 C.2       1 CQE         0.0618
     34 C31        -3.3700   50.8890   20.1150 C.ar      1 CQE        -0.0100
     35 C36        -4.7510   51.1550   19.9410 C.ar      1 CQE        -0.0130
     36 C32        -2.5260   51.1070   19.0170 C.ar      1 CQE        -0.0484
     37 C33        -3.0490   51.6390   17.8270 C.ar      1 CQE        -0.0129
     38 N34        -4.4240   51.9100   17.7250 N.ar      1 CQE        -0.2930
     39 C35        -5.2820   51.6930   18.7410 C.ar      1 CQE         0.1317
     40 N40        -6.6090   51.9780   18.4830 N.am      1 CQE        -0.2201
     41 C41        -7.6150   51.6890   19.3710 C.2       1 CQE         0.2043
     42 O42        -7.4430   51.2880   20.5260 O.2       1 CQE        -0.3833
     43 C43        -9.0660   51.9350   18.8830 C.3       1 CQE         0.0324
     44 H           5.0819   48.1971   16.1434 H         1 CQE         0.0595
     45 H           5.8099   50.5349   15.6220 H         1 CQE         0.0594
     46 H           5.3250   51.5705   19.7658 H         1 CQE         0.0614
     47 H           2.4582   47.8853   21.0726 H         1 CQE         0.2146
     48 H           3.3409   51.4880   20.5407 H         1 CQE         0.0464
     49 H           1.5356   53.2034   20.6414 H         1 CQE         0.0539
     50 H          -0.8037   52.6111   21.2121 H         1 CQE         0.0461
     51 H          -2.0127   48.1283   25.1437 H         1 CQE         0.0575
     52 H          -4.9570   48.9474   25.1470 H         1 CQE         0.0353
     53 H          -3.5936   49.9058   25.8174 H         1 CQE         0.0353
     54 H          -4.7714   48.5692   27.5749 H         1 CQE         0.0817
     55 H          -3.0504   48.0896   27.3874 H         1 CQE         0.0817
     56 H          -2.6566   46.2366   23.7274 H         1 CQE         0.0353
     57 H          -4.3733   46.7655   23.7325 H         1 CQE         0.0353
     58 H          -2.7093   45.6586   26.0349 H         1 CQE         0.0817
     59 H          -4.2441   45.0218   25.3526 H         1 CQE         0.0817
     60 H          -4.0631   46.2729   27.4598 H         1 CQE         0.2036
     61 H          -5.9261   45.3039   27.3397 H         1 CQE         0.0851
     62 H          -6.6315   48.4202   27.2926 H         1 CQE         0.0322
     63 H          -7.7374   47.1476   27.9126 H         1 CQE         0.0322
     64 H          -7.7522   46.0077   25.5462 H         1 CQE         0.0322
     65 H          -6.6464   47.2803   24.9263 H         1 CQE         0.0322
     66 H          -5.4292   50.9384   20.7584 H         1 CQE         0.0553
     67 H          -1.4715   50.8654   19.0863 H         1 CQE         0.0552
     68 H          -2.3926   51.8403   16.9881 H         1 CQE         0.0753
     69 H          -6.8462   52.4124   17.6141 H         1 CQE         0.2305
     70 H          -9.7722   51.6662   19.6824 H         1 CQE         0.0473
     71 H          -9.2642   51.3163   17.9953 H         1 CQE         0.0473
     72 H          -9.1911   52.9970   18.6252 H         1 CQE         0.0473
@<TRIPOS>BOND
     1    1    2 1  
     2    2    3 ar 
     3    2    8 ar 
     4    3    4 ar 
     5    4    5 ar 
     6    5    6 1  
     7    5    7 ar 
     8    7    8 ar 
     9    8    9 1  
    10    9   10 2  
    11    9   11 2  
    12    9   12 am 
    13   12   13 1  
    14   13   14 ar 
    15   13   16 ar 
    16   14   15 1  
    17   14   19 ar 
    18   16   17 ar 
    19   17   18 ar 
    20   18   19 ar 
    21   19   20 1  
    22   20   21 1  
    23   20   33 2  
    24   21   22 2  
    25   22   23 1  
    26   22   32 1  
    27   23   24 1  
    28   23   26 1  
    29   24   25 1  
    30   25   28 1  
    31   26   27 1  
    32   27   28 1  
    33   28   29 1  
    34   29   30 1  
    35   29   31 1  
    36   30   31 1  
    37   32   33 1  
    38   33   34 1  
    39   34   35 ar 
    40   34   36 ar 
    41   35   39 ar 
    42   36   37 ar 
    43   37   38 ar 
    44   38   39 ar 
    45   39   40 1  
    46   40   41 am 
    47   41   42 2  
    48   41   43 1  
    49    3   44 1  
    50    4   45 1  
    51    7   46 1  
    52   12   47 1  
    53   16   48 1  
    54   17   49 1  
    55   18   50 1  
    56   23   51 1  
    57   24   52 1  
    58   24   53 1  
    59   25   54 1  
    60   25   55 1  
    61   26   56 1  
    62   26   57 1  
    63   27   58 1  
    64   27   59 1  
    65   28   60 1  
    66   29   61 1  
    67   30   62 1  
    68   30   63 1  
    69   31   64 1  
    70   31   65 1  
    71   35   66 1  
    72   36   67 1  
    73   37   68 1  
    74   40   69 1  
    75   43   70 1  
    76   43   71 1  
    77   43   72 1  
@<TRIPOS>SUBSTRUCTURE
     1 CQE         1

