### 
### Created by X-TOOL on Mon Sep 10 21:13:18 2018
### 

@<TRIPOS>MOLECULE
4cqf_ligand
   39    39     1     0     0
SMALL
GAST_HUCK


@<TRIPOS>ATOM
      1 O01        46.1650   33.5440   86.2490 O.2       1 9Z8        -0.3962
      2 C02        46.0930   32.9900   85.1640 C.2       1 9Z8         0.1857
      3 C03        47.2660   32.2200   84.6740 C.3       1 9Z8         0.0802
      4 S04        48.0730   31.0510   85.7180 S.3       1 9Z8        -0.1565
      5 N05        44.9210   33.0910   84.3400 N.am      1 9Z8        -0.2863
      6 C06        43.7630   33.8680   84.6820 C.3       1 9Z8         0.0309
      7 C07        42.9230   34.3090   83.5290 C.3       1 9Z8        -0.0326
      8 C08        43.0060   35.6520   82.8860 C.3       1 9Z8        -0.0491
      9 C09        41.8240   36.5430   83.1060 C.3       1 9Z8        -0.0355
     10 C10        41.0410   37.0460   81.9350 C.3       1 9Z8         0.0432
     11 C11        41.3440   38.4020   81.3720 C.2       1 9Z8         0.2036
     12 O12        41.3170   38.5360   80.1540 O.2       1 9Z8        -0.3849
     13 N13        41.6600   39.4970   82.2600 N.am      1 9Z8        -0.2339
     14 C14        41.9680   40.8580   81.8820 C.ar      1 9Z8         0.0662
     15 C15        41.0780   41.5760   81.0650 C.ar      1 9Z8        -0.0413
     16 C16        41.3530   42.8990   80.6970 C.ar      1 9Z8        -0.0755
     17 C17        42.5110   43.5190   81.1670 C.ar      1 9Z8        -0.0772
     18 C18        43.3950   42.8190   81.9980 C.ar      1 9Z8        -0.0755
     19 C19        43.1120   41.5030   82.3740 C.ar      1 9Z8        -0.0413
     20 H          48.0271   32.9584   84.3816 H         1 9Z8         0.0613
     21 H          46.9301   31.6675   83.7841 H         1 9Z8         0.0613
     22 H          47.4163   30.3368   85.9913 H         1 9Z8         0.1043
     23 H          44.9108   32.5894   83.4750 H         1 9Z8         0.1851
     24 H          44.1035   34.7669   85.2169 H         1 9Z8         0.0520
     25 H          43.1323   33.2615   85.3486 H         1 9Z8         0.0520
     26 H          41.8811   34.2072   83.8667 H         1 9Z8         0.0285
     27 H          43.1205   33.5842   82.7255 H         1 9Z8         0.0285
     28 H          43.1215   35.5029   81.8023 H         1 9Z8         0.0267
     29 H          43.8952   36.1638   83.2826 H         1 9Z8         0.0267
     30 H          42.1892   37.4278   83.6480 H         1 9Z8         0.0290
     31 H          41.1208   35.9869   83.7434 H         1 9Z8         0.0290
     32 H          39.9833   37.0540   82.2370 H         1 9Z8         0.0508
     33 H          41.1841   36.3218   81.1195 H         1 9Z8         0.0508
     34 H          41.6663   39.2920   83.2387 H         1 9Z8         0.2257
     35 H          40.1686   41.1005   80.7158 H         1 9Z8         0.0502
     36 H          40.6700   43.4382   80.0506 H         1 9Z8         0.0577
     37 H          42.7270   44.5441   80.8886 H         1 9Z8         0.0487
     38 H          44.3008   43.2991   82.3503 H         1 9Z8         0.0577
     39 H          43.7793   40.9788   83.0485 H         1 9Z8         0.0502
@<TRIPOS>BOND
     1    1    2 2  
     2    2    3 1  
     3    2    5 am 
     4    3    4 1  
     5    5    6 1  
     6    6    7 1  
     7    7    8 1  
     8    8    9 1  
     9    9   10 1  
    10   10   11 1  
    11   11   12 2  
    12   11   13 am 
    13   13   14 1  
    14   14   15 ar 
    15   14   19 ar 
    16   15   16 ar 
    17   16   17 ar 
    18   17   18 ar 
    19   18   19 ar 
    20    3   20 1  
    21    3   21 1  
    22    4   22 1  
    23    5   23 1  
    24    6   24 1  
    25    6   25 1  
    26    7   26 1  
    27    7   27 1  
    28    8   28 1  
    29    8   29 1  
    30    9   30 1  
    31    9   31 1  
    32   10   32 1  
    33   10   33 1  
    34   13   34 1  
    35   15   35 1  
    36   16   36 1  
    37   17   37 1  
    38   18   38 1  
    39   19   39 1  
@<TRIPOS>SUBSTRUCTURE
     1 9Z8         1

