### 
### Created by X-TOOL on Mon Sep 10 21:13:19 2018
### 

@<TRIPOS>MOLECULE
4cqg_ligand
   62    65     1     0     0
SMALL
GAST_HUCK


@<TRIPOS>ATOM
      1 C01         6.3310  -13.1830   35.2250 C.3       1 OT5        -0.0433
      2 N02         7.0430  -13.4300   34.0190 N.4       1 OT5         0.2311
      3 C03         7.6910  -12.1930   33.2510 C.3       1 OT5        -0.0295
      4 C04         7.1990  -11.6070   31.9250 C.3       1 OT5        -0.0006
      5 C05         8.6340  -11.2870   31.4900 C.3       1 OT5        -0.0432
      6 C06         8.7300  -10.1930   30.4660 C.3       1 OT5        -0.0287
      7 C07         8.0440   -8.9600   30.8840 C.3       1 OT5         0.0425
      8 C08         7.3780   -9.1440   32.2090 C.3       1 OT5        -0.0287
      9 C09         6.4560  -10.3330   32.1540 C.3       1 OT5        -0.0432
     10 N10         6.8130   -8.3820   30.1620 N.pl3     1 OT5        -0.2986
     11 C11         6.5990   -7.0890   29.3360 C.ar      1 OT5         0.1078
     12 C12         7.1670   -5.7720   29.3920 C.ar      1 OT5         0.0805
     13 C13         6.6020   -4.8740   28.4880 C.ar      1 OT5         0.0122
     14 N14         5.6130   -5.2010   27.6270 N.ar      1 OT5        -0.3075
     15 C15         5.0560   -6.4740   27.6040 C.ar      1 OT5         0.0589
     16 C16         5.5400   -7.3990   28.4540 C.ar      1 OT5         0.0995
     17 N17         5.0330   -8.6410   28.5050 N.ar      1 OT5        -0.2840
     18 C18         4.0770   -9.1110   27.7210 C.ar      1 OT5         0.0487
     19 C19         3.5150   -8.1750   26.8260 C.ar      1 OT5        -0.0246
     20 C20         4.0110   -6.8750   26.7690 C.ar      1 OT5        -0.0254
     21 C21         3.6520  -10.3880   27.9160 C.ar      1 OT5        -0.0070
     22 C22         4.4040  -11.3350   28.5750 C.ar      1 OT5        -0.0430
     23 C23         3.8970  -12.6020   28.8000 C.ar      1 OT5         0.0729
     24 CL4         4.8820  -13.8050   29.5690 Cl        1 OT5        -0.0775
     25 C25         2.6040  -12.9220   28.3880 C.ar      1 OT5         0.1208
     26 C26         1.8320  -11.9820   27.7570 C.ar      1 OT5         0.0729
     27 C27         2.3470  -10.7220   27.5430 C.ar      1 OT5        -0.0430
     28 CL8         0.2220  -12.3710   27.2540 Cl        1 OT5        -0.0775
     29 O29         2.0760  -14.1520   28.5840 O.3       1 OT5        -0.3284
     30 C30         8.2760   -5.2430   30.3000 C.2       1 OT5         0.1261
     31 O31         8.4960   -4.0210   30.3420 O.2       1 OT5        -0.3871
     32 C32         9.1420   -6.0930   31.2620 C.3       1 OT5         0.0085
     33 C33         6.3370  -14.3710   33.0340 C.3       1 OT5        -0.0433
     34 H           5.9497  -14.1333   35.6268 H         1 OT5         0.0777
     35 H           5.4879  -12.5065   35.0211 H         1 OT5         0.0777
     36 H           7.0047  -12.7182   35.9599 H         1 OT5         0.0777
     37 H           7.8422  -13.9562   34.3359 H         1 OT5         0.2028
     38 H           8.7374  -12.4800   33.0703 H         1 OT5         0.0817
     39 H           7.6581  -11.3582   33.9666 H         1 OT5         0.0817
     40 H           6.6427  -12.2995   31.2762 H         1 OT5         0.0352
     41 H           9.0786  -12.1990   31.0650 H         1 OT5         0.0270
     42 H           9.2051  -10.9804   32.3787 H         1 OT5         0.0270
     43 H           8.2759  -10.5476   29.5290 H         1 OT5         0.0288
     44 H           9.7921   -9.9637   30.2950 H         1 OT5         0.0288
     45 H           8.8209   -8.1827   30.9297 H         1 OT5         0.0566
     46 H           6.7975   -8.2425   32.4546 H         1 OT5         0.0288
     47 H           8.1424   -9.3099   32.9824 H         1 OT5         0.0288
     48 H           5.9126  -10.4053   33.1077 H         1 OT5         0.0270
     49 H           5.7383  -10.1880   31.3331 H         1 OT5         0.0270
     50 H           5.9697   -8.9676   30.2440 H         1 OT5         0.1891
     51 H           6.9767   -3.8569   28.4749 H         1 OT5         0.0860
     52 H           2.6948   -8.4691   26.1811 H         1 OT5         0.0729
     53 H           3.5815   -6.1671   26.0693 H         1 OT5         0.0755
     54 H           5.4009  -11.0855   28.9200 H         1 OT5         0.0630
     55 H           1.7236   -9.9700   27.0730 H         1 OT5         0.0630
     56 H           1.8543  -14.5377   27.7446 H         1 OT5         0.2508
     57 H           9.8569   -5.4407   31.7850 H         1 OT5         0.0446
     58 H           9.6917   -6.8523   30.6865 H         1 OT5         0.0446
     59 H           8.4927   -6.5897   31.9980 H         1 OT5         0.0446
     60 H           5.8979  -15.2159   33.5848 H         1 OT5         0.0777
     61 H           7.0657  -14.7495   32.3021 H         1 OT5         0.0777
     62 H           5.5412  -13.8223   32.5091 H         1 OT5         0.0777
@<TRIPOS>BOND
     1    1    2 1  
     2    2    3 1  
     3    2   33 1  
     4    3    4 1  
     5    4    5 1  
     6    4    9 1  
     7    5    6 1  
     8    6    7 1  
     9    7    8 1  
    10    7   10 1  
    11    8    9 1  
    12   10   11 1  
    13   11   12 ar 
    14   11   16 ar 
    15   12   13 ar 
    16   12   30 1  
    17   13   14 ar 
    18   14   15 ar 
    19   15   16 ar 
    20   15   20 ar 
    21   16   17 ar 
    22   17   18 ar 
    23   18   19 ar 
    24   18   21 1  
    25   19   20 ar 
    26   21   22 ar 
    27   21   27 ar 
    28   22   23 ar 
    29   23   24 1  
    30   23   25 ar 
    31   25   26 ar 
    32   25   29 1  
    33   26   27 ar 
    34   26   28 1  
    35   30   31 2  
    36   30   32 1  
    37    1   34 1  
    38    1   35 1  
    39    1   36 1  
    40    2   37 1  
    41    3   38 1  
    42    3   39 1  
    43    4   40 1  
    44    5   41 1  
    45    5   42 1  
    46    6   43 1  
    47    6   44 1  
    48    7   45 1  
    49    8   46 1  
    50    8   47 1  
    51    9   48 1  
    52    9   49 1  
    53   10   50 1  
    54   13   51 1  
    55   19   52 1  
    56   20   53 1  
    57   22   54 1  
    58   27   55 1  
    59   29   56 1  
    60   32   57 1  
    61   32   58 1  
    62   32   59 1  
    63   33   60 1  
    64   33   61 1  
    65   33   62 1  
@<TRIPOS>SUBSTRUCTURE
     1 OT5         1

