### 
### Created by X-TOOL on Mon Sep 10 21:13:24 2018
### 

@<TRIPOS>MOLECULE
4cr5_ligand
   18    19     1     0     0
SMALL
GAST_HUCK


@<TRIPOS>ATOM
      1 CL        -20.6930  -45.1470  -12.4050 Cl        1 0TU        -0.0819
      2 NAC       -19.1810  -50.7650  -11.4780 N.am      1 0TU        -0.2283
      3 CAA       -19.5240  -49.4240  -11.6910 C.ar      1 0TU         0.0895
      4 CAD       -18.5520  -48.4440  -11.6490 C.ar      1 0TU        -0.0313
      5 CAI       -18.9290  -47.1330  -11.8710 C.ar      1 0TU        -0.0558
      6 CAK       -20.2490  -46.8040  -12.1150 C.ar      1 0TU         0.0303
      7 CAF       -21.2170  -47.7870  -12.1330 C.ar      1 0TU        -0.0460
      8 CAB       -20.8440  -49.1010  -11.9210 C.ar      1 0TU         0.0129
      9 CAE       -21.8460  -50.1490  -11.9410 C.2       1 0TU        -0.0449
     10 CAJ       -21.5340  -51.4340  -11.7370 C.2       1 0TU         0.0072
     11 CAG       -20.1120  -51.7950  -11.4920 C.2       1 0TU         0.2064
     12 OAL       -19.8360  -52.9760  -11.3140 O.2       1 0TU        -0.4037
     13 H1        -18.2218  -50.9910  -11.3081 H         1 0TU         0.2376
     14 H2        -17.5175  -48.6970  -11.4467 H         1 0TU         0.0528
     15 H3        -18.1783  -46.3512  -11.8535 H         1 0TU         0.0618
     16 H4        -22.2556  -47.5324  -12.3109 H         1 0TU         0.0620
     17 H5        -22.8850  -49.8818  -12.1279 H         1 0TU         0.0722
     18 H6        -22.3067  -52.2012  -11.7501 H         1 0TU         0.0592
@<TRIPOS>BOND
     1    6    1 1  
     2    3    2 1  
     3    2   11 am 
     4    4    3 ar 
     5    3    8 ar 
     6    5    4 ar 
     7    5    6 ar 
     8    6    7 ar 
     9    7    8 ar 
    10    8    9 1  
    11    9   10 2  
    12   10   11 1  
    13   11   12 2  
    14    2   13 1  
    15    4   14 1  
    16    5   15 1  
    17    7   16 1  
    18    9   17 1  
    19   10   18 1  
@<TRIPOS>SUBSTRUCTURE
     1 0TU         1

