### 
### Created by X-TOOL on Mon Sep 10 21:13:23 2018
### 

@<TRIPOS>MOLECULE
4cra_ligand
   63    67     1     0     0
SMALL
GAST_HUCK


@<TRIPOS>ATOM
      1 C25       -26.4230  -55.5160   -9.7500 C.2       1 XJ8         0.1983
      2 O26       -25.5140  -56.2710  -10.0540 O.2       1 XJ8        -0.3908
      3 C27       -27.3000  -55.8380   -8.5920 C.ar      1 XJ8         0.0410
      4 C28       -28.5010  -55.1250   -8.4030 C.ar      1 XJ8        -0.0499
      5 C29       -29.3550  -55.4120   -7.3660 C.ar      1 XJ8        -0.0265
      6 C30       -29.0420  -56.4380   -6.4650 C.ar      1 XJ8         0.0961
      7 C31       -27.8420  -57.1810   -6.6550 C.ar      1 XJ8         0.0562
      8 C32       -26.9780  -56.8820   -7.7200 C.ar      1 XJ8        -0.0353
      9 C33       -27.5270  -58.2770   -5.7220 C.2       1 XJ8         0.1056
     10 C34       -28.4290  -58.5770   -4.7280 C.2       1 XJ8         0.0207
     11 C35       -29.6260  -57.8210   -4.5940 C.2       1 XJ8         0.1871
     12 O36       -30.4230  -58.0990   -3.6990 O.2       1 XJ8        -0.4174
     13 N37       -29.8970  -56.7770   -5.4240 N.am      1 XJ8        -0.2311
     14 O38       -26.3600  -58.9590   -5.8740 O.3       1 XJ8        -0.3234
     15 N24       -26.6940  -54.4240  -10.5000 N.am      1 XJ8        -0.2650
     16 C21       -25.9410  -54.0630  -11.7010 C.3       1 XJ8         0.1397
     17 C22       -25.1150  -52.8280  -11.5220 C.2       1 XJ8         0.2057
     18 O23       -25.2820  -52.1280  -10.5470 O.2       1 XJ8        -0.3942
     19 C20       -27.0000  -53.6640  -12.7420 C.3       1 XJ8         0.0213
     20 C17       -27.9180  -54.7840  -13.1970 C.ar      1 XJ8        -0.0386
     21 C16       -29.2910  -54.6450  -13.0220 C.ar      1 XJ8        -0.0601
     22 C18       -27.4020  -55.9220  -13.8290 C.ar      1 XJ8        -0.0601
     23 C15       -30.1500  -55.6580  -13.4420 C.ar      1 XJ8        -0.0686
     24 C19       -28.2570  -56.9380  -14.2570 C.ar      1 XJ8        -0.0686
     25 C14       -29.6310  -56.7960  -14.0600 C.ar      1 XJ8        -0.0687
     26 C1        -19.7300  -50.7950  -11.7610 C.ar      1 XJ8         0.0210
     27 C2        -19.2730  -52.1350  -11.6920 C.ar      1 XJ8        -0.0564
     28 C3        -20.1700  -53.1590  -11.8550 C.ar      1 XJ8        -0.0702
     29 C4        -21.5230  -52.8800  -12.0960 C.ar      1 XJ8        -0.0579
     30 C5        -21.9830  -51.5860  -12.1840 C.ar      1 XJ8        -0.0079
     31 C6        -21.1030  -50.5060  -12.0100 C.ar      1 XJ8         0.0045
     32 N7        -18.8830  -49.7830  -11.6020 N.ar      1 XJ8        -0.2956
     33 C8        -19.2740  -48.5250  -11.6580 C.ar      1 XJ8         0.1053
     34 C9        -20.6130  -48.1520  -11.9100 C.ar      1 XJ8        -0.0110
     35 N10       -18.2930  -47.5620  -11.4670 N.pl3     1 XJ8        -0.3194
     36 C11       -21.5440  -49.1460  -12.0820 C.ar      1 XJ8        -0.0406
     37 C12       -23.4340  -51.2820  -12.4190 C.3       1 XJ8         0.0677
     38 N13       -24.2460  -52.4930  -12.5020 N.am      1 XJ8        -0.2723
     39 H1        -28.7574  -54.3298   -9.0936 H         1 XJ8         0.0662
     40 H2        -30.2708  -54.8448   -7.2449 H         1 XJ8         0.0540
     41 H3        -26.0695  -57.4553   -7.8649 H         1 XJ8         0.0683
     42 H4        -28.2257  -59.3969   -4.0407 H         1 XJ8         0.0349
     43 H5        -30.7299  -56.2422   -5.2813 H         1 XJ8         0.2372
     44 H6        -25.8390  -58.8728   -5.0843 H         1 XJ8         0.2555
     45 H7        -27.4492  -53.8319  -10.2187 H         1 XJ8         0.1874
     46 H8        -25.3186  -54.9055  -12.0368 H         1 XJ8         0.0823
     47 H9        -26.4762  -53.2736  -13.6270 H         1 XJ8         0.0474
     48 H10       -27.6236  -52.8701  -12.3051 H         1 XJ8         0.0474
     49 H11       -29.6917  -53.7501  -12.5597 H         1 XJ8         0.0557
     50 H12       -26.3334  -56.0140  -13.9864 H         1 XJ8         0.0557
     51 H13       -31.2189  -55.5623  -13.2891 H         1 XJ8         0.0599
     52 H14       -27.8594  -57.8254  -14.7360 H         1 XJ8         0.0599
     53 H15       -30.3032  -57.5793  -14.3911 H         1 XJ8         0.0559
     54 H16       -18.2254  -52.3479  -11.5123 H         1 XJ8         0.0524
     55 H17       -19.8323  -54.1874  -11.7974 H         1 XJ8         0.0616
     56 H18       -22.2210  -53.7007  -12.2155 H         1 XJ8         0.0519
     57 H19       -20.8980  -47.1076  -11.9661 H         1 XJ8         0.0628
     58 H20       -18.5393  -46.5624  -11.4997 H         1 XJ8         0.1795
     59 H21       -17.3187  -47.8469  -11.2925 H         1 XJ8         0.1795
     60 H22       -22.5851  -48.9075  -12.2674 H         1 XJ8         0.0756
     61 H23       -23.5308  -50.7255  -13.3629 H         1 XJ8         0.0702
     62 H24       -23.8051  -50.6632  -11.5887 H         1 XJ8         0.0702
     63 H25       -24.1573  -53.0875  -13.3012 H         1 XJ8         0.1881
@<TRIPOS>BOND
     1    1    2 2  
     2    1    3 1  
     3   15    1 am 
     4    3    4 ar 
     5    3    8 ar 
     6    4    5 ar 
     7    5    6 ar 
     8    7    6 ar 
     9    6   13 1  
    10    8    7 ar 
    11    7    9 1  
    12    9   10 2  
    13    9   14 1  
    14   10   11 1  
    15   11   12 2  
    16   13   11 am 
    17   16   15 1  
    18   17   16 1  
    19   16   19 1  
    20   17   18 2  
    21   38   17 am 
    22   19   20 1  
    23   20   21 ar 
    24   20   22 ar 
    25   21   23 ar 
    26   22   24 ar 
    27   23   25 ar 
    28   24   25 ar 
    29   26   27 ar 
    30   31   26 ar 
    31   26   32 ar 
    32   28   27 ar 
    33   29   28 ar 
    34   30   29 ar 
    35   30   31 ar 
    36   37   30 1  
    37   31   36 ar 
    38   32   33 ar 
    39   34   33 ar 
    40   33   35 1  
    41   36   34 ar 
    42   37   38 1  
    43    4   39 1  
    44    5   40 1  
    45    8   41 1  
    46   10   42 1  
    47   13   43 1  
    48   14   44 1  
    49   15   45 1  
    50   16   46 1  
    51   19   47 1  
    52   19   48 1  
    53   21   49 1  
    54   22   50 1  
    55   23   51 1  
    56   24   52 1  
    57   25   53 1  
    58   27   54 1  
    59   28   55 1  
    60   29   56 1  
    61   34   57 1  
    62   35   58 1  
    63   35   59 1  
    64   36   60 1  
    65   37   61 1  
    66   37   62 1  
    67   38   63 1  
@<TRIPOS>SUBSTRUCTURE
     1 XJ8         1

