### 
### Created by X-TOOL on Mon Sep 10 21:13:23 2018
### 

@<TRIPOS>MOLECULE
4crb_ligand
   64    68     1     0     0
SMALL
GAST_HUCK


@<TRIPOS>ATOM
      1 C20        26.2000    9.5370   55.0110 C.2       1 7P0         0.1983
      2 O22        25.3570    9.9080   55.8240 O.2       1 7P0        -0.3908
      3 C21        27.1740    8.4730   55.3670 C.ar      1 7P0         0.0410
      4 C23        28.3860    8.3750   54.7050 C.ar      1 7P0        -0.0499
      5 C24        29.2700    7.3790   55.0660 C.ar      1 7P0        -0.0265
      6 C27        28.9450    6.4940   56.0840 C.ar      1 7P0         0.0961
      7 C26        27.7430    6.5930   56.7400 C.ar      1 7P0         0.0562
      8 C25        26.8570    7.5880   56.3810 C.ar      1 7P0        -0.0353
      9 C31        27.4610    5.6350   57.8180 C.2       1 7P0         0.1056
     10 C30        28.3190    4.6720   58.1800 C.2       1 7P0         0.0207
     11 C29        29.6090    4.5560   57.4780 C.2       1 7P0         0.1871
     12 O32        30.4060    3.6780   57.8010 O.2       1 7P0        -0.4174
     13 N28        29.8400    5.4800   56.4710 N.am      1 7P0        -0.2311
     14 O40        26.2580    5.7780   58.4400 O.3       1 7P0        -0.3234
     15 N19        26.3400   10.0950   53.7540 N.am      1 7P0        -0.2650
     16 C17        25.6060   11.2790   53.3790 C.3       1 7P0         0.1396
     17 C16        24.8570   10.8830   52.1290 C.2       1 7P0         0.2038
     18 O39        25.2390   10.0020   51.3770 O.2       1 7P0        -0.3943
     19 C18        26.5660   12.3950   53.0010 C.3       1 7P0         0.0213
     20 C33        27.5820   12.7140   54.0590 C.ar      1 7P0        -0.0386
     21 C34        27.1840   13.2180   55.2810 C.ar      1 7P0        -0.0601
     22 C38        28.9210   12.5150   53.8120 C.ar      1 7P0        -0.0601
     23 C35        28.1100   13.5210   56.2530 C.ar      1 7P0        -0.0686
     24 C37        29.8530   12.8100   54.7860 C.ar      1 7P0        -0.0686
     25 C36        29.4490   13.3140   56.0040 C.ar      1 7P0        -0.0687
     26 C1         18.6600   11.2170   48.9850 C.ar      1 7P0        -0.0288
     27 C2         18.8700   11.3940   47.6230 C.ar      1 7P0        -0.0579
     28 C3         20.0790   11.8940   47.1840 C.ar      1 7P0         0.0273
     29 C4         21.0630   12.2140   48.1020 C.ar      1 7P0        -0.0491
     30 C5         20.8720   12.0500   49.4640 C.ar      1 7P0        -0.0010
     31 C6         19.6540   11.5460   49.8970 C.ar      1 7P0         0.1292
     32 CL7        20.3650   12.1350   45.4710 Cl        1 7P0        -0.0782
     33 N8         19.4020   11.3720   51.2760 N.pl3     1 7P0        -0.0984
     34 C9         19.9170   10.4290   52.1240 C.2       1 7P0         0.1657
     35 N10        19.3750   10.5760   53.3200 N.2       1 7P0        -0.2078
     36 N11        18.5080   11.6310   53.1910 N.2       1 7P0        -0.1386
     37 N12        18.5170   12.1240   51.9570 N.2       1 7P0        -0.0500
     38 C13        21.9770   12.4320   50.4060 C.3       1 7P0         0.0023
     39 C14        22.8470   11.2630   50.7970 C.3       1 7P0         0.0398
     40 N15        23.7030   11.6050   51.9140 N.am      1 7P0        -0.2831
     41 H1         28.6372    9.0717   53.9134 H         1 7P0         0.0662
     42 H2         30.2206    7.2877   54.5531 H         1 7P0         0.0540
     43 H3         25.9075    7.6763   56.8966 H         1 7P0         0.0683
     44 H4         28.0658    3.9827   58.9841 H         1 7P0         0.0349
     45 H5         30.7102    5.4213   55.9817 H         1 7P0         0.2372
     46 H6         25.7515    4.9812   58.3345 H         1 7P0         0.2555
     47 H7         26.9601    9.6710   53.0939 H         1 7P0         0.1874
     48 H8         24.9267   11.6018   54.1817 H         1 7P0         0.0823
     49 H9         25.9785   13.3032   52.8013 H         1 7P0         0.0474
     50 H10        27.1008   12.0960   52.0875 H         1 7P0         0.0474
     51 H11        26.1298   13.3770   55.4773 H         1 7P0         0.0557
     52 H12        29.2436   12.1267   52.8527 H         1 7P0         0.0557
     53 H13        27.7879   13.9199   57.2081 H         1 7P0         0.0599
     54 H14        30.9068   12.6448   54.5927 H         1 7P0         0.0599
     55 H15        30.1846   13.5473   56.7653 H         1 7P0         0.0559
     56 H16        17.7150   10.8199   49.3376 H         1 7P0         0.0574
     57 H17        18.0916   11.1417   46.9120 H         1 7P0         0.0551
     58 H18        22.0096   12.6038   47.7457 H         1 7P0         0.0545
     59 H19        20.6567    9.6763   51.8553 H         1 7P0         0.1420
     60 H20        21.5302   12.8568   51.3170 H         1 7P0         0.0435
     61 H21        22.6071   13.1905   49.9185 H         1 7P0         0.0435
     62 H22        23.4726   10.9769   49.9386 H         1 7P0         0.0541
     63 H23        22.2053   10.4161   51.0815 H         1 7P0         0.0541
     64 H24        23.4587   12.3587   52.5241 H         1 7P0         0.1853
@<TRIPOS>BOND
     1    1    2 2  
     2    1    3 1  
     3   15    1 am 
     4    3    4 ar 
     5    3    8 ar 
     6    4    5 ar 
     7    5    6 ar 
     8    7    6 ar 
     9    6   13 1  
    10    8    7 ar 
    11    7    9 1  
    12    9   10 2  
    13    9   14 1  
    14   10   11 1  
    15   11   12 2  
    16   13   11 am 
    17   16   15 1  
    18   17   16 1  
    19   16   19 1  
    20   17   18 2  
    21   40   17 am 
    22   19   20 1  
    23   20   21 ar 
    24   20   22 ar 
    25   21   23 ar 
    26   22   24 ar 
    27   23   25 ar 
    28   24   25 ar 
    29   26   27 ar 
    30   31   26 ar 
    31   28   27 ar 
    32   29   28 ar 
    33   28   32 1  
    34   30   29 ar 
    35   30   31 ar 
    36   38   30 1  
    37   31   33 1  
    38   33   34 1  
    39   33   37 1  
    40   34   35 2  
    41   36   35 1  
    42   37   36 2  
    43   39   38 1  
    44   39   40 1  
    45    4   41 1  
    46    5   42 1  
    47    8   43 1  
    48   10   44 1  
    49   13   45 1  
    50   14   46 1  
    51   15   47 1  
    52   16   48 1  
    53   19   49 1  
    54   19   50 1  
    55   21   51 1  
    56   22   52 1  
    57   23   53 1  
    58   24   54 1  
    59   25   55 1  
    60   26   56 1  
    61   27   57 1  
    62   29   58 1  
    63   34   59 1  
    64   38   60 1  
    65   38   61 1  
    66   39   62 1  
    67   39   63 1  
    68   40   64 1  
@<TRIPOS>SUBSTRUCTURE
     1 7P0         1

