### 
### Created by X-TOOL on Mon Sep 10 21:13:23 2018
### 

@<TRIPOS>MOLECULE
4crc_ligand
   60    64     1     0     0
SMALL
GAST_HUCK


@<TRIPOS>ATOM
      1 C24       -49.6480  -10.0190  -23.1830 C.2       1 OTM         0.1908
      2 O25       -49.5490   -9.1530  -24.0370 O.2       1 OTM        -0.3927
      3 C26       -48.8370   -9.8910  -21.9370 C.2       1 OTM         0.0071
      4 C27       -48.9650  -10.7230  -20.8910 C.2       1 OTM        -0.0388
      5 C28       -48.1040  -10.4910  -19.7110 C.ar      1 OTM         0.0262
      6 C29       -46.7240  -10.5330  -19.8310 C.ar      1 OTM        -0.0382
      7 C30       -45.8880  -10.3210  -18.7440 C.ar      1 OTM         0.0380
      8 C31       -46.4330  -10.0600  -17.5000 C.ar      1 OTM        -0.0476
      9 C32       -47.8020  -10.0200  -17.3550 C.ar      1 OTM        -0.0176
     10 C33       -48.6190  -10.2320  -18.4510 C.ar      1 OTM         0.1410
     11 N34       -50.0050  -10.1780  -18.2410 N.pl3     1 OTM        -0.0913
     12 C35       -50.7520  -10.9460  -17.4020 C.2       1 OTM         0.1690
     13 N36       -52.0150  -10.6060  -17.5350 N.2       1 OTM        -0.2058
     14 N37       -52.0430   -9.6120  -18.4750 N.2       1 OTM        -0.1365
     15 N38       -50.8170   -9.3500  -18.9090 N.2       1 OTM        -0.0466
     16 CL        -44.1560  -10.3840  -18.9270 Cl        1 OTM        -0.0754
     17 N23       -50.4570  -11.1150  -23.3470 N.am      1 OTM        -0.2658
     18 C8        -51.1730  -11.2510  -24.6160 C.3       1 OTM         0.1454
     19 C9        -52.4350  -10.4130  -24.5540 C.2       1 OTM         0.2323
     20 O10       -53.2680  -10.5010  -23.6580 O.2       1 OTM        -0.3814
     21 C7        -51.5780  -12.7000  -24.8350 C.3       1 OTM         0.0218
     22 C4        -52.1550  -12.9720  -26.1910 C.ar      1 OTM        -0.0385
     23 C3        -53.2220  -13.8400  -26.2980 C.ar      1 OTM        -0.0601
     24 C5        -51.6520  -12.3940  -27.3410 C.ar      1 OTM        -0.0601
     25 C2        -53.7800  -14.1270  -27.5310 C.ar      1 OTM        -0.0686
     26 C6        -52.2010  -12.6760  -28.5760 C.ar      1 OTM        -0.0686
     27 C1        -53.2670  -13.5480  -28.6730 C.ar      1 OTM        -0.0687
     28 N11       -52.5270   -9.5740  -25.6500 N.am      1 OTM        -0.2303
     29 C12       -53.5330   -8.6130  -25.9140 C.ar      1 OTM         0.0689
     30 C13       -53.4560   -7.9090  -27.0930 C.ar      1 OTM        -0.0387
     31 C14       -54.3960   -6.9530  -27.4180 C.ar      1 OTM        -0.0641
     32 C15       -55.4370   -6.6920  -26.5470 C.ar      1 OTM        -0.0050
     33 C16       -55.5180   -7.4000  -25.3680 C.ar      1 OTM        -0.0641
     34 C17       -54.5820   -8.3620  -25.0490 C.ar      1 OTM        -0.0387
     35 C18       -56.4050   -5.6620  -26.8340 C.2       1 OTM         0.1370
     36 N19       -56.6930   -5.1960  -28.0820 N.2       1 OTM        -0.1524
     37 N20       -57.6210   -4.2340  -28.0010 N.pl3     1 OTM        -0.1076
     38 N21       -57.8840   -4.1100  -26.7060 N.2       1 OTM        -0.0541
     39 N22       -57.1390   -4.9880  -25.9730 N.2       1 OTM        -0.1795
     40 H1        -48.1073   -9.0852  -21.8731 H         1 OTM         0.0628
     41 H2        -49.6808  -11.5435  -20.9108 H         1 OTM         0.0739
     42 H3        -46.2854  -10.7372  -20.8011 H         1 OTM         0.0642
     43 H4        -45.7879   -9.8883  -16.6460 H         1 OTM         0.0635
     44 H5        -48.2390   -9.8225  -16.3828 H         1 OTM         0.0602
     45 H6        -50.3678  -11.7140  -16.7323 H         1 OTM         0.1430
     46 H7        -50.5541  -11.7983  -22.6233 H         1 OTM         0.1868
     47 H8        -50.5323  -10.9120  -25.4434 H         1 OTM         0.0827
     48 H9        -52.3307  -12.9671  -24.0787 H         1 OTM         0.0474
     49 H10       -50.6871  -13.3319  -24.7049 H         1 OTM         0.0474
     50 H11       -53.6279  -14.3025  -25.4056 H         1 OTM         0.0557
     51 H12       -50.8144  -11.7094  -27.2725 H         1 OTM         0.0557
     52 H13       -54.6210  -14.8074  -27.5997 H         1 OTM         0.0599
     53 H14       -51.7955  -12.2133  -29.4685 H         1 OTM         0.0599
     54 H15       -53.6983  -13.7763  -29.6410 H         1 OTM         0.0559
     55 H16       -51.8011   -9.6553  -26.3330 H         1 OTM         0.2274
     56 H17       -52.6415   -8.1091  -27.7797 H         1 OTM         0.0511
     57 H18       -54.3185   -6.4089  -28.3524 H         1 OTM         0.0591
     58 H19       -56.3306   -7.1979  -24.6796 H         1 OTM         0.0591
     59 H20       -54.6687   -8.9192  -24.1232 H         1 OTM         0.0511
     60 H21       -58.0409   -3.7036  -28.7777 H         1 OTM         0.2926
@<TRIPOS>BOND
     1    1    2 2  
     2    1    3 1  
     3    1   17 am 
     4    3    4 2  
     5    4    5 1  
     6    5    6 ar 
     7    5   10 ar 
     8    6    7 ar 
     9    7    8 ar 
    10    7   16 1  
    11    8    9 ar 
    12    9   10 ar 
    13   10   11 1  
    14   11   12 1  
    15   11   15 1  
    16   12   13 2  
    17   13   14 1  
    18   14   15 2  
    19   17   18 1  
    20   18   19 1  
    21   18   21 1  
    22   19   20 2  
    23   19   28 am 
    24   21   22 1  
    25   22   23 ar 
    26   22   24 ar 
    27   23   25 ar 
    28   24   26 ar 
    29   25   27 ar 
    30   26   27 ar 
    31   28   29 1  
    32   29   30 ar 
    33   29   34 ar 
    34   30   31 ar 
    35   31   32 ar 
    36   32   33 ar 
    37   32   35 1  
    38   33   34 ar 
    39   35   36 2  
    40   35   39 1  
    41   36   37 1  
    42   37   38 1  
    43   38   39 2  
    44    3   40 1  
    45    4   41 1  
    46    6   42 1  
    47    8   43 1  
    48    9   44 1  
    49   12   45 1  
    50   17   46 1  
    51   18   47 1  
    52   21   48 1  
    53   21   49 1  
    54   23   50 1  
    55   24   51 1  
    56   25   52 1  
    57   26   53 1  
    58   27   54 1  
    59   28   55 1  
    60   30   56 1  
    61   31   57 1  
    62   33   58 1  
    63   34   59 1  
    64   37   60 1  
@<TRIPOS>SUBSTRUCTURE
     1 OTM         1

