### 
### Created by X-TOOL on Mon Sep 10 21:13:24 2018
### 

@<TRIPOS>MOLECULE
4crd_ligand
   55    58     1     0     0
SMALL
GAST_HUCK


@<TRIPOS>ATOM
      1 C1        -28.7200  -54.6420   -7.9940 C.ar      1 OTJ        -0.0683
      2 C2        -27.0810  -56.1420   -7.1260 C.ar      1 OTJ        -0.0683
      3 C3        -18.6650  -48.7450  -10.5310 C.ar      1 OTJ        -0.0288
      4 C4        -29.5810  -55.0110   -6.9850 C.ar      1 OTJ        -0.0420
      5 C5        -27.9340  -56.5190   -6.0890 C.ar      1 OTJ        -0.0420
      6 C6        -18.7880  -47.3690  -10.6480 C.ar      1 OTJ        -0.0579
      7 C7        -21.0900  -47.6150  -11.3120 C.ar      1 OTJ        -0.0490
      8 C8        -18.7110  -51.6950  -11.3670 C.2       1 OTJ         0.1657
      9 C9        -27.4650  -55.2140   -8.0860 C.ar      1 OTJ        -0.0162
     10 C10       -20.9900  -48.9900  -11.2100 C.ar      1 OTJ        -0.0007
     11 C11       -19.7720  -49.5220  -10.8190 C.ar      1 OTJ         0.1293
     12 C12       -29.2010  -55.9470   -6.0450 C.ar      1 OTJ         0.0679
     13 C13       -19.9970  -46.8150  -11.0340 C.ar      1 OTJ         0.0273
     14 C14       -26.6170  -54.8020   -9.2100 C.2       1 OTJ         0.0756
     15 C15       -25.6130  -55.5300   -9.8050 C.2       1 OTJ         0.0724
     16 C16       -25.8020  -53.5970  -10.8050 C.2       1 OTJ         0.1362
     17 C17       -24.2570  -50.9040  -10.3800 C.2       1 OTJ         0.1802
     18 C18       -30.1150  -57.2880   -4.1790 C.2       1 OTJ         0.3504
     19 C19       -31.1040  -58.0850   -2.2570 C.3       1 OTJ         0.0668
     20 C20       -22.2070  -49.8260  -11.5270 C.3       1 OTJ        -0.0011
     21 C21       -25.5010  -52.5350  -11.7840 C.3       1 OTJ         0.1069
     22 C22       -22.9820  -50.0930  -10.2390 C.3       1 OTJ         0.0463
     23 N23       -18.8200  -52.9220  -10.9180 N.2       1 OTJ        -0.2078
     24 N24       -26.7230  -53.5940   -9.8510 N.pl3     1 OTJ        -0.2559
     25 N25       -19.8060  -52.9120   -9.9620 N.2       1 OTJ        -0.1386
     26 N26       -20.2870  -51.6720   -9.8360 N.2       1 OTJ        -0.0500
     27 N27       -25.1050  -54.7710  -10.8050 N.2       1 OTJ        -0.3196
     28 N28       -19.6110  -50.9150  -10.7020 N.pl3     1 OTJ        -0.0984
     29 N29       -30.1660  -56.2280   -5.0580 N.am      1 OTJ        -0.2090
     30 N30       -24.2910  -51.7770  -11.4370 N.am      1 OTJ        -0.2688
     31 O31       -25.1770  -50.8170   -9.5690 O.2       1 OTJ        -0.3967
     32 O32       -29.1900  -58.0850   -4.0230 O.2       1 OTJ        -0.3666
     33 O33       -31.2540  -57.3070   -3.4530 O.3       1 OTJ        -0.2622
     34 CL3       -20.1530  -45.1050  -11.1750 Cl        1 OTJ        -0.0782
     35 CL5       -24.9510  -57.1060   -9.5010 Cl        1 OTJ        -0.0904
     36 H1        -29.0280  -53.8987   -8.7204 H         1 OTJ         0.0562
     37 H2        -26.0931  -56.5844   -7.1845 H         1 OTJ         0.0562
     38 H3        -17.7295  -49.1979  -10.2231 H         1 OTJ         0.0574
     39 H4        -30.5661  -54.5623   -6.9285 H         1 OTJ         0.0503
     40 H5        -27.6190  -57.2363   -5.3398 H         1 OTJ         0.0503
     41 H6        -17.9394  -46.7281  -10.4377 H         1 OTJ         0.0551
     42 H7        -22.0285  -47.1624  -11.6110 H         1 OTJ         0.0545
     43 H8        -18.0206  -51.3567  -12.1383 H         1 OTJ         0.1420
     44 H9        -32.0488  -58.0773   -1.6937 H         1 OTJ         0.0575
     45 H10       -30.3040  -57.6540   -1.6371 H         1 OTJ         0.0575
     46 H11       -30.8443  -59.1202   -2.5231 H         1 OTJ         0.0575
     47 H12       -21.8914  -50.7815  -11.9712 H         1 OTJ         0.0440
     48 H13       -22.8496  -49.2857  -12.2377 H         1 OTJ         0.0440
     49 H14       -26.3530  -51.8404  -11.8243 H         1 OTJ         0.0763
     50 H15       -25.3570  -52.9964  -12.7721 H         1 OTJ         0.0763
     51 H16       -22.3146  -50.6336   -9.5518 H         1 OTJ         0.0524
     52 H17       -23.2497  -49.1203   -9.8007 H         1 OTJ         0.0524
     53 H18       -27.3857  -52.8358   -9.6345 H         1 OTJ         0.2348
     54 H19       -30.9492  -55.6100   -4.9899 H         1 OTJ         0.2283
     55 H20       -23.4665  -51.9017  -11.9889 H         1 OTJ         0.1885
@<TRIPOS>BOND
     1    1    4 ar 
     2    9    1 ar 
     3    2    5 ar 
     4    9    2 ar 
     5    3    6 ar 
     6   11    3 ar 
     7    4   12 ar 
     8    5   12 ar 
     9   13    6 ar 
    10   10    7 ar 
    11    7   13 ar 
    12    8   23 2  
    13   28    8 1  
    14   14    9 1  
    15   10   11 ar 
    16   20   10 1  
    17   11   28 1  
    18   12   29 1  
    19   13   34 1  
    20   15   14 2  
    21   24   14 1  
    22   27   15 1  
    23   15   35 1  
    24   21   16 1  
    25   16   24 1  
    26   16   27 2  
    27   17   22 1  
    28   30   17 am 
    29   17   31 2  
    30   29   18 am 
    31   18   32 2  
    32   18   33 1  
    33   33   19 1  
    34   22   20 1  
    35   21   30 1  
    36   23   25 1  
    37   25   26 2  
    38   26   28 1  
    39    1   36 1  
    40    2   37 1  
    41    3   38 1  
    42    4   39 1  
    43    5   40 1  
    44    6   41 1  
    45    7   42 1  
    46    8   43 1  
    47   19   44 1  
    48   19   45 1  
    49   19   46 1  
    50   20   47 1  
    51   20   48 1  
    52   21   49 1  
    53   21   50 1  
    54   22   51 1  
    55   22   52 1  
    56   24   53 1  
    57   29   54 1  
    58   30   55 1  
@<TRIPOS>SUBSTRUCTURE
     1 OTJ         1

