### 
### Created by X-TOOL on Mon Sep 10 21:13:23 2018
### 

@<TRIPOS>MOLECULE
4crf_ligand
   62    66     1     0     0
SMALL
GAST_HUCK


@<TRIPOS>ATOM
      1 C27        55.1080   26.2910    9.7460 C.2       1 R9B         0.1983
      2 O28        55.9030   25.4390   10.0890 O.2       1 R9B        -0.3908
      3 C15        55.5030   27.2100    8.6380 C.ar      1 R9B         0.0410
      4 C16        54.8530   28.4460    8.4840 C.ar      1 R9B        -0.0499
      5 C17        55.2240   29.2870    7.4800 C.ar      1 R9B        -0.0265
      6 C20        56.2730   28.9690    6.6110 C.ar      1 R9B         0.0961
      7 C19        56.9580   27.7580    6.7550 C.ar      1 R9B         0.0562
      8 C18        56.5580   26.8840    7.7700 C.ar      1 R9B        -0.0353
      9 C24        58.0870   27.4910    5.8130 C.2       1 R9B         0.1056
     10 C23        58.4050   28.4190    4.8420 C.2       1 R9B         0.0207
     11 C22        57.6600   29.6130    4.7530 C.2       1 R9B         0.1871
     12 O26        57.9350   30.4470    3.8980 O.2       1 R9B        -0.4174
     13 N21        56.6530   29.8500    5.6090 N.am      1 R9B        -0.2311
     14 O25        58.8320   26.3780    5.8830 O.3       1 R9B        -0.3234
     15 N29        53.9130   26.4090   10.3940 N.am      1 R9B        -0.2650
     16 C30        53.4960   25.5340   11.4910 C.3       1 R9B         0.1397
     17 C31        52.1850   24.8580   11.1870 C.2       1 R9B         0.2059
     18 O32        51.5720   25.0900   10.1570 O.2       1 R9B        -0.3942
     19 C33        53.2250   26.3830   12.7300 C.3       1 R9B         0.0213
     20 C34        54.1600   27.5380   12.8420 C.ar      1 R9B        -0.0386
     21 C35        53.7070   28.8010   12.4820 C.ar      1 R9B        -0.0601
     22 C39        55.4670   27.3270   13.2990 C.ar      1 R9B        -0.0601
     23 C36        54.5700   29.8810   12.5870 C.ar      1 R9B        -0.0686
     24 C38        56.3330   28.4050   13.4000 C.ar      1 R9B        -0.0686
     25 C37        55.8700   29.6710   13.0480 C.ar      1 R9B        -0.0687
     26 C1         49.0210   18.5070   11.3950 C.ar      1 R9B        -0.0313
     27 C2         47.7160   18.8800   11.6200 C.ar      1 R9B        -0.0557
     28 C3         47.4320   20.2050   11.9060 C.ar      1 R9B         0.0306
     29 C4         48.3940   21.1910   11.9750 C.ar      1 R9B        -0.0447
     30 CL5        45.7910   20.6150   12.1660 Cl        1 R9B        -0.0820
     31 C6         49.7200   20.8190   11.7500 C.ar      1 R9B         0.0220
     32 C7         50.0300   19.4710   11.4580 C.ar      1 R9B         0.0896
     33 N8         51.3480   19.0820   11.2930 N.am      1 R9B        -0.2317
     34 C9         52.3490   19.9880   11.4490 C.2       1 R9B         0.1921
     35 C10        52.0910   21.3830   11.6960 C.2       1 R9B         0.0008
     36 C11        50.8010   21.8220   11.8160 C.2       1 R9B        -0.0057
     37 O12        53.5070   19.6070   11.3370 O.2       1 R9B        -0.4130
     38 C13        50.4660   23.2800   12.0240 C.3       1 R9B         0.0698
     39 N14        51.6980   24.0230   12.1330 N.am      1 R9B        -0.2709
     40 H1         54.0574   28.7294    9.1635 H         1 R9B         0.0662
     41 H2         54.6947   30.2241    7.3510 H         1 R9B         0.0540
     42 H3         57.0717   25.9369    7.8894 H         1 R9B         0.0683
     43 H4         59.2246   28.2306    4.1502 H         1 R9B         0.0349
     44 H5         56.1491   30.7091    5.5193 H         1 R9B         0.2372
     45 H6         58.7739   25.9071    5.0600 H         1 R9B         0.2555
     46 H7         53.2876   27.1332   10.1035 H         1 R9B         0.1874
     47 H8         54.2788   24.7868   11.6883 H         1 R9B         0.0823
     48 H9         53.3362   25.7505   13.6231 H         1 R9B         0.0474
     49 H10        52.1951   26.7659   12.6777 H         1 R9B         0.0474
     50 H11        52.6933   28.9401   12.1241 H         1 R9B         0.0557
     51 H12        55.7980   26.3312   13.5709 H         1 R9B         0.0557
     52 H13        54.2388   30.8765   12.3142 H         1 R9B         0.0599
     53 H14        57.3507   28.2655   13.7462 H         1 R9B         0.0599
     54 H15        56.5401   30.5186   13.1349 H         1 R9B         0.0559
     55 H16        49.2640   17.4746   11.1709 H         1 R9B         0.0528
     56 H17        46.9198   18.1458   11.5740 H         1 R9B         0.0620
     57 H18        48.1293   22.2187   12.1962 H         1 R9B         0.0626
     58 H19        51.5638   18.1340   11.0589 H         1 R9B         0.2363
     59 H20        52.9186   22.0849   11.7868 H         1 R9B         0.0425
     60 H21        49.8792   23.3977   12.9469 H         1 R9B         0.0721
     61 H22        49.8830   23.6522   11.1687 H         1 R9B         0.0721
     62 H23        52.2321   23.9122   12.9712 H         1 R9B         0.1884
@<TRIPOS>BOND
     1    1    2 2  
     2    1    3 1  
     3   15    1 am 
     4    3    4 ar 
     5    3    8 ar 
     6    4    5 ar 
     7    5    6 ar 
     8    7    6 ar 
     9    6   13 1  
    10    8    7 ar 
    11    7    9 1  
    12    9   10 2  
    13    9   14 1  
    14   10   11 1  
    15   11   12 2  
    16   13   11 am 
    17   16   15 1  
    18   17   16 1  
    19   16   19 1  
    20   17   18 2  
    21   39   17 am 
    22   19   20 1  
    23   20   21 ar 
    24   20   22 ar 
    25   21   23 ar 
    26   22   24 ar 
    27   23   25 ar 
    28   24   25 ar 
    29   26   27 ar 
    30   32   26 ar 
    31   28   27 ar 
    32   29   28 ar 
    33   28   30 1  
    34   31   29 ar 
    35   31   32 ar 
    36   36   31 1  
    37   32   33 1  
    38   34   33 am 
    39   35   34 1  
    40   34   37 2  
    41   36   35 2  
    42   38   36 1  
    43   38   39 1  
    44    4   40 1  
    45    5   41 1  
    46    8   42 1  
    47   10   43 1  
    48   13   44 1  
    49   14   45 1  
    50   15   46 1  
    51   16   47 1  
    52   19   48 1  
    53   19   49 1  
    54   21   50 1  
    55   22   51 1  
    56   23   52 1  
    57   24   53 1  
    58   25   54 1  
    59   26   55 1  
    60   27   56 1  
    61   29   57 1  
    62   33   58 1  
    63   35   59 1  
    64   38   60 1  
    65   38   61 1  
    66   39   62 1  
@<TRIPOS>SUBSTRUCTURE
     1 R9B         1

