### 
### Created by X-TOOL on Mon Sep 10 21:13:21 2018
### 

@<TRIPOS>MOLECULE
4crj_ligand
   36    38     1     0     0
SMALL
GAST_HUCK


@<TRIPOS>ATOM
      1 C1         27.1510  -32.9300    1.9290 C.2       1 YH5         0.2348
      2 O1         26.5740  -31.9360    1.1910 O.2       1 YH5        -0.4066
      3 N1         28.3550  -31.4680    3.5690 N.pl3     1 YH5        -0.2479
      4 S1         29.9440  -30.7820    5.6780 S.3       1 YH5        -0.0226
      5 C10        34.8890  -32.0870    6.5380 C.ar      1 YH5        -0.0266
      6 C11        35.5290  -33.1740    5.9730 C.ar      1 YH5         0.0966
      7 C12        35.0220  -33.7420    4.8320 C.ar      1 YH5        -0.0266
      8 C13        33.8850  -33.2370    4.2480 C.ar      1 YH5        -0.0514
      9 C14        37.1230  -33.2280    7.6690 C.3       1 YH5         0.0608
     10 N2         29.2380  -33.1960    4.6820 N.2       1 YH5        -0.3089
     11 C2         27.9590  -32.6500    3.0070 C.2       1 YH5         0.1387
     12 O2         31.6530  -32.3700    3.1740 O.2       1 YH5        -0.3829
     13 N3         28.2990  -35.0000    3.3940 N.2       1 YH5        -0.3120
     14 C3         29.1160  -31.8420    4.5740 C.2       1 YH5         0.1813
     15 O3         36.6830  -33.7940    6.4460 O.3       1 YH5        -0.3175
     16 C4         28.4910  -33.7200    3.6770 C.2       1 YH5         0.0387
     17 N4         26.9370  -34.1990    1.5870 N.am      1 YH5        -0.1847
     18 C5         27.5120  -35.1550    2.3260 C.2       1 YH5         0.2253
     19 N5         27.2550  -36.4540    1.9420 N.pl3     1 YH5        -0.2837
     20 C6         31.3140  -30.4340    4.5420 C.3       1 YH5         0.0879
     21 C7         32.0340  -31.6920    4.1190 C.2       1 YH5         0.1375
     22 C8         33.2470  -32.1550    4.8120 C.ar      1 YH5         0.0223
     23 C9         33.7450  -31.5730    5.9590 C.ar      1 YH5        -0.0514
     24 H1         28.1141  -30.5108    3.2746 H         1 YH5         0.2321
     25 H2         35.2867  -31.6357    7.4398 H         1 YH5         0.0558
     26 H3         35.5217  -34.5953    4.3878 H         1 YH5         0.0558
     27 H4         33.4913  -33.6896    3.3451 H         1 YH5         0.0645
     28 H5         38.0335  -33.7452    8.0058 H         1 YH5         0.0580
     29 H6         36.3356  -33.3396    8.4290 H         1 YH5         0.0580
     30 H7         37.3414  -32.1601    7.5213 H         1 YH5         0.0580
     31 H8         26.3636  -34.4307    0.8012 H         1 YH5         0.2499
     32 H9         27.6669  -37.2377    2.4683 H         1 YH5         0.1881
     33 H10        26.6511  -36.6407    1.1288 H         1 YH5         0.1881
     34 H11        32.0304  -29.7670    5.0439 H         1 YH5         0.0630
     35 H12        30.9145  -29.9358    3.6464 H         1 YH5         0.0630
     36 H13        33.2434  -30.7202    6.4020 H         1 YH5         0.0645
@<TRIPOS>BOND
     1    1    2 2  
     2   11    1 1  
     3    1   17 am 
     4    3   11 1  
     5   14    3 1  
     6    4   14 1  
     7   20    4 1  
     8    6    5 ar 
     9    5   23 ar 
    10    7    6 ar 
    11    6   15 1  
    12    8    7 ar 
    13   22    8 ar 
    14   15    9 1  
    15   14   10 2  
    16   10   16 1  
    17   16   11 2  
    18   21   12 2  
    19   16   13 1  
    20   13   18 2  
    21   18   17 am 
    22   18   19 1  
    23   21   20 1  
    24   21   22 1  
    25   22   23 ar 
    26    3   24 1  
    27    5   25 1  
    28    7   26 1  
    29    8   27 1  
    30    9   28 1  
    31    9   29 1  
    32    9   30 1  
    33   17   31 1  
    34   19   32 1  
    35   19   33 1  
    36   20   34 1  
    37   20   35 1  
    38   23   36 1  
@<TRIPOS>SUBSTRUCTURE
     1 YH5         1

