### 
### Created by X-TOOL on Mon Sep 10 21:13:24 2018
### 

@<TRIPOS>MOLECULE
4crl_ligand
   72    78     1     0     0
SMALL
GAST_HUCK


@<TRIPOS>ATOM
      1 C1          2.2190   17.7910   -2.7150 C.3       1 C1I        -0.0430
      2 N2          2.8140   16.4630   -2.5380 N.4       1 C1I         0.2341
      3 C3          2.2750   15.8570   -1.3190 C.3       1 C1I        -0.0430
      4 C4          2.5760   15.6070   -3.7040 C.3       1 C1I        -0.0022
      5 C6          1.0770   15.4470   -3.8750 C.3       1 C1I        -0.0295
      6 C7          0.6930   14.6220   -5.0960 C.3       1 C1I         0.0132
      7 C8          0.7400   13.1060   -4.8800 C.3       1 C1I        -0.0823
      8 C9         -0.3630   12.6070   -5.8570 C.3       1 C1I        -0.0671
      9 C10        -1.0680   13.8740   -6.3710 C.3       1 C1I         0.0497
     10 O11        -0.7000   14.8810   -5.4100 O.3       1 C1I        -0.4896
     11 C12        -0.4060   14.3240   -7.6770 C.2       1 C1I         0.0450
     12 C13         0.9620   14.7900   -7.5340 C.2       1 C1I        -0.0055
     13 C14         1.5350   14.9600   -6.3070 C.2       1 C1I        -0.0260
     14 C15         2.9530   15.4280   -6.1810 C.3       1 C1I         0.1141
     15 O17         3.2900   16.2120   -7.3180 O.3       1 C1I        -0.3767
     16 C18         3.1680   16.2790   -4.9400 C.3       1 C1I         0.1313
     17 O20         4.5660   16.4470   -4.7470 O.3       1 C1I        -0.3815
     18 C21        -1.0280   14.3050   -8.8300 C.2       1 C1I         0.0296
     19 C22        -2.4450   13.8410   -9.0080 C.3       1 C1I         0.0475
     20 C23        -2.9670   13.0740   -7.8180 C.3       1 C1I         0.0085
     21 C24        -2.4470   11.6390   -7.8520 C.3       1 C1I        -0.0524
     22 C25        -4.4650   13.0780   -7.5710 C.3       1 C1I         0.0049
     23 C26        -4.5880   12.5110   -6.1400 C.3       1 C1I        -0.0396
     24 C27        -3.2750   12.9250   -5.4360 C.3       1 C1I        -0.0539
     25 C28        -2.5660   13.7780   -6.4940 C.3       1 C1I        -0.0304
     26 C29        -5.2740   12.3200   -8.5920 C.ar      1 C1I        -0.0323
     27 C30        -5.9290   11.1760   -8.2710 C.ar      1 C1I        -0.0458
     28 C31        -6.6850   10.5210   -9.2460 C.ar      1 C1I         0.0011
     29 C32        -7.3780    9.3340   -8.9880 C.ar      1 C1I         0.0159
     30 N33        -8.0750    8.7650   -9.9330 N.ar      1 C1I        -0.3004
     31 C34        -8.1600    9.2490  -11.1520 C.ar      1 C1I         0.0052
     32 C35        -7.5280   10.3940  -11.4980 C.ar      1 C1I        -0.0340
     33 C36        -6.7640   11.0680  -10.5420 C.ar      1 C1I        -0.0067
     34 C37        -6.0860   12.2510  -10.8340 C.ar      1 C1I        -0.0490
     35 C38        -5.3630   12.8560   -9.8650 C.ar      1 C1I        -0.0506
     36 H1          2.4173   18.4034   -1.8230 H         1 C1I         0.0777
     37 H2          1.1328   17.6903   -2.8565 H         1 C1I         0.0777
     38 H3          2.6604   18.2759   -3.5982 H         1 C1I         0.0777
     39 H4          3.8101   16.5715   -2.4285 H         1 C1I         0.2031
     40 H5          2.7170   14.8595   -1.1791 H         1 C1I         0.0777
     41 H6          1.1825   15.7648   -1.4075 H         1 C1I         0.0777
     42 H7          2.5207   16.4914   -0.4546 H         1 C1I         0.0777
     43 H8          3.0443   14.6231   -3.5539 H         1 C1I         0.0865
     44 H9          0.6286   16.4465   -3.9743 H         1 C1I         0.0162
     45 H10         0.6745   14.9519   -2.9789 H         1 C1I         0.0162
     46 H11         0.5010   12.8428   -3.8391 H         1 C1I         0.0099
     47 H12         1.7251   12.6946   -5.1453 H         1 C1I         0.0099
     48 H13        -1.0774   11.9578   -5.3296 H         1 C1I         0.0158
     49 H14         0.0877   12.0528   -6.6935 H         1 C1I         0.0158
     50 H15         1.5448   15.0091   -8.4275 H         1 C1I         0.1225
     51 H16         3.6125   14.5491   -6.1307 H         1 C1I         0.0786
     52 H17         4.1887   16.5101   -7.2407 H         1 C1I         0.2133
     53 H18         2.6912   17.2598   -5.0834 H         1 C1I         0.0700
     54 H19         4.9397   16.8787   -5.5062 H         1 C1I         0.2104
     55 H20        -0.4856   14.6456   -9.7108 H         1 C1I         0.1826
     56 H21        -2.4922   13.1897   -9.8932 H         1 C1I         0.0784
     57 H22        -3.0852   14.7215   -9.1660 H         1 C1I         0.0784
     58 H23        -2.8327   11.0885   -6.9812 H         1 C1I         0.0241
     59 H24        -1.3474   11.6466   -7.8232 H         1 C1I         0.0241
     60 H25        -2.7863   11.1478   -8.7759 H         1 C1I         0.0241
     61 H26        -4.8267   14.1168   -7.5813 H         1 C1I         0.0478
     62 H27        -4.6857   11.4156   -6.1644 H         1 C1I         0.0291
     63 H28        -5.4574   12.9453   -5.6247 H         1 C1I         0.0291
     64 H29        -2.6733   12.0427   -5.1724 H         1 C1I         0.0261
     65 H30        -3.4816   13.5123   -4.5291 H         1 C1I         0.0261
     66 H31        -2.9701   14.8007   -6.4664 H         1 C1I         0.0219
     67 H32        -5.8662   10.7737   -7.2664 H         1 C1I         0.0565
     68 H33        -7.3361    8.8861   -8.0018 H         1 C1I         0.0849
     69 H34        -8.7476    8.7208  -11.8941 H         1 C1I         0.0756
     70 H35        -7.6134   10.7842  -12.5057 H         1 C1I         0.0711
     71 H36        -6.1381   12.6811  -11.8277 H         1 C1I         0.0643
     72 H37        -4.8423   13.7798  -10.0896 H         1 C1I         0.0624
@<TRIPOS>BOND
     1    1    2 1  
     2    2    3 1  
     3    2    4 1  
     4    4    5 1  
     5    4   16 1  
     6    5    6 1  
     7    6    7 1  
     8    6   10 1  
     9    6   13 1  
    10    7    8 1  
    11    8    9 1  
    12    9   10 1  
    13    9   11 1  
    14    9   25 1  
    15   11   12 1  
    16   11   18 2  
    17   12   13 2  
    18   13   14 1  
    19   14   15 1  
    20   14   16 1  
    21   16   17 1  
    22   18   19 1  
    23   19   20 1  
    24   20   21 1  
    25   20   22 1  
    26   20   25 1  
    27   22   23 1  
    28   22   26 1  
    29   23   24 1  
    30   24   25 1  
    31   26   27 ar 
    32   26   35 ar 
    33   27   28 ar 
    34   28   29 ar 
    35   28   33 ar 
    36   29   30 ar 
    37   30   31 ar 
    38   31   32 ar 
    39   32   33 ar 
    40   33   34 ar 
    41   34   35 ar 
    42    1   36 1  
    43    1   37 1  
    44    1   38 1  
    45    2   39 1  
    46    3   40 1  
    47    3   41 1  
    48    3   42 1  
    49    4   43 1  
    50    5   44 1  
    51    5   45 1  
    52    7   46 1  
    53    7   47 1  
    54    8   48 1  
    55    8   49 1  
    56   12   50 1  
    57   14   51 1  
    58   15   52 1  
    59   16   53 1  
    60   17   54 1  
    61   18   55 1  
    62   19   56 1  
    63   19   57 1  
    64   21   58 1  
    65   21   59 1  
    66   21   60 1  
    67   22   61 1  
    68   23   62 1  
    69   23   63 1  
    70   24   64 1  
    71   24   65 1  
    72   25   66 1  
    73   27   67 1  
    74   29   68 1  
    75   31   69 1  
    76   32   70 1  
    77   34   71 1  
    78   35   72 1  
@<TRIPOS>SUBSTRUCTURE
     1 C1I         1

