### 
### Created by X-TOOL on Mon Sep 10 21:13:16 2018
### 

@<TRIPOS>MOLECULE
4csd_ligand
   26    26     1     0     0
SMALL
GAST_HUCK


@<TRIPOS>ATOM
      1 C1        -11.5430   -4.0470   40.8300 C.3       1 MFU         0.1875
      2 C2        -10.1290   -4.1620   41.3860 C.3       1 MFU         0.1341
      3 C3        -10.0740   -5.3310   42.3880 C.3       1 MFU         0.1140
      4 C4        -10.5610   -6.5770   41.6270 C.3       1 MFU         0.1095
      5 C5        -12.0180   -6.3720   41.1640 C.3       1 MFU         0.0873
      6 C6        -12.5970   -7.5710   40.4060 C.3       1 MFU        -0.0361
      7 O1        -12.4210   -3.6400   41.8820 O.3       1 MFU        -0.3520
      8 O2         -9.7610   -2.9190   41.9790 O.3       1 MFU        -0.3841
      9 O3         -8.7380   -5.4920   42.8800 O.3       1 MFU        -0.3864
     10 O4         -9.7590   -6.9010   40.4780 O.3       1 MFU        -0.3866
     11 O5        -12.0100   -5.2570   40.2510 O.3       1 MFU        -0.3431
     12 CM        -13.7810   -3.4560   41.5070 C.3       1 MFU         0.0395
     13 H         -11.5433   -3.2734   40.0480 H         1 MFU         0.0937
     14 H          -9.4326   -4.3757   40.5618 H         1 MFU         0.0671
     15 H         -10.7445   -5.1312   43.2368 H         1 MFU         0.0648
     16 H         -10.5250   -7.4303   42.3202 H         1 MFU         0.0646
     17 H         -12.6507   -6.1546   42.0372 H         1 MFU         0.0621
     18 H         -13.6334   -7.3517   40.1096 H         1 MFU         0.0255
     19 H         -12.5816   -8.4581   41.0562 H         1 MFU         0.0255
     20 H         -11.9919   -7.7640   39.5079 H         1 MFU         0.0255
     21 H         -10.3556   -2.7218   42.6932 H         1 MFU         0.2101
     22 H          -8.1491   -5.6440   42.1502 H         1 MFU         0.2100
     23 H          -8.8576   -7.0302   40.7486 H         1 MFU         0.2100
     24 H         -14.3649   -3.1454   42.3860 H         1 MFU         0.0525
     25 H         -14.1842   -4.4011   41.1143 H         1 MFU         0.0525
     26 H         -13.8455   -2.6792   40.7308 H         1 MFU         0.0525
@<TRIPOS>BOND
     1    1    2 1  
     2    1    7 1  
     3    1   11 1  
     4    2    3 1  
     5    2    8 1  
     6    3    4 1  
     7    3    9 1  
     8    4    5 1  
     9    4   10 1  
    10    5    6 1  
    11    5   11 1  
    12    7   12 1  
    13    1   13 1  
    14    2   14 1  
    15    3   15 1  
    16    4   16 1  
    17    5   17 1  
    18    6   18 1  
    19    6   19 1  
    20    6   20 1  
    21    8   21 1  
    22    9   22 1  
    23   10   23 1  
    24   12   24 1  
    25   12   25 1  
    26   12   26 1  
@<TRIPOS>SUBSTRUCTURE
     1 MFU         1

