### 
### Created by X-TOOL on Mon Sep 10 21:13:19 2018
### 

@<TRIPOS>MOLECULE
4csj_ligand
   60    63     1     0     0
SMALL
GAST_HUCK


@<TRIPOS>ATOM
      1 C1         32.3900   17.0130    7.2980 C.3       1 NN7        -0.0435
      2 C2         32.9430   18.2370    6.5560 C.3       1 NN7         0.0544
      3 C4         34.3840   18.6060    6.9710 C.3       1 NN7         0.0445
      4 N5         34.6050   18.6510    8.4280 N.pl3     1 NN7        -0.3195
      5 C6         34.2290   19.7150    9.2720 C.ar      1 NN7         0.0408
      6 C7         33.2770   20.6850    8.9400 C.ar      1 NN7        -0.0547
      7 C8         32.9000   21.6810    9.8370 C.ar      1 NN7        -0.0836
      8 C9         33.4910   21.7750   11.0770 C.ar      1 NN7        -0.0468
      9 C10        34.4610   20.8250   11.4400 C.ar      1 NN7         0.0966
     10 N11        35.2200   20.6280   12.5660 N.pl3     1 NN7        -0.1627
     11 N12        36.0250   19.5060   12.3570 N.2       1 NN7        -0.1982
     12 C13        35.8170   19.0070   11.1740 C.2       1 NN7         0.0186
     13 C14        34.8330   19.7930   10.5410 C.ar      1 NN7         0.0345
     14 C15        35.2240   21.4120   13.7330 C.ar      1 NN7         0.1005
     15 C16        34.0550   21.5820   14.4950 C.ar      1 NN7        -0.0303
     16 C17        34.1210   22.3580   15.6440 C.ar      1 NN7        -0.0339
     17 C18        35.3420   22.9000   16.0670 C.ar      1 NN7         0.1233
     18 F19        35.3700   23.6650   17.1750 F         1 NN7        -0.1905
     19 C20        36.5130   22.7020   15.3390 C.ar      1 NN7        -0.0339
     20 C21        36.4380   21.9640   14.1610 C.ar      1 NN7        -0.0303
     21 N22        32.9280   17.9220    5.1220 N.am      1 NN7        -0.2452
     22 S23        32.5330   19.0730    3.9980 S.o2      1 NN7         0.0604
     23 O24        32.7060   18.4430    2.7150 O.2       1 NN7        -0.1533
     24 O25        31.2490   19.5240    4.4230 O.2       1 NN7        -0.1533
     25 C26        33.6960   20.4350    4.1010 C.ar      1 NN7         0.1028
     26 C27        35.0650   20.2380    3.8180 C.ar      1 NN7        -0.0331
     27 C28        35.6490   18.9240    3.3790 C.3       1 NN7        -0.0324
     28 C29        35.9850   21.2710    3.9340 C.ar      1 NN7        -0.0647
     29 C30        35.5780   22.5240    4.3470 C.ar      1 NN7        -0.0594
     30 C31        36.5860   23.6440    4.4490 C.3       1 NN7        -0.0343
     31 C32        34.2330   22.7460    4.6020 C.ar      1 NN7        -0.0647
     32 C33        33.2950   21.7250    4.4880 C.ar      1 NN7        -0.0331
     33 C34        31.8870   22.0810    4.9090 C.3       1 NN7        -0.0324
     34 H          32.3854   17.2113    8.3800 H         1 NN7         0.0249
     35 H          33.0246   16.1394    7.0881 H         1 NN7         0.0249
     36 H          31.3636   16.8109    6.9580 H         1 NN7         0.0249
     37 H          32.2894   19.0991    6.7549 H         1 NN7         0.0528
     38 H          34.6182   19.5977    6.5567 H         1 NN7         0.0534
     39 H          35.0677   17.8586    6.5422 H         1 NN7         0.0534
     40 H          35.0705   17.8416    8.8629 H         1 NN7         0.1783
     41 H          32.8202   20.6605    7.9572 H         1 NN7         0.0410
     42 H          32.1313   22.3916    9.5554 H         1 NN7         0.0544
     43 H          33.2129   22.5682   11.7616 H         1 NN7         0.0439
     44 H          36.3145   18.1368   10.7483 H         1 NN7         0.0716
     45 H          33.1234   21.1177   14.1922 H         1 NN7         0.0561
     46 H          33.2212   22.5462   16.2184 H         1 NN7         0.0584
     47 H          37.4569   23.1114   15.6804 H         1 NN7         0.0584
     48 H          37.3320   21.8144   13.5665 H         1 NN7         0.0561
     49 H          33.1600   16.9977    4.8189 H         1 NN7         0.1673
     50 H          36.7322   19.0375    3.2248 H         1 NN7         0.0389
     51 H          35.1757   18.6086    2.4375 H         1 NN7         0.0389
     52 H          35.4665   18.1646    4.1535 H         1 NN7         0.0389
     53 H          37.0282   21.0930    3.6992 H         1 NN7         0.0439
     54 H          36.0826   24.5603    4.7911 H         1 NN7         0.0389
     55 H          37.0386   23.8210    3.4622 H         1 NN7         0.0389
     56 H          37.3709   23.3666    5.1680 H         1 NN7         0.0389
     57 H          33.9055   23.7365    4.8965 H         1 NN7         0.0439
     58 H          31.2330   21.2062    4.7784 H         1 NN7         0.0389
     59 H          31.5175   22.9108    4.2886 H         1 NN7         0.0389
     60 H          31.8861   22.3849    5.9662 H         1 NN7         0.0389
@<TRIPOS>BOND
     1    1    2 1  
     2    2    3 1  
     3    2   21 1  
     4    3    4 1  
     5    4    5 1  
     6    5    6 ar 
     7    5   13 ar 
     8    6    7 ar 
     9    7    8 ar 
    10    8    9 ar 
    11    9   10 1  
    12    9   13 ar 
    13   10   11 1  
    14   10   14 1  
    15   11   12 2  
    16   12   13 1  
    17   14   15 ar 
    18   14   20 ar 
    19   15   16 ar 
    20   16   17 ar 
    21   17   18 1  
    22   17   19 ar 
    23   19   20 ar 
    24   21   22 am 
    25   22   23 2  
    26   22   24 2  
    27   22   25 1  
    28   25   26 ar 
    29   25   32 ar 
    30   26   27 1  
    31   26   28 ar 
    32   28   29 ar 
    33   29   30 1  
    34   29   31 ar 
    35   31   32 ar 
    36   32   33 1  
    37    1   34 1  
    38    1   35 1  
    39    1   36 1  
    40    2   37 1  
    41    3   38 1  
    42    3   39 1  
    43    4   40 1  
    44    6   41 1  
    45    7   42 1  
    46    8   43 1  
    47   12   44 1  
    48   15   45 1  
    49   16   46 1  
    50   19   47 1  
    51   20   48 1  
    52   21   49 1  
    53   27   50 1  
    54   27   51 1  
    55   27   52 1  
    56   28   53 1  
    57   30   54 1  
    58   30   55 1  
    59   30   56 1  
    60   31   57 1  
    61   33   58 1  
    62   33   59 1  
    63   33   60 1  
@<TRIPOS>SUBSTRUCTURE
     1 NN7         1

