### 
### Created by X-TOOL on Mon Sep 10 21:13:20 2018
### 

@<TRIPOS>MOLECULE
4css_ligand
   52    54     1     0     0
SMALL
GAST_HUCK


@<TRIPOS>ATOM
      1 CAR       -13.0080   48.5820  -14.4280 C.3       1 CWX         0.0151
      2 NAQ       -13.5220   48.0940  -13.1920 N.am      1 CWX        -0.2506
      3 SAN       -12.9510   46.6680  -12.5390 S.o2      1 CWX         0.0673
      4 OAO       -13.1320   45.5670  -13.4750 O.2       1 CWX        -0.1505
      5 OAP       -13.6300   46.3930  -11.3040 O.2       1 CWX        -0.1505
      6 CAK       -11.2400   46.8230  -12.1820 C.ar      1 CWX         0.1066
      7 CAJ       -10.6290   48.0490  -12.1050 C.ar      1 CWX        -0.0363
      8 CAI        -9.2620   48.1300  -11.8140 C.ar      1 CWX        -0.0548
      9 CAL       -10.5030   45.6630  -11.9490 C.ar      1 CWX        -0.0363
     10 CAM        -9.1600   45.7450  -11.6540 C.ar      1 CWX        -0.0548
     11 CAH        -8.5140   46.9720  -11.5850 C.ar      1 CWX        -0.0246
     12 CAE        -7.0830   47.0360  -11.2690 C.ar      1 CWX        -0.0279
     13 CAD        -6.3940   48.2360  -11.3210 C.ar      1 CWX        -0.0616
     14 CAC        -5.0310   48.3000  -10.9930 C.ar      1 CWX        -0.0310
     15 CAF        -6.3920   45.8730  -10.9080 C.ar      1 CWX        -0.0616
     16 CAG        -5.0170   45.9230  -10.6050 C.ar      1 CWX        -0.0310
     17 CAB        -4.3570   47.1310  -10.6480 C.ar      1 CWX         0.0964
     18 O1         -2.9520   47.0830  -10.3410 O.3       1 CWX        -0.2838
     19 C1         -2.1910   48.1620  -10.1460 C.3       1 CWX         0.2101
     20 O5         -2.7110   49.1550   -9.2830 O.3       1 CWX        -0.3368
     21 C5         -2.9570   48.6090   -7.9470 C.3       1 CWX         0.1134
     22 C6         -3.4210   49.7480   -7.1150 C.3       1 CWX         0.0730
     23 O6         -2.4410   50.7640   -7.0260 O.3       1 CWX        -0.3924
     24 C4         -1.6990   48.0070   -7.3970 C.3       1 CWX         0.1119
     25 O4         -1.9750   47.3720   -6.1510 O.3       1 CWX        -0.3865
     26 C3         -1.1680   46.9980   -8.3580 C.3       1 CWX         0.1145
     27 O3          0.0660   46.4800   -7.8350 O.3       1 CWX        -0.3864
     28 C2         -0.9370   47.6220   -9.7170 C.3       1 CWX         0.1386
     29 O2          0.0430   48.6580   -9.6460 O.3       1 CWX        -0.3837
     30 H1        -13.5088   49.5268  -14.6859 H         1 CWX         0.0439
     31 H2        -13.1926   47.8412  -15.2199 H         1 CWX         0.0439
     32 H3        -11.9259   48.7548  -14.3325 H         1 CWX         0.0439
     33 H4        -14.2310   48.6103  -12.7116 H         1 CWX         0.1669
     34 H5        -11.2037   48.9533  -12.2692 H         1 CWX         0.0633
     35 H6         -8.7795   49.0995  -11.7659 H         1 CWX         0.0609
     36 H7        -10.9876   44.6947  -12.0000 H         1 CWX         0.0633
     37 H8         -8.5979   44.8360  -11.4726 H         1 CWX         0.0609
     38 H9         -6.9148   49.1387  -11.6193 H         1 CWX         0.0601
     39 H10        -4.5082   49.2495  -11.0080 H         1 CWX         0.0548
     40 H11        -6.9190   44.9269  -10.8613 H         1 CWX         0.0601
     41 H12        -4.4827   45.0178  -10.3401 H         1 CWX         0.0548
     42 H13        -2.0443   48.6529  -11.1194 H         1 CWX         0.0994
     43 H14        -3.7374   47.8351   -7.9912 H         1 CWX         0.0647
     44 H15        -3.6473   49.3813   -6.1029 H         1 CWX         0.0584
     45 H16        -4.3321   50.1699   -7.5644 H         1 CWX         0.0584
     46 H17        -2.7708   51.4743   -6.4882 H         1 CWX         0.2095
     47 H18        -0.9506   48.7990   -7.2463 H         1 CWX         0.0647
     48 H19        -2.3119   48.0142   -5.5373 H         1 CWX         0.2100
     49 H20        -1.8937   46.1778   -8.4610 H         1 CWX         0.0648
     50 H21         0.4177   45.8346   -8.4370 H         1 CWX         0.2100
     51 H22        -0.5974   46.8527  -10.4261 H         1 CWX         0.0675
     52 H23         0.8636   48.2952   -9.3338 H         1 CWX         0.2101
@<TRIPOS>BOND
     1    1    2 1  
     2    2    3 am 
     3    3    4 2  
     4    3    5 2  
     5    3    6 1  
     6    6    7 ar 
     7    6    9 ar 
     8    7    8 ar 
     9    8   11 ar 
    10    9   10 ar 
    11   10   11 ar 
    12   11   12 1  
    13   12   13 ar 
    14   12   15 ar 
    15   13   14 ar 
    16   14   17 ar 
    17   15   16 ar 
    18   16   17 ar 
    19   17   18 1  
    20   18   19 1  
    21   19   20 1  
    22   19   28 1  
    23   20   21 1  
    24   21   22 1  
    25   21   24 1  
    26   22   23 1  
    27   24   25 1  
    28   24   26 1  
    29   26   27 1  
    30   26   28 1  
    31   28   29 1  
    32    1   30 1  
    33    1   31 1  
    34    1   32 1  
    35    2   33 1  
    36    7   34 1  
    37    8   35 1  
    38    9   36 1  
    39   10   37 1  
    40   13   38 1  
    41   14   39 1  
    42   15   40 1  
    43   16   41 1  
    44   19   42 1  
    45   21   43 1  
    46   22   44 1  
    47   22   45 1  
    48   23   46 1  
    49   24   47 1  
    50   25   48 1  
    51   26   49 1  
    52   27   50 1  
    53   28   51 1  
    54   29   52 1  
@<TRIPOS>SUBSTRUCTURE
     1 CWX         1

