### 
### Created by X-TOOL on Mon Sep 10 21:13:20 2018
### 

@<TRIPOS>MOLECULE
4cst_ligand
   45    47     1     0     0
SMALL
GAST_HUCK


@<TRIPOS>ATOM
      1 CL         -4.8970   11.0660    9.9720 Cl        1 CWK        -0.0778
      2 C1         -2.2840    7.7420    9.9910 C.3       1 CWK         0.2106
      3 O1         -3.2850    8.7610   10.1170 O.3       1 CWK        -0.2819
      4 C2         -1.0590    8.4360    9.4920 C.3       1 CWK         0.1387
      5 O2         -0.0580    7.4400    9.4060 O.3       1 CWK        -0.3837
      6 C3         -1.3520    9.0460    8.0830 C.3       1 CWK         0.1145
      7 O3         -0.1020    9.5770    7.5710 O.3       1 CWK        -0.3864
      8 C4         -1.8310    7.9640    7.1420 C.3       1 CWK         0.1119
      9 O4         -2.1810    8.5860    5.8990 O.3       1 CWK        -0.3865
     10 C5         -3.0750    7.3380    7.7260 C.3       1 CWK         0.1134
     11 O5         -2.7840    6.7670    9.0220 O.3       1 CWK        -0.3367
     12 C6         -3.6180    6.1590    6.9000 C.3       1 CWK         0.0730
     13 O6         -2.6440    5.1300    6.7710 O.3       1 CWK        -0.3924
     14 CAA        -4.5400    8.4780   10.5450 C.ar      1 CWK         0.1123
     15 CAB        -4.9800    7.2470   11.0290 C.ar      1 CWK        -0.0288
     16 CAC        -6.3210    7.1370   11.4390 C.ar      1 CWK        -0.0592
     17 CAD        -7.1880    8.2380   11.3830 C.ar      1 CWK        -0.0219
     18 CAE        -6.7180    9.4470   10.9140 C.ar      1 CWK        -0.0453
     19 CAF        -5.3910    9.5720   10.5550 C.ar      1 CWK         0.0714
     20 CAG        -8.5590    8.1810   11.7790 C.ar      1 CWK        -0.0166
     21 CAH        -9.1640    7.0200   12.2430 C.ar      1 CWK        -0.0463
     22 CAI       -10.5130    7.0120   12.6150 C.ar      1 CWK        -0.0290
     23 CAJ       -11.2890    8.1450   12.5430 C.ar      1 CWK         0.0926
     24 CAK       -10.7210    9.3110   12.0980 C.ar      1 CWK        -0.0290
     25 CAL        -9.3820    9.3100   11.7310 C.ar      1 CWK        -0.0463
     26 CAN       -12.6810    8.1000   12.9420 C.1       1 CWK         0.0969
     27 NAO       -13.7860    8.0530   13.2610 N.1       1 CWK        -0.3314
     28 H1         -2.0841    7.2525   10.9556 H         1 CWK         0.0996
     29 H2         -0.7513    9.2319   10.1862 H         1 CWK         0.0675
     30 H3          0.7490    7.8300    9.0911 H         1 CWK         0.2101
     31 H4         -2.1079    9.8413    8.1610 H         1 CWK         0.0648
     32 H5          0.2226   10.2458    8.1625 H         1 CWK         0.2100
     33 H6         -1.0493    7.2049    6.9916 H         1 CWK         0.0647
     34 H7         -2.4858    7.9240    5.2897 H         1 CWK         0.2100
     35 H8         -3.8488    8.1147    7.8149 H         1 CWK         0.0647
     36 H9         -3.8939    6.5196    5.8981 H         1 CWK         0.0584
     37 H10        -4.5080    5.7499    7.4005 H         1 CWK         0.0584
     38 H11        -3.0048    4.4165    6.2580 H         1 CWK         0.2095
     39 H12        -4.3078    6.3986   11.0877 H         1 CWK         0.0552
     40 H13        -6.6904    6.1856   11.8043 H         1 CWK         0.0615
     41 H14        -7.3876   10.2951   10.8277 H         1 CWK         0.0618
     42 H15        -8.5833    6.1077   12.3180 H         1 CWK         0.0629
     43 H16       -10.9577    6.0890   12.9690 H         1 CWK         0.0710
     44 H17       -11.3085   10.2197   12.0337 H         1 CWK         0.0710
     45 H18        -8.9482   10.2416   11.3861 H         1 CWK         0.0629
@<TRIPOS>BOND
     1   19    1 1  
     2    3    2 1  
     3    2    4 1  
     4    2   11 1  
     5   14    3 1  
     6    4    5 1  
     7    4    6 1  
     8    6    7 1  
     9    6    8 1  
    10    8    9 1  
    11   10    8 1  
    12   11   10 1  
    13   10   12 1  
    14   12   13 1  
    15   14   15 ar 
    16   14   19 ar 
    17   15   16 ar 
    18   16   17 ar 
    19   17   18 ar 
    20   17   20 1  
    21   18   19 ar 
    22   20   21 ar 
    23   20   25 ar 
    24   21   22 ar 
    25   22   23 ar 
    26   23   24 ar 
    27   23   26 1  
    28   24   25 ar 
    29   26   27 3  
    30    2   28 1  
    31    4   29 1  
    32    5   30 1  
    33    6   31 1  
    34    7   32 1  
    35    8   33 1  
    36    9   34 1  
    37   10   35 1  
    38   12   36 1  
    39   12   37 1  
    40   13   38 1  
    41   15   39 1  
    42   16   40 1  
    43   18   41 1  
    44   21   42 1  
    45   22   43 1  
    46   24   44 1  
    47   25   45 1  
@<TRIPOS>SUBSTRUCTURE
     1 CWK         1

