### 
### Created by X-TOOL on Mon Sep 10 21:13:16 2018
### 

@<TRIPOS>MOLECULE
4ctj_ligand
   17    18     1     0     0
SMALL
GAST_HUCK


@<TRIPOS>ATOM
      1 C1         50.8830   49.2460   13.4720 C.2       1 3A9         0.0560
      2 O1         49.7560   49.5700   13.8680 O.co2     1 3A9        -0.5630
      3 C2         52.0400   49.1970   14.3190 C.ar      1 3A9        -0.0045
      4 O2         51.0180   48.8880   12.1810 O.co2     1 3A9        -0.5630
      5 C3         53.1670   48.4550   13.9610 C.ar      1 3A9        -0.0595
      6 O3         55.0510   49.0930   17.0680 O.3       1 3A9        -0.2555
      7 C4         54.2530   48.3660   14.8730 C.ar      1 3A9        -0.0278
      8 C5         54.1160   49.0710   16.0710 C.ar      1 3A9         0.1269
      9 C6         54.6090   49.9590   18.1390 C.2       1 3A9         0.0853
     10 C7         53.2010   50.5240   17.7200 C.2       1 3A9        -0.0457
     11 C8         52.9840   49.8270   16.4020 C.ar      1 3A9        -0.0073
     12 C9         51.9280   49.8850   15.5400 C.ar      1 3A9        -0.0563
     13 H          53.2130   47.9538   13.0009 H         1 3A9         0.0571
     14 H          55.1394   47.7828   14.6511 H         1 3A9         0.0568
     15 H          55.1477   50.1782   19.0597 H         1 3A9         0.1074
     16 H          52.5566   51.2294   18.2425 H         1 3A9         0.0344
     17 H          51.0324   50.4430   15.7883 H         1 3A9         0.0587
@<TRIPOS>BOND
     1    1    2 ar 
     2    3    1 1  
     3    1    4 ar 
     4    5    3 ar 
     5    3   12 ar 
     6    7    5 ar 
     7    8    6 1  
     8    6    9 1  
     9    7    8 ar 
    10    8   11 ar 
    11    9   10 2  
    12   10   11 1  
    13   11   12 ar 
    14    5   13 1  
    15    7   14 1  
    16    9   15 1  
    17   10   16 1  
    18   12   17 1  
@<TRIPOS>SUBSTRUCTURE
     1 3A9         1

