### 
### Created by X-TOOL on Mon Sep 10 21:13:17 2018
### 

@<TRIPOS>MOLECULE
4ctk_ligand
   15    16     1     0     0
SMALL
GAST_HUCK


@<TRIPOS>ATOM
      1 CAD        30.8150   52.8070   13.1050 C.2       1 SVN         0.0110
      2 SAG        31.1240   51.2360   12.5280 S.3       1 SVN        -0.0304
      3 CAI        30.6260   51.6890   10.9340 C.ar      1 SVN         0.1325
      4 NAE        30.6080   50.8620    9.8210 N.ar      1 SVN        -0.2640
      5 CAB        30.2240   51.4330    8.6410 C.ar      1 SVN         0.0313
      6 CAC        29.8610   52.8280    8.5550 C.ar      1 SVN         0.0290
      7 NAF        29.8550   53.6460    9.6560 N.ar      1 SVN        -0.2810
      8 CAJ        30.2360   53.0620   10.8550 C.ar      1 SVN         0.0989
      9 CAH        30.3420   53.6970   12.1680 C.2       1 SVN         0.0580
     10 NAA        29.9620   54.9840   12.3990 N.pl3     1 SVN        -0.3469
     11 H          30.9802   53.0885   14.1439 H         1 SVN         0.0585
     12 H          30.1909   50.8229    7.7456 H         1 SVN         0.0867
     13 H          29.5850   53.2411    7.5915 H         1 SVN         0.0864
     14 H          30.0560   55.3874   13.3421 H         1 SVN         0.1650
     15 H          29.5805   55.5542   11.6307 H         1 SVN         0.1650
@<TRIPOS>BOND
     1    1    2 1  
     2    1    9 2  
     3    2    3 1  
     4    3    4 ar 
     5    3    8 ar 
     6    4    5 ar 
     7    5    6 ar 
     8    6    7 ar 
     9    7    8 ar 
    10    8    9 1  
    11    9   10 1  
    12    1   11 1  
    13    5   12 1  
    14    6   13 1  
    15   10   14 1  
    16   10   15 1  
@<TRIPOS>SUBSTRUCTURE
     1 SVN         1

