### 
### Created by X-TOOL on Mon Sep 10 21:12:44 2018
### 

@<TRIPOS>MOLECULE
4cts_ligand
   11    10     1     0     0
SMALL
GAST_HUCK


@<TRIPOS>ATOM
      1 O1         38.4610   -5.8280   14.9780 O.co2     1 OAA        -0.5660
      2 O2         39.6670   -5.6000   13.2340 O.co2     1 OAA        -0.5660
      3 O4         37.7070   -2.2540   15.7720 O.co2     1 OAA        -0.5464
      4 O5         35.5230   -2.5510   15.7930 O.co2     1 OAA        -0.5464
      5 O3         35.7300   -4.2370   13.8360 O.2       1 OAA        -0.3553
      6 C1         38.6260   -5.3030   13.8580 C.2       1 OAA         0.0534
      7 C2         38.0910   -3.9070   13.6300 C.3       1 OAA         0.0832
      8 C3         36.7640   -3.7340   14.3160 C.2       1 OAA         0.1844
      9 C4         36.6690   -2.8530   15.3500 C.2       1 OAA         0.1266
     10 H1         37.9650   -3.7393   12.5502 H         1 OAA         0.0662
     11 H2         38.8056   -3.1748   14.0339 H         1 OAA         0.0662
@<TRIPOS>BOND
     1    6    1 ar 
     2    6    2 ar 
     3    9    3 ar 
     4    9    4 ar 
     5    8    5 2  
     6    7    6 1  
     7    8    7 1  
     8    8    9 1  
     9    7   10 1  
    10    7   11 1  
@<TRIPOS>SUBSTRUCTURE
     1 OAA         1

