### 
### Created by X-TOOL on Mon Sep 10 21:13:17 2018
### 

@<TRIPOS>MOLECULE
4cu1_ligand
   55    57     1     0     0
SMALL
GAST_HUCK


@<TRIPOS>ATOM
      1 N22        17.7560   14.5900   34.0380 N.pl3     1 71S        -0.3255
      2 C22        17.2600   14.7250   35.2900 C.ar      1 71S         0.0910
      3 C23        18.0480   15.2480   36.3300 C.ar      1 71S        -0.0244
      4 C24        17.5060   15.3710   37.6190 C.ar      1 71S        -0.0461
      5 C27        18.3230   15.9320   38.7560 C.3       1 71S        -0.0289
      6 C25        16.1900   14.9670   37.8410 C.ar      1 71S        -0.0463
      7 N21        15.9800   14.3430   35.5290 N.ar      1 71S        -0.2959
      8 C26        15.4480   14.4640   36.7660 C.ar      1 71S         0.0076
      9 C28        14.0370   14.0090   36.9660 C.3       1 71S         0.0094
     10 C29        13.0350   15.1490   37.0350 C.3       1 71S         0.0498
     11 C15        12.2280   15.2370   35.7850 C.ar      1 71S        -0.0047
     12 C14        11.9910   16.5300   35.3290 C.ar      1 71S         0.0133
     13 N18        10.7980   15.3880   38.3660 N.4       1 71S         0.2204
     14 C12        10.7360   15.7180   33.5430 C.ar      1 71S         0.0127
     15 C16        11.7040   14.1190   35.0810 C.ar      1 71S        -0.0329
     16 C11        10.9340   14.3910   33.9380 C.ar      1 71S        -0.0008
     17 C09        10.2900   13.3700   33.0810 C.2       1 71S        -0.0431
     18 C08         8.9650   13.4720   32.8680 C.2       1 71S        -0.0400
     19 C06         8.1630   12.5560   31.9940 C.ar      1 71S         0.0211
     20 N01         6.8200   12.4890   32.1660 N.ar      1 71S        -0.2945
     21 C02         6.0300   11.7360   31.3820 C.ar      1 71S         0.0969
     22 N02         4.7050   11.7340   31.6450 N.pl3     1 71S        -0.3241
     23 C03         6.5580   10.9900   30.3250 C.ar      1 71S        -0.0172
     24 C04         7.9470   11.0310   30.1200 C.ar      1 71S        -0.0386
     25 C05         8.7440   11.8330   30.9580 C.ar      1 71S        -0.0413
     26 C07         8.5810   10.2410   28.9950 C.3       1 71S        -0.0275
     27 C18        12.1660   14.8410   38.2600 C.3       1 71S        -0.0198
     28 N11        11.2520   16.7450   34.2370 N.ar      1 71S        -0.3026
     29 H          18.7250   14.8737   33.8346 H         1 71S         0.1762
     30 H          17.1644   14.2035   33.2886 H         1 71S         0.1762
     31 H          19.0696   15.5549   36.1374 H         1 71S         0.0482
     32 H          17.7161   15.9423   39.6734 H         1 71S         0.0411
     33 H          18.6355   16.9580   38.5117 H         1 71S         0.0411
     34 H          19.2131   15.3049   38.9123 H         1 71S         0.0411
     35 H          15.7494   15.0412   38.8286 H         1 71S         0.0475
     36 H          13.9843   13.4422   37.9072 H         1 71S         0.0479
     37 H          13.7607   13.3533   36.1271 H         1 71S         0.0479
     38 H          13.5612   16.1039   37.1811 H         1 71S         0.0553
     39 H          12.4109   17.3728   35.8661 H         1 71S         0.0765
     40 H          10.3805   15.0833   39.2314 H         1 71S         0.1996
     41 H          10.2435   15.0588   37.5912 H         1 71S         0.1996
     42 H          10.8365   16.3951   38.3478 H         1 71S         0.1996
     43 H          10.1509   15.9226   32.6537 H         1 71S         0.0785
     44 H          11.8900   13.1033   35.4109 H         1 71S         0.0682
     45 H          10.8699   12.5622   32.6371 H         1 71S         0.0685
     46 H           8.4356   14.2814   33.3686 H         1 71S         0.0658
     47 H           4.0661   11.1697   31.0669 H         1 71S         0.1764
     48 H           4.3337   12.2968   32.4237 H         1 71S         0.1764
     49 H           5.9156   10.3980   29.6832 H         1 71S         0.0542
     50 H           9.8143   11.8873   30.7953 H         1 71S         0.0549
     51 H           7.8025    9.6807   28.4564 H         1 71S         0.0411
     52 H           9.3177    9.5377   29.4106 H         1 71S         0.0411
     53 H           9.0834   10.9304   28.3005 H         1 71S         0.0411
     54 H          12.7195   15.2045   39.1384 H         1 71S         0.0843
     55 H          12.0725   13.7463   38.3127 H         1 71S         0.0843
@<TRIPOS>BOND
     1    2    1 1  
     2    2    3 ar 
     3    7    2 ar 
     4    4    3 ar 
     5    4    5 1  
     6    6    4 ar 
     7    8    6 ar 
     8    8    7 ar 
     9    9    8 1  
    10   10    9 1  
    11   11   10 1  
    12   10   27 1  
    13   12   11 ar 
    14   11   15 ar 
    15   28   12 ar 
    16   27   13 1  
    17   14   16 ar 
    18   14   28 ar 
    19   15   16 ar 
    20   16   17 1  
    21   17   18 2  
    22   18   19 1  
    23   19   20 ar 
    24   19   25 ar 
    25   20   21 ar 
    26   21   22 1  
    27   21   23 ar 
    28   23   24 ar 
    29   24   25 ar 
    30   24   26 1  
    31    1   29 1  
    32    1   30 1  
    33    3   31 1  
    34    5   32 1  
    35    5   33 1  
    36    5   34 1  
    37    6   35 1  
    38    9   36 1  
    39    9   37 1  
    40   10   38 1  
    41   12   39 1  
    42   13   40 1  
    43   13   41 1  
    44   13   42 1  
    45   14   43 1  
    46   15   44 1  
    47   17   45 1  
    48   18   46 1  
    49   22   47 1  
    50   22   48 1  
    51   23   49 1  
    52   25   50 1  
    53   26   51 1  
    54   26   52 1  
    55   26   53 1  
    56   27   54 1  
    57   27   55 1  
@<TRIPOS>SUBSTRUCTURE
     1 71S         1

