### 
### Created by X-TOOL on Mon Sep 10 21:13:16 2018
### 

@<TRIPOS>MOLECULE
4cu7_ligand
   24    24     1     0     0
SMALL
GAST_HUCK


@<TRIPOS>ATOM
      1 C          97.7760   12.9180    8.2260 C.3       1 GIF        -0.0045
      2 N          98.1620   11.5050    8.2510 N.4       1 GIF         0.2292
      3 O          99.1260    9.2300    4.6450 O.3       1 GIF        -0.3945
      4 C1         97.1350   13.2520    6.8730 C.3       1 GIF         0.1209
      5 O1         99.2670   13.4340    5.6210 O.3       1 GIF        -0.3885
      6 C2         97.9920   12.7470    5.6820 C.3       1 GIF         0.0958
      7 O2         96.9120   14.6650    6.7860 O.3       1 GIF        -0.3839
      8 C3         98.1890   11.2460    5.7880 C.3       1 GIF         0.0507
      9 C4         98.9110   10.9610    7.1120 C.3       1 GIF        -0.0261
     10 C5         98.9400   10.6710    4.5760 C.3       1 GIF         0.0543
     11 H          98.6685   13.5441    8.3728 H         1 GIF         0.0840
     12 H          97.0536   13.1146    9.0319 H         1 GIF         0.0840
     13 H          97.3138   10.9667    8.3331 H         1 GIF         0.2014
     14 H          98.7289   11.3663    9.0728 H         1 GIF         0.2014
     15 H          98.2779    8.8039    4.6852 H         1 GIF         0.2094
     16 H          96.1598   12.7455    6.8230 H         1 GIF         0.0673
     17 H          99.7680   13.1046    4.8841 H         1 GIF         0.2099
     18 H          97.4462   12.9590    4.7508 H         1 GIF         0.0626
     19 H          96.3862   14.9476    7.5251 H         1 GIF         0.2101
     20 H          97.1994   10.7669    5.8221 H         1 GIF         0.0401
     21 H          99.0151    9.8731    7.2373 H         1 GIF         0.0818
     22 H          99.9084   11.4240    7.0840 H         1 GIF         0.0818
     23 H          98.3672   10.9060    3.6668 H         1 GIF         0.0562
     24 H          99.9294   11.1485    4.5197 H         1 GIF         0.0562
@<TRIPOS>BOND
     1    2    1 1  
     2    4    1 1  
     3    9    2 1  
     4   10    3 1  
     5    6    4 1  
     6    4    7 1  
     7    6    5 1  
     8    8    6 1  
     9    8    9 1  
    10    8   10 1  
    11    1   11 1  
    12    1   12 1  
    13    2   13 1  
    14    2   14 1  
    15    3   15 1  
    16    4   16 1  
    17    5   17 1  
    18    6   18 1  
    19    7   19 1  
    20    8   20 1  
    21    9   21 1  
    22    9   22 1  
    23   10   23 1  
    24   10   24 1  
@<TRIPOS>SUBSTRUCTURE
     1 GIF         1

