### 
### Created by X-TOOL on Mon Sep 10 21:13:17 2018
### 

@<TRIPOS>MOLECULE
4cu8_ligand
   25    25     1     0     0
SMALL
GAST_HUCK


@<TRIPOS>ATOM
      1 C1         40.0920  -46.8890    8.2510 C.3       1 DGJ        -0.0040
      2 C2         39.6020  -45.4640    8.1750 C.3       1 DGJ         0.1231
      3 O2         38.8340  -45.2390    9.3100 O.3       1 DGJ        -0.3838
      4 C3         38.7260  -45.2240    6.9050 C.3       1 DGJ         0.1171
      5 O3         38.3840  -43.8020    6.7500 O.3       1 DGJ        -0.3862
      6 C4         39.5190  -45.6670    5.6890 C.3       1 DGJ         0.1280
      7 O4         40.7700  -44.9250    5.6490 O.3       1 DGJ        -0.3835
      8 C5         39.8190  -47.1320    5.8650 C.3       1 DGJ         0.0301
      9 N5         40.7470  -47.3100    6.9970 N.4       1 DGJ         0.2346
     10 C6         40.3710  -47.7350    4.5830 C.3       1 DGJ         0.0893
     11 O6         40.5620  -49.1450    4.8150 O.3       1 DGJ        -0.3894
     12 H          39.2348  -47.5506    8.4447 H         1 DGJ         0.0840
     13 H          40.8145  -46.9738    9.0761 H         1 DGJ         0.0840
     14 H          40.4613  -44.7776    8.1569 H         1 DGJ         0.0674
     15 H          38.1033  -45.8460    9.3220 H         1 DGJ         0.2101
     16 H          37.8007  -45.8136    6.9838 H         1 DGJ         0.0649
     17 H          37.8979  -43.5095    7.5119 H         1 DGJ         0.2100
     18 H          38.9445  -45.4969    4.7665 H         1 DGJ         0.0678
     19 H          41.2735  -45.1960    4.8903 H         1 DGJ         0.2102
     20 H          38.8797  -47.6514    6.1055 H         1 DGJ         0.0900
     21 H          41.0087  -48.2810    7.0657 H         1 DGJ         0.2019
     22 H          41.5711  -46.7498    6.8454 H         1 DGJ         0.2019
     23 H          41.3314  -47.2627    4.3288 H         1 DGJ         0.0614
     24 H          39.6582  -47.5831    3.7591 H         1 DGJ         0.0614
     25 H          39.7291  -49.5437    5.0384 H         1 DGJ         0.2097
@<TRIPOS>BOND
     1    1    2 1  
     2    1    9 1  
     3    2    3 1  
     4    2    4 1  
     5    4    5 1  
     6    4    6 1  
     7    6    7 1  
     8    6    8 1  
     9    8    9 1  
    10    8   10 1  
    11   10   11 1  
    12    1   12 1  
    13    1   13 1  
    14    2   14 1  
    15    3   15 1  
    16    4   16 1  
    17    5   17 1  
    18    6   18 1  
    19    7   19 1  
    20    8   20 1  
    21    9   21 1  
    22    9   22 1  
    23   10   23 1  
    24   10   24 1  
    25   11   25 1  
@<TRIPOS>SUBSTRUCTURE
     1 DGJ         1

