### 
### Created by X-TOOL on Mon Sep 10 21:13:21 2018
### 

@<TRIPOS>MOLECULE
4cwb_ligand
   43    46     1     0     0
SMALL
GAST_HUCK


@<TRIPOS>ATOM
      1 C22        49.3740  -16.2940  -24.3440 C.ar      1 X6L        -0.0611
      2 C21        49.5910  -15.1830  -23.5650 C.ar      1 X6L        -0.0605
      3 C23        48.0980  -16.5490  -24.7740 C.ar      1 X6L        -0.0605
      4 C20        48.5420  -14.3590  -23.2230 C.ar      1 X6L        -0.0530
      5 C24        47.0540  -15.7230  -24.4330 C.ar      1 X6L        -0.0530
      6 C15        45.0030  -13.6530  -24.0900 C.ar      1 X6L        -0.0486
      7 C17        46.0160  -13.2210  -22.0010 C.ar      1 X6L        -0.0486
      8 C14        43.8780  -12.9740  -23.6720 C.ar      1 X6L        -0.0429
      9 C18        44.8980  -12.5540  -21.5740 C.ar      1 X6L        -0.0429
     10 C19        47.2570  -14.5980  -23.6490 C.ar      1 X6L        -0.0151
     11 C16        46.0960  -13.7960  -23.2660 C.ar      1 X6L        -0.0137
     12 C13        43.8150  -12.4270  -22.4140 C.ar      1 X6L         0.0332
     13 C5         42.9660   -7.7650  -20.7360 C.2       1 X6L         0.3016
     14 C4         44.1610   -7.7540  -21.3740 C.2       1 X6L         0.2583
     15 C7         42.6840   -8.9000  -22.4900 C.2       1 X6L         0.2590
     16 C25        42.8470   -7.0360  -19.5050 C.2       1 X6L         0.3013
     17 C2         45.1880   -6.4850  -19.9270 C.cat     1 X6L         0.1928
     18 C11        42.6040  -11.7390  -21.9330 C.2       1 X6L         0.1469
     19 C10        41.5260  -11.2600  -22.8510 C.3       1 X6L         0.1009
     20 N6         42.0260   -8.4920  -21.4310 N.pl3     1 X6L        -0.1498
     21 N3         45.3020   -7.1510  -21.0400 N.pl3     1 X6L        -0.2262
     22 N8         43.9870   -8.5100  -22.5010 N.2       1 X6L        -0.1891
     23 N27        44.0420   -6.4130  -19.1770 N.am      1 X6L        -0.2440
     24 N1         46.2120   -5.7790  -19.4080 N.pl3     1 X6L        -0.3352
     25 O26        41.8450   -6.9520  -18.8260 O.2       1 X6L        -0.3429
     26 O12        42.4360  -11.5760  -20.7470 O.2       1 X6L        -0.3776
     27 S9         42.0550   -9.8560  -23.8120 S.3       1 X6L         0.0262
     28 H1         50.1922  -16.9527  -24.6119 H         1 X6L         0.0623
     29 H2         50.5922  -14.9542  -23.2182 H         1 X6L         0.0619
     30 H3         47.9088  -17.4177  -25.3942 H         1 X6L         0.0619
     31 H4         48.7356  -13.4946  -22.5982 H         1 X6L         0.0630
     32 H5         46.0547  -15.9552  -24.7831 H         1 X6L         0.0630
     33 H6         45.0269  -14.0818  -25.0853 H         1 X6L         0.0634
     34 H7         46.8652  -13.3035  -21.3324 H         1 X6L         0.0634
     35 H8         43.0338  -12.8708  -24.3441 H         1 X6L         0.0670
     36 H9         44.8664  -12.1277  -20.5779 H         1 X6L         0.0670
     37 H10        40.6494  -10.9722  -22.2520 H         1 X6L         0.0652
     38 H11        41.2509  -12.0767  -23.5346 H         1 X6L         0.0652
     39 H12        41.0434   -8.6721  -21.1801 H         1 X6L         0.2698
     40 H13        46.1682   -7.2053  -21.5947 H         1 X6L         0.2370
     41 H14        44.0699   -5.8739  -18.3352 H         1 X6L         0.1822
     42 H15        47.1223   -5.7622  -19.8896 H         1 X6L         0.1763
     43 H16        46.0843   -5.2562  -18.5298 H         1 X6L         0.1763
@<TRIPOS>BOND
     1    2    1 ar 
     2    3    1 ar 
     3    4    2 ar 
     4    5    3 ar 
     5   10    4 ar 
     6   10    5 ar 
     7    8    6 ar 
     8    6   11 ar 
     9    9    7 ar 
    10    7   11 ar 
    11   12    8 ar 
    12   12    9 ar 
    13   11   10 1  
    14   18   12 1  
    15   14   13 2  
    16   13   16 1  
    17   20   13 1  
    18   14   21 1  
    19   22   14 1  
    20   15   20 1  
    21   15   22 2  
    22   27   15 1  
    23   16   23 am 
    24   16   25 2  
    25   21   17 ar 
    26   17   23 ar 
    27   17   24 ar 
    28   19   18 1  
    29   18   26 2  
    30   19   27 1  
    31    1   28 1  
    32    2   29 1  
    33    3   30 1  
    34    4   31 1  
    35    5   32 1  
    36    6   33 1  
    37    7   34 1  
    38    8   35 1  
    39    9   36 1  
    40   19   37 1  
    41   19   38 1  
    42   20   39 1  
    43   21   40 1  
    44   23   41 1  
    45   24   42 1  
    46   24   43 1  
@<TRIPOS>SUBSTRUCTURE
     1 X6L         1

