### 
### Created by X-TOOL on Mon Sep 10 21:13:19 2018
### 

@<TRIPOS>MOLECULE
4cwf_ligand
   31    33     1     0     0
SMALL
GAST_HUCK


@<TRIPOS>ATOM
      1 C1          6.2510   11.9160   24.0550 C.ar      1 H05         0.2305
      2 N2          5.2920   11.0910   23.5960 N.ar      1 H05        -0.1808
      3 N3          7.4570   11.3580   23.7830 N.pl3     1 H05        -0.1497
      4 N4          5.8160    9.9340   22.9920 N.2       1 H05        -0.1246
      5 C5          3.9810   11.4080   23.7520 C.ar      1 H05         0.1246
      6 N6          3.6530   12.5890   24.3690 N.ar      1 H05        -0.2616
      7 C7          7.1400   10.1890   23.1530 C.2       1 H05         0.3208
      8 C8          5.9740   13.1280   24.6900 C.ar      1 H05         0.0991
      9 C9          4.6180   13.4510   24.8380 C.ar      1 H05         0.0755
     10 N10         8.1050    9.3410   22.7130 N.pl3     1 H05        -0.2482
     11 C11         6.9820   13.9860   25.1600 C.ar      1 H05        -0.0086
     12 C12         2.8780   10.4870   23.2620 C.3       1 H05         0.0190
     13 C13         4.2790   14.6550   25.4720 C.ar      1 H05        -0.0109
     14 C14         2.7740    9.2490   24.1590 C.3       1 H05        -0.0403
     15 C15         6.6290   15.1730   25.7870 C.ar      1 H05        -0.0230
     16 C16         5.2870   15.5030   25.9390 C.ar      1 H05        -0.0242
     17 C17         2.2950    9.5740   25.5620 C.3       1 H05        -0.0628
     18 H           9.0984    9.5728   22.8556 H         1 H05         0.2180
     19 H           7.8436    8.4660   22.2366 H         1 H05         0.2180
     20 H           8.0262   13.7235   25.0342 H         1 H05         0.0956
     21 H           3.1016   10.1703   22.2326 H         1 H05         0.0504
     22 H           1.9204   11.0280   23.2794 H         1 H05         0.0504
     23 H           3.2375   14.9273   25.5996 H         1 H05         0.0857
     24 H           3.7669    8.7805   24.2270 H         1 H05         0.0292
     25 H           2.0658    8.5426   23.7014 H         1 H05         0.0292
     26 H           7.3980   15.8412   26.1573 H         1 H05         0.0734
     27 H           5.0183   16.4327   26.4274 H         1 H05         0.0856
     28 H           2.2413    8.6488   26.1546 H         1 H05         0.0232
     29 H           1.2977   10.0353   25.5113 H         1 H05         0.0232
     30 H           2.9988   10.2733   26.0370 H         1 H05         0.0232
     31 H1          8.3928   11.7292   24.0007 H         1 H05         0.2601
@<TRIPOS>BOND
     1    1    2 ar 
     2    1    3 1  
     3    1    8 ar 
     4    2    4 1  
     5    2    5 ar 
     6    3    7 1  
     7    4    7 2  
     8    5    6 ar 
     9    5   12 1  
    10    6    9 ar 
    11    7   10 1  
    12    8    9 ar 
    13    8   11 ar 
    14    9   13 ar 
    15   11   15 ar 
    16   12   14 1  
    17   13   16 ar 
    18   14   17 1  
    19   15   16 ar 
    20   10   18 1  
    21   10   19 1  
    22   11   20 1  
    23   12   21 1  
    24   12   22 1  
    25   13   23 1  
    26   14   24 1  
    27   14   25 1  
    28   15   26 1  
    29   16   27 1  
    30   17   28 1  
    31   17   29 1  
    32   17   30 1  
    33    3   31 1  
@<TRIPOS>SUBSTRUCTURE
     1 H05         1

