### 
### Created by X-TOOL on Mon Sep 10 21:13:18 2018
### 

@<TRIPOS>MOLECULE
4cwo_ligand
   37    40     1     0     0
SMALL
GAST_HUCK


@<TRIPOS>ATOM
      1 N18         6.4160    8.8860   22.9160 N.pl3     1 T62        -0.2474
      2 C17         5.8600    9.9440   23.5680 C.2       1 T62         0.3227
      3 N16         4.5470    9.9200   23.8950 N.2       1 T62        -0.1216
      4 N19         6.5790   11.0490   23.9160 N.pl3     1 T62        -0.1492
      5 C20         5.6540   11.8240   24.5210 C.ar      1 T62         0.2310
      6 C21         5.7770   13.0870   25.0970 C.ar      1 T62         0.0986
      7 C22         6.9790   13.7990   25.1330 C.ar      1 T62        -0.0094
      8 C23         7.0060   15.0670   25.7310 C.ar      1 T62        -0.0239
      9 C14         5.8480   15.6190   26.2930 C.ar      1 T62        -0.0252
     10 C13         4.6520   14.9040   26.2430 C.ar      1 T62        -0.0119
     11 C12         4.6130   13.6400   25.6470 C.ar      1 T62         0.0742
     12 N11         3.4450   12.9360   25.6090 N.ar      1 T62        -0.2617
     13 N15         4.4890   11.1760   24.4970 N.ar      1 T62        -0.1779
     14 C10         3.3800   11.7120   25.0250 C.ar      1 T62         0.1348
     15 C9          2.1120   10.8840   25.0270 C.3       1 T62         0.0473
     16 C8          0.7880   11.4280   24.5420 C.ar      1 T62        -0.0424
     17 C3          0.7140   12.1360   23.3430 C.ar      1 T62        -0.0404
     18 C7         -0.3650   11.1300   25.2860 C.ar      1 T62        -0.0404
     19 C5         -1.6120   11.5730   24.8330 C.ar      1 T62         0.0733
     20 O6         -2.7400   11.3260   25.5480 O.3       1 T62        -0.3374
     21 C4         -1.7030   12.2900   23.6450 C.ar      1 T62        -0.0122
     22 C2         -0.5380   12.5730   22.9060 C.ar      1 T62         0.0733
     23 O1         -0.6240   13.2550   21.7310 O.3       1 T62        -0.3374
     24 H           5.8372    8.0699   22.6712 H         1 T62         0.2186
     25 H           7.4155    8.9017   22.6675 H         1 T62         0.2186
     26 H           7.8800   13.3760   24.7036 H         1 T62         0.0949
     27 H           7.9340   15.6266   25.7586 H         1 T62         0.0727
     28 H           5.8813   16.5950   26.7634 H         1 T62         0.0854
     29 H           3.7498   15.3294   26.6675 H         1 T62         0.0846
     30 H           1.9513   10.5732   26.0699 H         1 T62         0.0660
     31 H           2.3237    9.9989   24.4091 H         1 T62         0.0660
     32 H           1.6070   12.3422   22.7641 H         1 T62         0.0397
     33 H          -0.2892   10.5605   26.2052 H         1 T62         0.0397
     34 H          -3.4883   11.6963   25.0948 H         1 T62         0.2477
     35 H          -2.6685   12.6303   23.2885 H         1 T62         0.0413
     36 H          -1.1689   12.7690   21.1232 H         1 T62         0.2477
     37 H1          7.5779   11.2437   23.7571 H         1 T62         0.2600
@<TRIPOS>BOND
     1    1    2 1  
     2    2    3 2  
     3    2    4 1  
     4    3   13 1  
     5    4    5 1  
     6    5    6 ar 
     7    5   13 ar 
     8    6    7 ar 
     9    6   11 ar 
    10    7    8 ar 
    11    8    9 ar 
    12    9   10 ar 
    13   10   11 ar 
    14   11   12 ar 
    15   12   14 ar 
    16   13   14 ar 
    17   14   15 1  
    18   15   16 1  
    19   16   17 ar 
    20   16   18 ar 
    21   17   22 ar 
    22   18   19 ar 
    23   19   20 1  
    24   19   21 ar 
    25   21   22 ar 
    26   22   23 1  
    27    1   24 1  
    28    1   25 1  
    29    7   26 1  
    30    8   27 1  
    31    9   28 1  
    32   10   29 1  
    33   15   30 1  
    34   15   31 1  
    35   17   32 1  
    36   18   33 1  
    37   20   34 1  
    38   21   35 1  
    39   23   36 1  
    40    4   37 1  
@<TRIPOS>SUBSTRUCTURE
     1 T62         1

