### 
### Created by X-TOOL on Mon Sep 10 21:13:19 2018
### 

@<TRIPOS>MOLECULE
4cwp_ligand
   38    42     1     0     0
SMALL
GAST_HUCK


@<TRIPOS>ATOM
      1 N5         -2.2510   11.9550   24.0980 N.pl3     1 TV2        -0.2650
      2 C17        -1.1400   11.3320   24.5700 C.2       1 TV2         0.2863
      3 N3          0.0450   11.3620   23.9020 N.2       1 TV2        -0.1642
      4 N1          0.7880   10.5620   24.7690 N.ar      1 TV2        -0.2129
      5 C7          0.0810   10.1420   25.8270 C.ar      1 TV2         0.1927
      6 N4         -1.1790   10.6280   25.7290 N.pl3     1 TV2        -0.1804
      7 C8          2.0800   10.2090   24.6070 C.ar      1 TV2         0.1198
      8 N2          2.6850    9.4310   25.5420 N.ar      1 TV2        -0.2832
      9 C4          1.9780    8.9850   26.6430 C.ar      1 TV2         0.0443
     10 C3          2.5980    8.1890   27.6120 C.ar      1 TV2        -0.0376
     11 C2          1.8810    7.7360   28.7210 C.ar      1 TV2        -0.0515
     12 C1          0.5390    8.0840   28.8790 C.ar      1 TV2        -0.0506
     13 C6         -0.0860    8.9020   27.9290 C.ar      1 TV2        -0.0365
     14 C5          0.6360    9.3470   26.8210 C.ar      1 TV2         0.0623
     15 C9          2.8820   10.6790   23.4230 C.3       1 TV2         0.0631
     16 C10         3.7840   11.8150   23.8490 C.ar      1 TV2         0.0013
     17 C11         5.1870   11.6830   23.7580 C.ar      1 TV2        -0.0318
     18 C12         6.0330   12.7500   24.1320 C.ar      1 TV2         0.0029
     19 C13         5.4150   13.9030   24.6130 C.ar      1 TV2         0.1820
     20 C14         4.0560   13.9930   24.7220 C.ar      1 TV2         0.1732
     21 C15         3.1890   12.9770   24.3440 C.ar      1 TV2         0.0039
     22 O2          5.9840   15.0850   25.0610 O.3       1 TV2        -0.2498
     23 C16         4.9220   15.9690   25.4710 C.3       1 TV2         0.2104
     24 O1          3.7240   15.2060   25.2200 O.3       1 TV2        -0.2608
     25 H          -2.2083   12.4864   23.2167 H         1 TV2         0.2031
     26 H          -3.1361   11.8960   24.6214 H         1 TV2         0.2031
     27 H           3.6427    7.9220   27.5010 H         1 TV2         0.0639
     28 H           2.3683    7.1121   29.4615 H         1 TV2         0.0716
     29 H          -0.0188    7.7221   29.7351 H         1 TV2         0.0633
     30 H          -1.1242    9.1876   28.0539 H         1 TV2         0.0710
     31 H           2.2007   11.0275   22.6328 H         1 TV2         0.0794
     32 H           3.4932    9.8484   23.0402 H         1 TV2         0.0794
     33 H           5.6178   10.7556   23.3983 H         1 TV2         0.0704
     34 H           7.1113   12.6759   24.0490 H         1 TV2         0.0649
     35 H           2.1132   13.0797   24.4282 H         1 TV2         0.0549
     36 H           4.9297   16.8937   24.8753 H         1 TV2         0.1034
     37 H           5.0106   16.2196   26.5384 H         1 TV2         0.1034
     38 H1         -1.9708   10.4959   26.3744 H         1 TV2         0.2505
@<TRIPOS>BOND
     1    1    2 1  
     2    2    3 2  
     3    2    6 1  
     4    3    4 1  
     5    4    5 ar 
     6    4    7 ar 
     7    5    6 1  
     8    5   14 ar 
     9    7    8 ar 
    10    7   15 1  
    11    8    9 ar 
    12    9   10 ar 
    13    9   14 ar 
    14   10   11 ar 
    15   11   12 ar 
    16   12   13 ar 
    17   13   14 ar 
    18   15   16 1  
    19   16   17 ar 
    20   16   21 ar 
    21   17   18 ar 
    22   18   19 ar 
    23   19   20 ar 
    24   19   22 1  
    25   20   21 ar 
    26   20   24 1  
    27   22   23 1  
    28   23   24 1  
    29    1   25 1  
    30    1   26 1  
    31   10   27 1  
    32   11   28 1  
    33   12   29 1  
    34   13   30 1  
    35   15   31 1  
    36   15   32 1  
    37   17   33 1  
    38   18   34 1  
    39   21   35 1  
    40   23   36 1  
    41   23   37 1  
    42    6   38 1  
@<TRIPOS>SUBSTRUCTURE
     1 TV2         1

