### 
### Created by X-TOOL on Mon Sep 10 21:13:18 2018
### 

@<TRIPOS>MOLECULE
4cwq_ligand
   43    47     1     0     0
SMALL
GAST_HUCK


@<TRIPOS>ATOM
      1 C21         3.2100   12.7990   24.3950 C.ar      1 W2D         0.0039
      2 C22         4.0320   13.8010   24.7710 C.ar      1 W2D         0.1732
      3 O23         3.6810   15.0490   25.2080 O.3       1 W2D        -0.2608
      4 C24         4.9410   15.7700   25.4060 C.3       1 W2D         0.2104
      5 O25         5.9750   14.8150   25.1710 O.3       1 W2D        -0.2498
      6 C26         5.3590   13.6530   24.7520 C.ar      1 W2D         0.1820
      7 C27         5.9160   12.4830   24.3510 C.ar      1 W2D         0.0029
      8 C28         5.1140   11.3920   23.9580 C.ar      1 W2D        -0.0318
      9 C20         3.7180   11.5680   23.9820 C.ar      1 W2D         0.0013
     10 C19         2.8170   10.5390   23.5940 C.3       1 W2D         0.0631
     11 C9          1.9770   10.1190   24.6590 C.ar      1 W2D         0.1198
     12 N8          2.4850    9.3240   25.6170 N.ar      1 W2D        -0.2831
     13 C7          1.7160    8.9080   26.6650 C.ar      1 W2D         0.0462
     14 C6          2.2530    8.0840   27.6520 C.ar      1 W2D        -0.0109
     15 C5          1.4770    7.6410   28.7190 C.ar      1 W2D         0.1184
     16 S2          2.1320    6.5920   29.9720 S.o2      1 W2D         0.0708
     17 O3          3.5990    6.3480   29.7390 O.2       1 W2D        -0.1490
     18 O1          1.3980    5.2580   29.9260 O.2       1 W2D        -0.1490
     19 N4          1.7890    7.2960   31.5360 N.am      1 W2D        -0.2597
     20 C18         0.1470    8.0230   28.8060 C.ar      1 W2D        -0.0238
     21 C17        -0.4040    8.8500   27.8250 C.ar      1 W2D        -0.0346
     22 C16         0.3770    9.3050   26.7480 C.ar      1 W2D         0.0624
     23 C15        -0.1250   10.0980   25.7810 C.ar      1 W2D         0.1927
     24 N14        -1.3400   10.6330   25.5820 N.pl3     1 W2D        -0.1804
     25 N10         0.6820   10.4950   24.7740 N.ar      1 W2D        -0.2129
     26 N11         0.0110   11.2530   23.9810 N.2       1 W2D        -0.1642
     27 C12        -1.2440   11.3270   24.4530 C.2       1 W2D         0.2863
     28 N13        -2.2410   12.0200   23.8760 N.pl3     1 W2D        -0.2650
     29 H           2.1373   12.9537   24.4144 H         1 W2D         0.0549
     30 H           5.0035   16.1575   26.4336 H         1 W2D         0.1034
     31 H           5.0211   16.6046   24.6939 H         1 W2D         0.1034
     32 H           6.9954   12.3852   24.3324 H         1 W2D         0.0649
     33 H           5.5565   10.4520   23.6487 H         1 W2D         0.0704
     34 H           3.3995    9.6745   23.2428 H         1 W2D         0.0794
     35 H           2.1862   10.9135   22.7744 H         1 W2D         0.0794
     36 H           3.2924    7.7830   27.5877 H         1 W2D         0.0658
     37 H           2.0896    6.8327   32.3697 H         1 W2D         0.1636
     38 H           1.2923    8.1618   31.5965 H         1 W2D         0.1636
     39 H          -0.4636    7.6805   29.6336 H         1 W2D         0.0653
     40 H          -1.4450    9.1443   27.8945 H         1 W2D         0.0711
     41 H          -3.1784   12.0258   24.3028 H         1 W2D         0.2031
     42 H          -2.0675   12.5452   23.0071 H         1 W2D         0.2031
     43 H1         -2.1724   10.5276   26.1794 H         1 W2D         0.2505
@<TRIPOS>BOND
     1    1    2 ar 
     2    1    9 ar 
     3    2    3 1  
     4    2    6 ar 
     5    3    4 1  
     6    4    5 1  
     7    5    6 1  
     8    6    7 ar 
     9    7    8 ar 
    10    8    9 ar 
    11    9   10 1  
    12   10   11 1  
    13   11   12 ar 
    14   11   25 ar 
    15   12   13 ar 
    16   13   14 ar 
    17   13   22 ar 
    18   14   15 ar 
    19   15   16 1  
    20   15   20 ar 
    21   16   17 2  
    22   16   18 2  
    23   16   19 am 
    24   20   21 ar 
    25   21   22 ar 
    26   22   23 ar 
    27   23   24 1  
    28   23   25 ar 
    29   24   27 1  
    30   25   26 1  
    31   26   27 2  
    32   27   28 1  
    33    1   29 1  
    34    4   30 1  
    35    4   31 1  
    36    7   32 1  
    37    8   33 1  
    38   10   34 1  
    39   10   35 1  
    40   14   36 1  
    41   19   37 1  
    42   19   38 1  
    43   20   39 1  
    44   21   40 1  
    45   28   41 1  
    46   28   42 1  
    47   24   43 1  
@<TRIPOS>SUBSTRUCTURE
     1 W2D         1

