### 
### Created by X-TOOL on Mon Sep 10 21:13:18 2018
### 

@<TRIPOS>MOLECULE
4cwr_ligand
   38    42     1     0     0
SMALL
GAST_HUCK


@<TRIPOS>ATOM
      1 F2         -1.1270    9.2920   28.2430 F         1 HAJ        -0.1377
      2 C1          0.1510    8.9800   28.0170 C.ar      1 HAJ         0.2004
      3 C15         0.7970    8.1990   28.9730 C.ar      1 HAJ         0.0172
      4 C14         2.1420    7.8710   28.7920 C.ar      1 HAJ        -0.0223
      5 C13         2.8150    8.3000   27.6560 C.ar      1 HAJ        -0.0117
      6 C12         2.1670    9.0740   26.6900 C.ar      1 HAJ         0.0766
      7 C3          0.8260    9.4170   26.8700 C.ar      1 HAJ         0.1362
      8 N11         2.8540    9.4860   25.5840 N.ar      1 HAJ        -0.2627
      9 C10         2.2470   10.2400   24.6290 C.ar      1 HAJ         0.1302
     10 N9          0.9530   10.6010   24.7880 N.ar      1 HAJ        -0.1880
     11 N8          0.2110   11.3470   23.8890 N.2       1 HAJ        -0.1386
     12 C6         -0.9630   11.3520   24.5490 C.2       1 HAJ         0.3100
     13 N7         -2.0420   12.0010   24.0230 N.pl3     1 HAJ        -0.2530
     14 N5         -1.0170   10.6770   25.7320 N.pl3     1 HAJ        -0.1560
     15 C4          0.2470   10.1950   25.8540 C.ar      1 HAJ         0.2272
     16 C16         3.0660   10.6820   23.4370 C.3       1 HAJ         0.0444
     17 C17         3.9680   11.8410   23.8480 C.ar      1 HAJ        -0.0441
     18 C25         5.3640   11.7370   23.6920 C.ar      1 HAJ        -0.0763
     19 C24         6.2180   12.7920   24.0440 C.ar      1 HAJ        -0.0461
     20 C23         5.6310   13.9480   24.5650 C.ar      1 HAJ         0.1178
     21 C19         4.2820   14.0430   24.7360 C.ar      1 HAJ         0.1187
     22 C18         3.4050   13.0120   24.3860 C.ar      1 HAJ        -0.0360
     23 O22         6.2370   15.1100   25.0020 O.3       1 HAJ        -0.2943
     24 C21         5.2130   15.9850   25.5030 C.3       1 HAJ         0.1860
     25 O20         3.9930   15.2600   25.2670 O.3       1 HAJ        -0.2920
     26 H           0.2610    7.8497   29.8481 H         1 HAJ         0.0751
     27 H           2.6610    7.2811   29.5388 H         1 HAJ         0.0845
     28 H           3.8559    8.0312   27.5168 H         1 HAJ         0.0864
     29 H          -1.9563   12.4990   23.1255 H         1 HAJ         0.2136
     30 H          -2.9422   11.9929   24.5235 H         1 HAJ         0.2136
     31 H           2.3938   11.0079   22.6296 H         1 HAJ         0.0641
     32 H           3.6835    9.8430   23.0838 H         1 HAJ         0.0641
     33 H           5.7868   10.8227   23.2916 H         1 HAJ         0.0448
     34 H           7.2917   12.7138   23.9169 H         1 HAJ         0.0497
     35 H           2.3344   13.1112   24.5238 H         1 HAJ         0.0458
     36 H           5.2126   16.9400   24.9571 H         1 HAJ         0.0972
     37 H           5.3529   16.1766   26.5771 H         1 HAJ         0.0972
     38 H1         -1.8155   10.5615   26.3723 H         1 HAJ         0.2580
@<TRIPOS>BOND
     1    1    2 1  
     2    2    3 ar 
     3    2    7 ar 
     4    3    4 ar 
     5    4    5 ar 
     6    5    6 ar 
     7    6    7 ar 
     8    6    8 ar 
     9    7   15 ar 
    10    8    9 ar 
    11    9   10 ar 
    12    9   16 1  
    13   10   11 1  
    14   10   15 ar 
    15   11   12 2  
    16   12   13 1  
    17   12   14 1  
    18   14   15 1  
    19   16   17 1  
    20   17   18 ar 
    21   17   22 ar 
    22   18   19 ar 
    23   19   20 ar 
    24   20   21 ar 
    25   20   23 1  
    26   21   22 ar 
    27   21   25 1  
    28   23   24 1  
    29   24   25 1  
    30    3   26 1  
    31    4   27 1  
    32    5   28 1  
    33   13   29 1  
    34   13   30 1  
    35   16   31 1  
    36   16   32 1  
    37   18   33 1  
    38   19   34 1  
    39   22   35 1  
    40   24   36 1  
    41   24   37 1  
    42   14   38 1  
@<TRIPOS>SUBSTRUCTURE
     1 HAJ         1

