### 
### Created by X-TOOL on Mon Sep 10 21:13:19 2018
### 

@<TRIPOS>MOLECULE
4cws_ligand
   47    51     1     0     0
SMALL
GAST_HUCK


@<TRIPOS>ATOM
      1 O1          4.7180    6.4990   32.0390 O.3       1 G3R        -0.3928
      2 C2          5.0940    6.3110   30.6750 C.3       1 G3R         0.0665
      3 C3          4.4670    7.4370   29.8640 C.3       1 G3R         0.0598
      4 N4          3.0140    7.3220   29.7380 N.pl3     1 G3R        -0.2915
      5 C6          2.3370    8.1010   28.8330 C.ar      1 G3R         0.0945
      6 C7          0.9770    8.3970   29.0140 C.ar      1 G3R        -0.0013
      7 C19         0.2740    9.2130   28.1100 C.ar      1 G3R        -0.0211
      8 C8          3.0080    8.5920   27.7050 C.ar      1 G3R         0.0188
      9 C9          2.3090    9.3840   26.7830 C.ar      1 G3R         0.0662
     10 C18         0.9440    9.7080   26.9930 C.ar      1 G3R         0.0813
     11 N10         2.9570    9.8410   25.6740 N.ar      1 G3R        -0.2718
     12 C11         2.3220   10.6130   24.7790 C.ar      1 G3R         0.1242
     13 N12         1.0270   10.9330   24.9670 N.ar      1 G3R        -0.1949
     14 N13         0.2740   11.7240   24.1080 N.2       1 G3R        -0.1397
     15 C17         0.3510   10.4940   26.0180 C.ar      1 G3R         0.2125
     16 N16        -0.9020   10.9620   25.9200 N.pl3     1 G3R        -0.1650
     17 C14        -0.8900   11.6640   24.7580 C.2       1 G3R         0.3054
     18 N15        -1.9930   12.3280   24.2760 N.pl3     1 G3R        -0.2557
     19 C20         3.1210   11.0990   23.5940 C.3       1 G3R         0.0449
     20 C21         4.0340   12.2550   23.9750 C.ar      1 G3R        -0.0420
     21 C22         3.4830   13.4080   24.5070 C.ar      1 G3R        -0.0347
     22 C23         4.3470   14.4430   24.8140 C.ar      1 G3R         0.1203
     23 O24         4.0490   15.6660   25.3420 O.3       1 G3R        -0.2912
     24 C25         5.2570   16.3770   25.5900 C.3       1 G3R         0.1866
     25 O26         6.2520   15.5220   25.0000 O.3       1 G3R        -0.2930
     26 C27         5.6780   14.3510   24.6040 C.ar      1 G3R         0.1198
     27 C28         6.2870   13.2030   24.0750 C.ar      1 G3R        -0.0445
     28 C29         5.4190   12.1590   23.7690 C.ar      1 G3R        -0.0746
     29 H           5.0363    7.3416   32.3408 H         1 G3R         0.2095
     30 H           4.7251    5.3393   30.3149 H         1 G3R         0.0580
     31 H           6.1893    6.3455   30.5799 H         1 G3R         0.0580
     32 H           4.9064    7.4271   28.8556 H         1 G3R         0.0572
     33 H           4.6998    8.3928   30.3561 H         1 G3R         0.0572
     34 H           2.4980    6.6552   30.3296 H         1 G3R         0.1997
     35 H           0.4560    7.9866   29.8714 H         1 G3R         0.0637
     36 H          -0.7696    9.4525   28.2789 H         1 G3R         0.0852
     37 H           4.0555    8.3621   27.5470 H         1 G3R         0.0816
     38 H          -1.9343   12.8475   23.3885 H         1 G3R         0.2104
     39 H          -2.8781   12.3060   24.8023 H         1 G3R         0.2104
     40 H           2.4278   11.4346   22.8086 H         1 G3R         0.0655
     41 H           3.7344   10.2698   23.2119 H         1 G3R         0.0655
     42 H           2.4159   13.4961   24.6763 H         1 G3R         0.0462
     43 H           5.4300   16.5014   26.6692 H         1 G3R         0.0973
     44 H           5.2435   17.3640   25.1046 H         1 G3R         0.0973
     45 H           7.3571   13.1341   23.9160 H         1 G3R         0.0502
     46 H           5.8258   11.2420   23.3583 H         1 G3R         0.0457
     47 H1         -1.6872   10.8220   26.5717 H         1 G3R         0.2543
@<TRIPOS>BOND
     1    1    2 1  
     2    2    3 1  
     3    3    4 1  
     4    4    5 1  
     5    5    6 ar 
     6    5    8 ar 
     7    6    7 ar 
     8    7   10 ar 
     9    8    9 ar 
    10    9   10 ar 
    11    9   11 ar 
    12   10   15 ar 
    13   11   12 ar 
    14   12   13 ar 
    15   12   19 1  
    16   13   14 1  
    17   13   15 ar 
    18   14   17 2  
    19   15   16 1  
    20   16   17 1  
    21   17   18 1  
    22   19   20 1  
    23   20   21 ar 
    24   20   28 ar 
    25   21   22 ar 
    26   22   23 1  
    27   22   26 ar 
    28   23   24 1  
    29   24   25 1  
    30   25   26 1  
    31   26   27 ar 
    32   27   28 ar 
    33    1   29 1  
    34    2   30 1  
    35    2   31 1  
    36    3   32 1  
    37    3   33 1  
    38    4   34 1  
    39    6   35 1  
    40    7   36 1  
    41    8   37 1  
    42   18   38 1  
    43   18   39 1  
    44   19   40 1  
    45   19   41 1  
    46   21   42 1  
    47   24   43 1  
    48   24   44 1  
    49   27   45 1  
    50   28   46 1  
    51   16   47 1  
@<TRIPOS>SUBSTRUCTURE
     1 G3R         1

