### 
### Created by X-TOOL on Mon Sep 10 21:13:19 2018
### 

@<TRIPOS>MOLECULE
4cwt_ligand
   47    51     1     0     0
SMALL
GAST_HUCK


@<TRIPOS>ATOM
      1 F1          3.9350   16.7780   26.2640 F         1 IK9        -0.1595
      2 C2          4.4640   15.6710   25.6980 C.ar      1 IK9         0.1788
      3 C4          3.6500   14.6440   25.2310 C.ar      1 IK9         0.0282
      4 C5          4.2450   13.5100   24.6710 C.ar      1 IK9         0.0786
      5 C24         5.6360   13.3930   24.5700 C.ar      1 IK9         0.1218
      6 C25         6.4560   14.4300   25.0370 C.ar      1 IK9         0.1209
      7 N26         7.8190   14.3530   24.9530 N.pl3     1 IK9        -0.2815
      8 C27         8.6950   15.4260   25.4430 C.3       1 IK9         0.0646
      9 C28         8.8170   15.1740   26.9540 C.3       1 IK9         0.0676
     10 O29         9.8550   15.9700   27.5410 O.3       1 IK9        -0.3927
     11 C3          5.8480   15.5600   25.5860 C.ar      1 IK9         0.0487
     12 C23         6.1260   12.2170   23.9900 C.ar      1 IK9         0.2075
     13 N22         7.4010   11.8090   23.7520 N.pl3     1 IK9        -0.1740
     14 C20         7.2550   10.5810   23.1620 C.2       1 IK9         0.2815
     15 N21         8.3220    9.8180   22.7590 N.pl3     1 IK9        -0.2657
     16 N19         5.9860   10.1510   23.0090 N.2       1 IK9        -0.1756
     17 N18         5.3180   11.2470   23.5700 N.ar      1 IK9        -0.2121
     18 C7          3.9840   11.3860   23.6540 C.ar      1 IK9         0.1218
     19 N6          3.4560   12.5000   24.2260 N.ar      1 IK9        -0.2636
     20 C8          3.0590   10.2770   23.2200 C.3       1 IK9         0.0426
     21 C9          3.1590    9.2900   24.3870 C.ar      1 IK9        -0.0452
     22 C17         3.6610    7.9980   24.1540 C.ar      1 IK9        -0.0772
     23 C16         3.8020    7.0290   25.1600 C.ar      1 IK9        -0.0470
     24 C15         3.4250    7.3950   26.4470 C.ar      1 IK9         0.1166
     25 C11         2.9090    8.7270   26.7120 C.ar      1 IK9         0.1177
     26 C10         2.7790    9.6700   25.6920 C.ar      1 IK9        -0.0368
     27 O14         3.4350    6.6870   27.6170 O.3       1 IK9        -0.2952
     28 C13         2.8410    7.5080   28.6510 C.3       1 IK9         0.1855
     29 O12         2.6200    8.8070   28.0530 O.3       1 IK9        -0.2926
     30 H           2.5710   14.7220   25.3004 H         1 IK9         0.0931
     31 H           8.2454   13.5151   24.5323 H         1 IK9         0.2085
     32 H           8.2461   16.4114   25.2496 H         1 IK9         0.0585
     33 H           9.6819   15.3714   24.9602 H         1 IK9         0.0585
     34 H           9.0450   14.1110   27.1211 H         1 IK9         0.0581
     35 H           7.8602   15.4239   27.4358 H         1 IK9         0.0581
     36 H           9.9024   15.7896   28.4725 H         1 IK9         0.2095
     37 H           6.4711   16.3752   25.9355 H         1 IK9         0.0742
     38 H           9.2824   10.1677   22.8863 H         1 IK9         0.2025
     39 H           8.1624    8.8956   22.3293 H         1 IK9         0.2025
     40 H           3.4009    9.8183   22.2805 H         1 IK9         0.0636
     41 H           2.0293   10.6433   23.0958 H         1 IK9         0.0636
     42 H           3.9548    7.7359   23.1440 H         1 IK9         0.0443
     43 H           4.1877    6.0395   24.9429 H         1 IK9         0.0494
     44 H           2.3978   10.6641   25.8956 H         1 IK9         0.0457
     45 H           3.5233    7.5939   29.5096 H         1 IK9         0.0971
     46 H           1.8868    7.0731   28.9830 H         1 IK9         0.0971
     47 H1          8.2760   12.3085   23.9661 H         1 IK9         0.2521
@<TRIPOS>BOND
     1    1    2 1  
     2    2    3 ar 
     3    2   11 ar 
     4    3    4 ar 
     5    4    5 ar 
     6    4   19 ar 
     7    5    6 ar 
     8    5   12 ar 
     9    6    7 1  
    10    6   11 ar 
    11    7    8 1  
    12    8    9 1  
    13    9   10 1  
    14   12   13 1  
    15   12   17 ar 
    16   13   14 1  
    17   14   15 1  
    18   14   16 2  
    19   16   17 1  
    20   17   18 ar 
    21   18   19 ar 
    22   18   20 1  
    23   20   21 1  
    24   21   22 ar 
    25   21   26 ar 
    26   22   23 ar 
    27   23   24 ar 
    28   24   25 ar 
    29   24   27 1  
    30   25   26 ar 
    31   25   29 1  
    32   27   28 1  
    33   28   29 1  
    34    3   30 1  
    35    7   31 1  
    36    8   32 1  
    37    8   33 1  
    38    9   34 1  
    39    9   35 1  
    40   10   36 1  
    41   11   37 1  
    42   15   38 1  
    43   15   39 1  
    44   20   40 1  
    45   20   41 1  
    46   22   42 1  
    47   23   43 1  
    48   26   44 1  
    49   28   45 1  
    50   28   46 1  
    51   13   47 1  
@<TRIPOS>SUBSTRUCTURE
     1 IK9         1

