### 
### Created by X-TOOL on Mon Sep 10 21:13:18 2018
### 

@<TRIPOS>MOLECULE
4cxw_ligand
   40    41     1     0     0
SMALL
GAST_HUCK


@<TRIPOS>ATOM
      1 OAA        34.3770   -6.8860  -23.3940 O.co2     1 6MK        -0.5689
      2 CAS        34.1040   -7.4030  -24.4970 C.2       1 6MK         0.0370
      3 OAD        34.3600   -8.5610  -24.8990 O.co2     1 6MK        -0.5689
      4 CAE        33.3640   -6.5710  -25.4450 C.3       1 6MK         0.0171
      5 CAF        32.4830   -7.4830  -26.2180 C.3       1 6MK         0.0506
      6 CAT        31.6050   -6.7290  -27.1480 C.2       1 6MK         0.1986
      7 OAB        31.5850   -5.5130  -27.2260 O.2       1 6MK        -0.3950
      8 NAQ        30.7470   -7.4440  -27.9830 N.am      1 6MK        -0.1829
      9 NAR        29.9010   -6.8390  -28.8900 N.am      1 6MK        -0.1818
     10 CAU        28.6940   -7.4690  -29.2070 C.2       1 6MK         0.2293
     11 OAC        28.4230   -8.5330  -28.6660 O.2       1 6MK        -0.3834
     12 CAX        27.7290   -6.8860  -30.2490 C.ar      1 6MK         0.0825
     13 CAN        26.3330   -6.6220  -30.0030 C.ar      1 6MK         0.0236
     14 NAP        25.4740   -6.1100  -30.9470 N.ar      1 6MK        -0.3001
     15 CAJ        25.9920   -5.8360  -32.2060 C.ar      1 6MK         0.0075
     16 CAM        27.3530   -6.0620  -32.5290 C.ar      1 6MK        -0.0252
     17 CAW        28.2220   -6.6070  -31.5300 C.ar      1 6MK         0.0078
     18 CAO        29.6600   -6.8960  -31.7690 C.3       1 6MK         0.0245
     19 CAV        30.2790   -7.0330  -33.1000 C.ar      1 6MK        -0.0288
     20 CAK        30.7350   -8.2810  -33.5880 C.ar      1 6MK        -0.0578
     21 CAH        31.3540   -8.3780  -34.8570 C.ar      1 6MK        -0.0680
     22 CAG        31.5300   -7.2300  -35.6520 C.ar      1 6MK        -0.0683
     23 CAI        31.0810   -5.9790  -35.1590 C.ar      1 6MK        -0.0680
     24 CAL        30.4700   -5.8900  -33.8990 C.ar      1 6MK        -0.0578
     25 H          34.0616   -6.0550  -26.1211 H         1 6MK         0.0455
     26 H          32.7592   -5.8276  -24.9050 H         1 6MK         0.0455
     27 H          31.8558   -8.0537  -25.5174 H         1 6MK         0.0521
     28 H          33.1080   -8.1768  -26.7994 H         1 6MK         0.0521
     29 H          30.7447   -8.4421  -27.9216 H         1 6MK         0.2165
     30 H          30.1467   -5.9665  -29.3124 H         1 6MK         0.2158
     31 H          25.9379   -6.8396  -29.0173 H         1 6MK         0.0856
     32 H          25.3327   -5.4356  -32.9676 H         1 6MK         0.0834
     33 H          27.7305   -5.8259  -33.5173 H         1 6MK         0.0665
     34 H          29.8594   -7.8463  -31.2521 H         1 6MK         0.0622
     35 H          30.2105   -6.0847  -31.2702 H         1 6MK         0.0622
     36 H          30.6088   -9.1718  -32.9834 H         1 6MK         0.0562
     37 H          31.6944   -9.3416  -35.2186 H         1 6MK         0.0600
     38 H          32.0013   -7.3013  -36.6256 H         1 6MK         0.0562
     39 H          31.2105   -5.0856  -35.7592 H         1 6MK         0.0600
     40 H          30.1393   -4.9241  -33.5345 H         1 6MK         0.0562
@<TRIPOS>BOND
     1    1    2 ar 
     2    2    3 ar 
     3    2    4 1  
     4    4    5 1  
     5    5    6 1  
     6    6    7 2  
     7    6    8 am 
     8    8    9 1  
     9    9   10 am 
    10   10   11 2  
    11   10   12 1  
    12   12   13 ar 
    13   12   17 ar 
    14   13   14 ar 
    15   14   15 ar 
    16   15   16 ar 
    17   16   17 ar 
    18   17   18 1  
    19   18   19 1  
    20   19   20 ar 
    21   19   24 ar 
    22   20   21 ar 
    23   21   22 ar 
    24   22   23 ar 
    25   23   24 ar 
    26    4   25 1  
    27    4   26 1  
    28    5   27 1  
    29    5   28 1  
    30    8   29 1  
    31    9   30 1  
    32   13   31 1  
    33   15   32 1  
    34   16   33 1  
    35   18   34 1  
    36   18   35 1  
    37   20   36 1  
    38   21   37 1  
    39   22   38 1  
    40   23   39 1  
    41   24   40 1  
@<TRIPOS>SUBSTRUCTURE
     1 6MK         1

