### 
### Created by X-TOOL on Mon Sep 10 21:13:19 2018
### 

@<TRIPOS>MOLECULE
4cxx_ligand
   52    53     1     0     0
SMALL
GAST_HUCK


@<TRIPOS>ATOM
      1 OAD        33.9560   -7.1640  725.8230 O.co2     1 640        -0.5689
      2 CAU        33.8660   -7.5210  724.6360 C.2       1 640         0.0370
      3 OAG        34.3740   -8.5820  724.2550 O.co2     1 640        -0.5689
      4 CAH        33.1040   -6.6660  723.6680 C.3       1 640         0.0171
      5 CAI        32.0010   -7.5870  723.1180 C.3       1 640         0.0506
      6 CAV        31.1780   -6.9080  722.0750 C.2       1 640         0.1986
      7 OAE        31.4940   -5.7980  721.6390 O.2       1 640        -0.3950
      8 NAS        30.0150   -7.6020  721.6530 N.am      1 640        -0.1828
      9 NAT        29.2100   -6.9740  720.7230 N.am      1 640        -0.1817
     10 CAW        28.8330   -7.6490  719.4830 C.2       1 640         0.2297
     11 OAF        29.1760   -8.7690  719.2460 O.2       1 640        -0.3831
     12 CBA        27.9360   -6.9590  718.5090 C.ar      1 640         0.0839
     13 CAP        26.5980   -6.8540  718.8200 C.ar      1 640         0.0242
     14 NAR        25.7490   -6.2690  717.9860 N.ar      1 640        -0.2995
     15 CAJ        26.1880   -5.7820  716.8090 C.ar      1 640         0.0081
     16 CAM        27.5270   -5.8560  716.4030 C.ar      1 640        -0.0239
     17 CAZ        28.4400   -6.5050  717.2730 C.ar      1 640         0.0137
     18 CAQ        29.9670   -6.6440  716.9960 C.3       1 640         0.0396
     19 CAX        30.3880   -6.9860  715.5420 C.ar      1 640         0.0026
     20 CAK        30.3450   -8.2780  715.0620 C.ar      1 640        -0.0262
     21 CAN        30.7990   -8.5000  713.7680 C.ar      1 640        -0.0447
     22 CAY        31.2840   -7.4490  713.0040 C.ar      1 640        -0.0570
     23 CBB        31.7810   -7.5900  711.5370 C.3       1 640        -0.0523
     24 CAB        32.0490   -9.0510  711.3000 C.3       1 640        -0.0878
     25 CAC        30.7860   -7.0280  710.5520 C.3       1 640        -0.0878
     26 CAA        33.1480   -6.8630  711.3610 C.3       1 640        -0.0878
     27 CAO        31.3230   -6.1770  713.5270 C.ar      1 640        -0.0447
     28 CAL        30.8860   -5.9390  714.8030 C.ar      1 640        -0.0262
     29 H          33.7605   -6.3195  722.8563 H         1 640         0.0455
     30 H          32.6644   -5.7974  724.1802 H         1 640         0.0455
     31 H          31.3447   -7.8903  723.9470 H         1 640         0.0521
     32 H          32.4697   -8.4787  722.6763 H         1 640         0.0521
     33 H          29.7879   -8.5068  722.0133 H         1 640         0.2165
     34 H          28.8812   -6.0464  720.9003 H         1 640         0.2158
     35 H          26.2343   -7.2550  719.7591 H         1 640         0.0858
     36 H          25.4720   -5.3110  716.1452 H         1 640         0.0836
     37 H          27.8528   -5.4332  715.4595 H         1 640         0.0670
     38 H          30.3523   -7.4404  717.6496 H         1 640         0.0695
     39 H          30.4417   -5.6884  717.2634 H         1 640         0.0695
     40 H          29.9703   -9.0915  715.6727 H         1 640         0.0657
     41 H          30.7740   -9.5010  713.3528 H         1 640         0.0833
     42 H          32.4043   -9.1961  710.2691 H         1 640         0.0125
     43 H          31.1220   -9.6233  711.4523 H         1 640         0.0125
     44 H          32.8167   -9.4021  712.0052 H         1 640         0.0125
     45 H          30.6227   -5.9611  710.7642 H         1 640         0.0125
     46 H          29.8332   -7.5700  710.6435 H         1 640         0.0125
     47 H          31.1766   -7.1430  709.5302 H         1 640         0.0125
     48 H          33.8753   -7.2711  712.0783 H         1 640         0.0125
     49 H          33.0170   -5.7863  711.5442 H         1 640         0.0125
     50 H          33.5167   -7.0184  710.3364 H         1 640         0.0125
     51 H          31.7018   -5.3585  712.9257 H         1 640         0.0833
     52 H          30.9320   -4.9410  715.2236 H         1 640         0.0657
@<TRIPOS>BOND
     1    1    2 ar 
     2    2    3 ar 
     3    2    4 1  
     4    4    5 1  
     5    5    6 1  
     6    6    7 2  
     7    6    8 am 
     8    8    9 1  
     9    9   10 am 
    10   10   11 2  
    11   10   12 1  
    12   12   13 ar 
    13   12   17 ar 
    14   13   14 ar 
    15   14   15 ar 
    16   15   16 ar 
    17   16   17 ar 
    18   17   18 1  
    19   18   19 1  
    20   19   20 ar 
    21   19   28 ar 
    22   20   21 ar 
    23   21   22 ar 
    24   22   23 1  
    25   22   27 ar 
    26   23   24 1  
    27   23   25 1  
    28   23   26 1  
    29   27   28 ar 
    30    4   29 1  
    31    4   30 1  
    32    5   31 1  
    33    5   32 1  
    34    8   33 1  
    35    9   34 1  
    36   13   35 1  
    37   15   36 1  
    38   16   37 1  
    39   18   38 1  
    40   18   39 1  
    41   20   40 1  
    42   21   41 1  
    43   24   42 1  
    44   24   43 1  
    45   24   44 1  
    46   25   45 1  
    47   25   46 1  
    48   25   47 1  
    49   26   48 1  
    50   26   49 1  
    51   26   50 1  
    52   27   51 1  
    53   28   52 1  
@<TRIPOS>SUBSTRUCTURE
     1 640         1

