### 
### Created by X-TOOL on Mon Sep 10 21:13:19 2018
### 

@<TRIPOS>MOLECULE
4cxy_ligand
   27    27     1     0     0
SMALL
GAST_HUCK


@<TRIPOS>ATOM
      1 OAA       -24.6080  -25.6570    5.4120 O.co2     1 DGR        -0.5689
      2 CAN       -23.4950  -25.9400    5.8390 C.2       1 DGR         0.0370
      3 OAD       -23.1840  -26.6080    6.8130 O.co2     1 DGR        -0.5689
      4 CAE       -22.2860  -25.3250    5.0230 C.3       1 DGR         0.0171
      5 CAF       -22.5600  -24.9360    3.6080 C.3       1 DGR         0.0506
      6 CAO       -21.3210  -24.4230    2.9210 C.2       1 DGR         0.1986
      7 OAB       -20.3000  -25.0260    2.8610 O.2       1 DGR        -0.3950
      8 NAL       -21.3710  -23.1070    2.3770 N.am      1 DGR        -0.1827
      9 NAM       -20.3460  -22.4370    1.6950 N.am      1 DGR        -0.1806
     10 CAP       -20.7000  -21.8680    0.4440 C.2       1 DGR         0.2339
     11 OAC       -21.7880  -21.9910   -0.0300 O.2       1 DGR        -0.3796
     12 CAQ       -19.6880  -21.1050   -0.4040 C.ar      1 DGR         0.0797
     13 CAI       -19.4310  -21.4810   -1.7050 C.ar      1 DGR        -0.0223
     14 CAG       -18.5010  -20.7680   -2.4780 C.ar      1 DGR        -0.0284
     15 CAH       -17.8510  -19.6600   -1.9170 C.ar      1 DGR         0.0155
     16 NAK       -18.0950  -19.2440   -0.6480 N.ar      1 DGR        -0.2903
     17 CAJ       -18.9910  -19.9590    0.0810 C.ar      1 DGR         0.0314
     18 H         -21.4773  -26.0706    5.0129 H         1 DGR         0.0455
     19 H         -21.9478  -24.4245    5.5565 H         1 DGR         0.0455
     20 H         -23.3262  -24.1468    3.5972 H         1 DGR         0.0521
     21 H         -22.9319  -25.8156    3.0621 H         1 DGR         0.0521
     22 H         -22.2295  -22.6078    2.4944 H         1 DGR         0.2165
     23 H         -19.4208  -22.3643    2.0676 H         1 DGR         0.2161
     24 H         -19.9494  -22.3312   -2.1332 H         1 DGR         0.0789
     25 H         -18.2880  -21.0708   -3.4968 H         1 DGR         0.0722
     26 H         -17.1293  -19.1171   -2.5166 H         1 DGR         0.0858
     27 H         -19.1891  -19.6377    1.0972 H         1 DGR         0.0879
@<TRIPOS>BOND
     1    1    2 ar 
     2    2    3 ar 
     3    2    4 1  
     4    4    5 1  
     5    5    6 1  
     6    6    7 2  
     7    6    8 am 
     8    8    9 1  
     9    9   10 am 
    10   10   11 2  
    11   10   12 1  
    12   12   13 ar 
    13   12   17 ar 
    14   13   14 ar 
    15   14   15 ar 
    16   15   16 ar 
    17   16   17 ar 
    18    4   18 1  
    19    4   19 1  
    20    5   20 1  
    21    5   21 1  
    22    8   22 1  
    23    9   23 1  
    24   13   24 1  
    25   14   25 1  
    26   15   26 1  
    27   17   27 1  
@<TRIPOS>SUBSTRUCTURE
     1 DGR         1

