### 
### Created by X-TOOL on Mon Sep 10 21:13:24 2018
### 

@<TRIPOS>MOLECULE
4czs_ligand
   98   101     1     0     0
SMALL
GAST_HUCK


@<TRIPOS>ATOM
      1 OAF       -90.0070  -78.2820   55.6160 O.3       1 8LR        -0.3250
      2 CAG       -89.9150  -76.8570   55.7440 C.3       1 8LR         0.1151
      3 CAH       -88.4170  -76.5250   55.8980 C.3       1 8LR         0.0793
      4 O1        -88.2160  -75.1060   56.0410 O.3       1 8LR        -0.3462
      5 C1        -86.8990  -74.7940   56.4240 C.3       1 8LR         0.1880
      6 O5        -85.9630  -75.2900   55.3880 O.3       1 8LR        -0.3405
      7 C5        -86.2110  -74.6240   54.0990 C.3       1 8LR         0.1130
      8 C6        -85.2440  -75.2020   53.0860 C.3       1 8LR         0.0730
      9 O6        -83.9400  -75.0830   53.6220 O.3       1 8LR        -0.3924
     10 C4        -86.0570  -73.1350   54.2330 C.3       1 8LR         0.1119
     11 O4        -86.3850  -72.4730   52.9880 O.3       1 8LR        -0.3865
     12 C3        -86.9910  -72.6460   55.2820 C.3       1 8LR         0.1141
     13 O3        -86.8210  -71.2010   55.4940 O.3       1 8LR        -0.3864
     14 C2        -86.7650  -73.3090   56.5720 C.3       1 8LR         0.1341
     15 O2        -85.4180  -73.0490   57.0580 O.3       1 8LR        -0.3841
     16 N         -90.3030  -78.6370   54.2970 N.4       1 GLY         0.4050
     17 CA        -90.0350  -80.0360   54.0810 C.3       1 GLY         0.0869
     18 C         -90.4320  -80.3780   52.6670 C.2       1 GLY         0.2249
     19 O         -90.9850  -81.4570   52.4130 O.2       1 GLY        -0.3910
     20 N         -90.1430  -79.4290   51.6090 N.am      1 TRP        -0.2602
     21 CA        -90.5090  -79.6750   50.2310 C.3       1 TRP         0.1353
     22 C         -90.1130  -81.0560   49.6920 C.2       1 TRP         0.2053
     23 O         -90.9360  -81.7710   49.1240 O.2       1 TRP        -0.3942
     24 CB        -89.7880  -78.6580   49.4400 C.3       1 TRP         0.0042
     25 CG        -90.1260  -78.7280   47.8850 C.2       1 TRP        -0.0418
     26 CD1       -89.3390  -79.2780   46.8560 C.2       1 TRP         0.0167
     27 CD2       -91.3050  -78.1910   47.2570 C.ar      1 TRP        -0.0214
     28 NE1       -89.9700  -79.1100   45.7050 N.pl3     1 TRP        -0.2890
     29 CE2       -91.1460  -78.4630   45.9000 C.ar      1 TRP         0.0603
     30 CE3       -92.4400  -77.5160   47.7320 C.ar      1 TRP        -0.0747
     31 CZ2       -92.1610  -78.0690   44.9720 C.ar      1 TRP        -0.0443
     32 CZ3       -93.4440  -77.1240   46.8210 C.ar      1 TRP        -0.0792
     33 CH2       -93.2910  -77.4090   45.4430 C.ar      1 TRP        -0.0768
     34 N         -88.7770  -81.5210   49.8370 N.am      1 TYR        -0.2620
     35 CA        -88.4290  -82.7860   49.2810 C.3       1 TYR         0.1390
     36 C         -88.9210  -83.9600   50.0920 C.2       1 TYR         0.2058
     37 O         -88.9570  -85.0580   49.5490 O.2       1 TYR        -0.3942
     38 CB        -86.9270  -82.9080   49.3190 C.3       1 TYR         0.0163
     39 CG        -86.2830  -81.7190   48.6170 C.ar      1 TYR        -0.0493
     40 CD1       -86.2410  -81.7060   47.2270 C.ar      1 TYR        -0.0685
     41 CD2       -85.7600  -80.6770   49.3530 C.ar      1 TYR        -0.0685
     42 CE1       -85.6630  -80.6390   46.5730 C.ar      1 TYR        -0.0398
     43 CE2       -85.1700  -79.6040   48.6970 C.ar      1 TYR        -0.0398
     44 CZ        -85.1300  -79.5930   47.3120 C.ar      1 TYR         0.0805
     45 OH        -84.5280  -78.4740   46.6050 O.3       1 TYR        -0.3376
     46 C         -88.4440  -85.4660   52.8850 C.2       1 XSN         0.2009
     47 N         -89.2700  -83.7240   51.5100 N.am      1 XSN        -0.2621
     48 O         -87.6390  -84.9080   53.6320 O.2       1 XSN        -0.3946
     49 CA        -89.6850  -84.7290   52.4400 C.3       1 XSN         0.1420
     50 CB        -90.6900  -85.6620   51.8130 C.3       1 XSN         0.0406
     51 CG        -92.0320  -84.9830   51.8800 C.2       1 XSN         0.0393
     52 OD1       -92.8280  -85.3250   52.8190 O.co2     1 XSN        -0.5688
     53 OD2       -92.3330  -84.0840   51.0230 O.co2     1 XSN        -0.5688
     54 N1        -88.1900  -86.8200   52.4200 N.am      1 XSN        -0.2989
     55 H1        -90.4719  -76.5187   56.6302 H         1 8LR         0.0639
     56 H2        -90.3219  -76.3681   54.8465 H         1 8LR         0.0639
     57 H3        -87.8768  -76.8770   55.0068 H         1 8LR         0.0586
     58 H4        -88.0250  -77.0357   56.7899 H         1 8LR         0.0586
     59 H5        -86.6703  -75.2781   57.3849 H         1 8LR         0.0937
     60 H6        -87.2396  -74.8383   53.7734 H         1 8LR         0.0647
     61 H7        -85.3132  -74.6438   52.1407 H         1 8LR         0.0584
     62 H8        -85.4796  -76.2610   52.9046 H         1 8LR         0.0584
     63 H9        -83.7461  -74.1665   53.7798 H         1 8LR         0.2095
     64 H10       -85.0203  -72.8980   54.5143 H         1 8LR         0.0647
     65 H11       -85.8033  -72.7822   52.3034 H         1 8LR         0.2100
     66 H12       -88.0207  -72.8466   54.9511 H         1 8LR         0.0648
     67 H13       -87.4248  -70.9075   56.1662 H         1 8LR         0.2100
     68 H14       -87.5009  -72.9384   57.3008 H         1 8LR         0.0671
     69 H15       -85.2977  -72.1132   57.1689 H         1 8LR         0.2101
     70 H16       -89.7345  -78.0894   53.6701 H         1 GLY         0.2375
     71 H17       -91.2772  -78.4535   54.1143 H         1 GLY         0.2375
     72 H18       -90.6204  -80.6411   54.7889 H         1 GLY         0.1073
     73 H19       -88.9632  -80.2367   54.2259 H         1 GLY         0.1073
     74 H20       -89.6750  -78.5759   51.8397 H         1 TRP         0.1886
     75 H21       -91.5964  -79.5518   50.1198 H         1 TRP         0.0815
     76 H22       -88.7069  -78.8126   49.5714 H         1 TRP         0.0397
     77 H23       -90.0641  -77.6613   49.8146 H         1 TRP         0.0397
     78 H24       -88.3718  -79.7614   46.9854 H         1 TRP         0.0795
     79 H25       -89.6178  -79.4260   44.7901 H         1 TRP         0.2216
     80 H26       -92.5445  -77.2978   48.7887 H         1 TRP         0.0540
     81 H27       -92.0507  -78.2822   43.9149 H         1 TRP         0.0541
     82 H28       -94.3285  -76.6069   47.1750 H         1 TRP         0.0510
     83 H29       -94.0647  -77.1089   44.7456 H         1 TRP         0.0530
     84 H30       -88.0952  -80.9712   50.3196 H         1 TYR         0.1885
     85 H31       -88.8100  -82.8511   48.2512 H         1 TYR         0.0821
     86 H32       -86.6252  -83.8362   48.8117 H         1 TYR         0.0453
     87 H33       -86.5914  -82.9366   50.3662 H         1 TYR         0.0453
     88 H34       -86.6603  -82.5301   46.6612 H         1 TYR         0.0530
     89 H35       -85.8089  -80.6949   50.4358 H         1 TYR         0.0530
     90 H36       -85.6253  -80.6175   45.4899 H         1 TYR         0.0525
     91 H37       -84.7450  -78.7831   49.2632 H         1 TYR         0.0525
     92 H38       -83.6164  -78.3933   46.8600 H         1 TYR         0.2458
     93 H39       -89.2110  -82.7842   51.8465 H         1 XSN         0.1884
     94 H40       -90.1525  -84.2480   53.3118 H         1 XSN         0.0819
     95 H41       -90.7201  -86.6113   52.3680 H         1 XSN         0.0478
     96 H42       -90.4192  -85.8583   50.7651 H         1 XSN         0.0478
     97 H43       -88.8446  -87.2715   51.8136 H         1 XSN         0.1815
     98 H44       -87.3607  -87.2998   52.7066 H         1 XSN         0.1815
@<TRIPOS>BOND
     1    1    2 1  
     2   16    1 1  
     3    2    3 1  
     4    3    4 1  
     5    4    5 1  
     6    5    6 1  
     7    5   14 1  
     8    6    7 1  
     9    7    8 1  
    10    7   10 1  
    11    8    9 1  
    12   10   11 1  
    13   12   10 1  
    14   12   13 1  
    15   14   12 1  
    16   14   15 1  
    17   17   16 1  
    18   18   17 1  
    19   18   19 2  
    20   20   18 am 
    21   21   20 1  
    22   22   21 1  
    23   21   24 1  
    24   22   23 2  
    25   34   22 am 
    26   24   25 1  
    27   25   26 2  
    28   25   27 1  
    29   26   28 1  
    30   27   29 ar 
    31   27   30 ar 
    32   29   28 1  
    33   29   31 ar 
    34   30   32 ar 
    35   31   33 ar 
    36   32   33 ar 
    37   35   34 1  
    38   36   35 1  
    39   35   38 1  
    40   36   37 2  
    41   47   36 am 
    42   38   39 1  
    43   39   40 ar 
    44   39   41 ar 
    45   40   42 ar 
    46   41   43 ar 
    47   42   44 ar 
    48   43   44 ar 
    49   44   45 1  
    50   46   48 2  
    51   49   46 1  
    52   46   54 am 
    53   47   49 1  
    54   49   50 1  
    55   50   51 1  
    56   51   52 ar 
    57   51   53 ar 
    58    2   55 1  
    59    2   56 1  
    60    3   57 1  
    61    3   58 1  
    62    5   59 1  
    63    7   60 1  
    64    8   61 1  
    65    8   62 1  
    66    9   63 1  
    67   10   64 1  
    68   11   65 1  
    69   12   66 1  
    70   13   67 1  
    71   14   68 1  
    72   15   69 1  
    73   16   70 1  
    74   16   71 1  
    75   17   72 1  
    76   17   73 1  
    77   20   74 1  
    78   21   75 1  
    79   24   76 1  
    80   24   77 1  
    81   26   78 1  
    82   28   79 1  
    83   30   80 1  
    84   31   81 1  
    85   32   82 1  
    86   33   83 1  
    87   34   84 1  
    88   35   85 1  
    89   38   86 1  
    90   38   87 1  
    91   40   88 1  
    92   41   89 1  
    93   42   90 1  
    94   43   91 1  
    95   45   92 1  
    96   47   93 1  
    97   49   94 1  
    98   50   95 1  
    99   50   96 1  
   100   54   97 1  
   101   54   98 1  
@<TRIPOS>SUBSTRUCTURE
     1 8LR         1

