### 
### Created by X-TOOL on Mon Sep 10 21:13:19 2018
### 

@<TRIPOS>MOLECULE
4d08_ligand
   61    65     1     0     0
SMALL
GAST_HUCK


@<TRIPOS>ATOM
      1 C32        -5.9560   26.6080   18.7600 C.3       1 Q2T        -0.0652
      2 C31        -5.9650   25.1050   18.5910 C.3       1 Q2T        -0.0535
      3 C30        -4.5730   24.4930   18.6630 C.3       1 Q2T        -0.0251
      4 C29        -4.5510   23.0350   18.2730 C.3       1 Q2T         0.0721
      5 O28        -3.1880   22.6400   18.0350 O.3       1 Q2T        -0.3103
      6 C26        -2.3630   22.3810   19.1020 C.ar      1 Q2T         0.1203
      7 C25        -1.0570   22.0360   18.7890 C.ar      1 Q2T         0.0405
      8 N24        -0.1280   21.7750   19.7160 N.ar      1 Q2T        -0.3044
      9 C23        -0.4950   21.8430   20.9990 C.ar      1 Q2T         0.0141
     10 C27        -2.7240   22.4490   20.4390 C.ar      1 Q2T        -0.0002
     11 C22        -1.7790   22.1670   21.4160 C.ar      1 Q2T         0.0530
     12 C9         -2.1980   22.1360   22.8250 C.2       1 Q2T         0.1856
     13 N8         -3.1530   21.3520   23.2720 N.2       1 Q2T        -0.2381
     14 N7         -3.1620   21.4210   24.6600 N.2       1 Q2T        -0.2378
     15 C1         -2.2070   22.2610   25.0180 C.2       1 Q2T         0.2063
     16 C6         -1.7460   22.6460   26.3170 C.2       1 Q2T         0.0899
     17 C14        -2.4230   22.0660   27.5150 C.3       1 Q2T        -0.0007
     18 N5         -0.7690   23.4690   26.4730 N.2       1 Q2T        -0.2891
     19 N2         -1.5840   22.7770   23.8820 N.pl3     1 Q2T        -0.1607
     20 C3         -0.5440   23.7430   24.0460 C.ar      1 Q2T         0.1220
     21 C13         0.0220   24.4600   22.9920 C.ar      1 Q2T        -0.0171
     22 C12         0.9590   25.4650   23.2120 C.ar      1 Q2T        -0.0018
     23 C11         1.3670   25.7120   24.5130 C.ar      1 Q2T        -0.0596
     24 C10         0.8170   25.0230   25.5790 C.ar      1 Q2T        -0.0516
     25 C4         -0.1590   24.0470   25.3660 C.ar      1 Q2T         0.0623
     26 C15         1.3970   26.3750   22.0860 C.3       1 Q2T         0.0006
     27 N16         2.3320   25.7910   21.1070 N.4       1 Q2T         0.2504
     28 C21         2.8820   24.5020   21.5440 C.3       1 Q2T        -0.0064
     29 C20         3.8230   23.9610   20.4980 C.3       1 Q2T         0.0878
     30 O19         4.8860   24.8680   20.2280 O.3       1 Q2T        -0.3693
     31 C18         4.3610   26.1170   19.7960 C.3       1 Q2T         0.0878
     32 C17         3.4380   26.7140   20.8220 C.3       1 Q2T        -0.0064
     33 H          -6.9857   26.9900   18.6988 H         1 Q2T         0.0230
     34 H          -5.3483   27.0629   17.9639 H         1 Q2T         0.0230
     35 H          -5.5275   26.8642   19.7402 H         1 Q2T         0.0230
     36 H          -6.4040   24.8644   17.6115 H         1 Q2T         0.0263
     37 H          -6.5832   24.6658   19.3878 H         1 Q2T         0.0263
     38 H          -4.2017   24.5860   19.6942 H         1 Q2T         0.0291
     39 H          -3.9100   25.0481   17.9831 H         1 Q2T         0.0291
     40 H          -5.1438   22.8878   17.3582 H         1 Q2T         0.0616
     41 H          -4.9752   22.4281   19.0864 H         1 Q2T         0.0616
     42 H          -0.7753   21.9748   17.7440 H         1 Q2T         0.0757
     43 H           0.2515   21.6335   21.7566 H         1 Q2T         0.0755
     44 H          -3.7355   22.7201   20.7190 H         1 Q2T         0.0676
     45 H          -1.9533   22.4602   28.4283 H         1 Q2T         0.0464
     46 H          -2.3261   20.9704   27.4964 H         1 Q2T         0.0464
     47 H          -3.4882   22.3402   27.5029 H         1 Q2T         0.0464
     48 H          -0.2756   24.2285   21.9757 H         1 Q2T         0.0523
     49 H           2.1308   26.4585   24.6987 H         1 Q2T         0.0523
     50 H           1.1463   25.2425   26.5882 H         1 Q2T         0.0582
     51 H           1.8847   27.2534   22.5340 H         1 Q2T         0.0980
     52 H           0.4959   26.6937   21.5415 H         1 Q2T         0.0980
     53 H           1.8205   25.6364   20.2523 H         1 Q2T         0.2050
     54 H           2.0592   23.7883   21.6977 H         1 Q2T         0.0837
     55 H           3.4284   24.6406   22.4886 H         1 Q2T         0.0837
     56 H           3.2605   23.7842   19.5694 H         1 Q2T         0.0613
     57 H           4.2469   23.0113   20.8564 H         1 Q2T         0.0613
     58 H           3.8038   25.9654   18.8598 H         1 Q2T         0.0613
     59 H           5.1946   26.8124   19.6182 H         1 Q2T         0.0613
     60 H           3.9995   26.9053   21.7483 H         1 Q2T         0.0837
     61 H           3.0312   27.6609   20.4375 H         1 Q2T         0.0837
@<TRIPOS>BOND
     1    1    2 1  
     2    2    3 1  
     3    3    4 1  
     4    4    5 1  
     5    5    6 1  
     6    6    7 ar 
     7    6   10 ar 
     8    7    8 ar 
     9    8    9 ar 
    10    9   11 ar 
    11   10   11 ar 
    12   11   12 1  
    13   12   13 2  
    14   12   19 1  
    15   13   14 1  
    16   14   15 2  
    17   15   16 1  
    18   15   19 1  
    19   16   17 1  
    20   16   18 2  
    21   18   25 1  
    22   19   20 1  
    23   20   21 ar 
    24   20   25 ar 
    25   21   22 ar 
    26   22   23 ar 
    27   22   26 1  
    28   23   24 ar 
    29   24   25 ar 
    30   26   27 1  
    31   27   28 1  
    32   27   32 1  
    33   28   29 1  
    34   29   30 1  
    35   30   31 1  
    36   31   32 1  
    37    1   33 1  
    38    1   34 1  
    39    1   35 1  
    40    2   36 1  
    41    2   37 1  
    42    3   38 1  
    43    3   39 1  
    44    4   40 1  
    45    4   41 1  
    46    7   42 1  
    47    9   43 1  
    48   10   44 1  
    49   17   45 1  
    50   17   46 1  
    51   17   47 1  
    52   21   48 1  
    53   23   49 1  
    54   24   50 1  
    55   26   51 1  
    56   26   52 1  
    57   27   53 1  
    58   28   54 1  
    59   28   55 1  
    60   29   56 1  
    61   29   57 1  
    62   31   58 1  
    63   31   59 1  
    64   32   60 1  
    65   32   61 1  
@<TRIPOS>SUBSTRUCTURE
     1 Q2T         1

