### 
### Created by X-TOOL on Mon Sep 10 21:13:19 2018
### 

@<TRIPOS>MOLECULE
4d09_ligand
   49    53     1     0     0
SMALL
GAST_HUCK


@<TRIPOS>ATOM
      1 O23        37.4020  -25.1420   24.6430 O.2       1 788        -0.3857
      2 C14        37.2210  -24.5530   25.7090 C.2       1 788         0.2036
      3 N15        37.5590  -23.2720   25.8860 N.am      1 788        -0.2753
      4 C16        38.4190  -22.5530   24.9590 C.3       1 788         0.0639
      5 C17        37.6270  -21.8460   23.8900 C.ar      1 788        -0.0211
      6 C22        36.5670  -21.0220   24.2310 C.ar      1 788        -0.0584
      7 C21        35.7930  -20.4210   23.2540 C.ar      1 788        -0.0685
      8 C20        36.0720  -20.6330   21.9210 C.ar      1 788        -0.0687
      9 C19        37.1310  -21.4450   21.5670 C.ar      1 788        -0.0685
     10 C18        37.9050  -22.0450   22.5460 C.ar      1 788        -0.0584
     11 C3         36.5950  -25.2460   26.8790 C.ar      1 788         0.0449
     12 C2         37.0120  -24.9190   28.1610 C.ar      1 788        -0.0491
     13 C4         35.5700  -26.1690   26.7110 C.ar      1 788        -0.0041
     14 C5         34.9680  -26.7710   27.8180 C.ar      1 788         0.1325
     15 N10        33.8820  -27.6900   27.7080 N.pl3     1 788        -0.1588
     16 C11        33.1840  -28.3170   26.6900 C.2       1 788         0.1816
     17 C25        33.4950  -28.2710   25.2460 C.ar      1 788         0.0355
     18 C30        34.7840  -28.5250   24.7830 C.ar      1 788        -0.0468
     19 C29        35.0650  -28.4820   23.4270 C.ar      1 788        -0.0591
     20 C28        34.0710  -28.1910   22.5190 C.ar      1 788        -0.0600
     21 C27        32.7910  -27.9430   22.9620 C.ar      1 788        -0.0591
     22 C26        32.4980  -27.9840   24.3140 C.ar      1 788        -0.0468
     23 N12        32.2250  -29.0570   27.1980 N.2       1 788        -0.2394
     24 N13        32.2890  -28.9610   28.5870 N.2       1 788        -0.2371
     25 C9         33.2890  -28.1530   28.8800 C.2       1 788         0.2087
     26 C8         33.8100  -27.7590   30.1590 C.2       1 788         0.0934
     27 C24        33.2040  -28.3440   31.3910 C.3       1 788         0.0011
     28 N7         34.8060  -26.9500   30.2640 N.2       1 788        -0.2827
     29 C6         35.3950  -26.4280   29.1180 C.ar      1 788         0.0709
     30 C1         36.4220  -25.4980   29.2680 C.ar      1 788        -0.0426
     31 H          37.2067  -22.7887   26.6875 H         1 788         0.1870
     32 H          39.1026  -23.2693   24.4798 H         1 788         0.0683
     33 H          39.0026  -21.8083   25.5201 H         1 788         0.0683
     34 H          36.3410  -20.8458   25.2764 H         1 788         0.0557
     35 H          34.9649  -19.7817   23.5378 H         1 788         0.0599
     36 H          35.4638  -20.1651   21.1554 H         1 788         0.0559
     37 H          37.3571  -21.6132   20.5203 H         1 788         0.0599
     38 H          38.7374  -22.6772   22.2587 H         1 788         0.0557
     39 H          37.8115  -24.1995   28.2960 H         1 788         0.0613
     40 H          35.2348  -26.4239   25.7121 H         1 788         0.0640
     41 H          35.5730  -28.7580   25.4888 H         1 788         0.0644
     42 H          36.0726  -28.6784   23.0788 H         1 788         0.0622
     43 H          34.2956  -28.1573   21.4591 H         1 788         0.0632
     44 H          32.0084  -27.7143   22.2477 H         1 788         0.0622
     45 H          31.4859  -27.7916   24.6511 H         1 788         0.0644
     46 H          33.7147  -27.9407   32.2779 H         1 788         0.0472
     47 H          33.3147  -29.4382   31.3701 H         1 788         0.0472
     48 H          32.1360  -28.0842   31.4332 H         1 788         0.0472
     49 H          36.7607  -25.2267   30.2613 H         1 788         0.0599
@<TRIPOS>BOND
     1    1    2 2  
     2    2    3 am 
     3    2   11 1  
     4    3    4 1  
     5    4    5 1  
     6    5    6 ar 
     7    5   10 ar 
     8    6    7 ar 
     9    7    8 ar 
    10    8    9 ar 
    11    9   10 ar 
    12   11   12 ar 
    13   11   13 ar 
    14   12   30 ar 
    15   13   14 ar 
    16   14   15 1  
    17   14   29 ar 
    18   15   16 1  
    19   15   25 1  
    20   16   17 1  
    21   16   23 2  
    22   17   18 ar 
    23   17   22 ar 
    24   18   19 ar 
    25   19   20 ar 
    26   20   21 ar 
    27   21   22 ar 
    28   23   24 1  
    29   24   25 2  
    30   25   26 1  
    31   26   27 1  
    32   26   28 2  
    33   28   29 1  
    34   29   30 ar 
    35    3   31 1  
    36    4   32 1  
    37    4   33 1  
    38    6   34 1  
    39    7   35 1  
    40    8   36 1  
    41    9   37 1  
    42   10   38 1  
    43   12   39 1  
    44   13   40 1  
    45   18   41 1  
    46   19   42 1  
    47   20   43 1  
    48   21   44 1  
    49   22   45 1  
    50   27   46 1  
    51   27   47 1  
    52   27   48 1  
    53   30   49 1  
@<TRIPOS>SUBSTRUCTURE
     1 788         1

