### 
### Created by X-TOOL on Mon Sep 10 21:13:17 2018
### 

@<TRIPOS>MOLECULE
4d0w_ligand
   37    39     1     0     0
SMALL
GAST_HUCK


@<TRIPOS>ATOM
      1 C16        32.0990   -9.1610    3.2170 C.ar      1 VVQ        -0.0231
      2 C17        32.8050   -8.1840    2.5110 C.ar      1 VVQ         0.0059
      3 N18        33.8890   -8.5240    1.7790 N.ar      1 VVQ        -0.2642
      4 C19        34.3510   -9.8530    1.7770 C.ar      1 VVQ         0.1779
      5 N21        35.4370  -10.1670    1.0330 N.pl3     1 VVQ        -0.3048
      6 N20        33.6990  -10.8010    2.5050 N.ar      1 VVQ        -0.2604
      7 C15        32.5290  -10.4930    3.2120 C.ar      1 VVQ         0.0648
      8 C11        31.8680  -11.4990    3.8500 C.2       1 VVQ         0.0853
      9 N7         32.3460  -12.7750    3.8300 N.pl3     1 VVQ        -0.2687
     10 C10        30.6370  -11.4790    4.4830 C.2       1 VVQ        -0.0398
     11 C9         30.3560  -12.7630    4.9150 C.2       1 VVQ         0.0514
     12 C12        29.1480  -13.2080    5.5680 C.2       1 VVQ         0.1817
     13 O13        28.1020  -12.5520    5.6870 O.2       1 VVQ        -0.3984
     14 N14        29.0150  -14.4320    5.9520 N.am      1 VVQ        -0.3045
     15 C8         31.4250  -13.5400    4.5120 C.2       1 VVQ         0.0890
     16 C1         31.6550  -14.8910    4.6000 C.ar      1 VVQ         0.0150
     17 C6         32.3030  -15.4880    5.7010 C.ar      1 VVQ        -0.0428
     18 C5         32.6070  -16.8470    5.7480 C.ar      1 VVQ         0.0342
     19 CL         33.4580  -17.5610    7.1580 Cl        1 VVQ        -0.0768
     20 C4         32.3390  -17.7630    4.7460 C.ar      1 VVQ        -0.0541
     21 C3         31.7160  -17.1790    3.6410 C.ar      1 VVQ        -0.0581
     22 C2         31.3870  -15.8070    3.5600 C.ar      1 VVQ        -0.0327
     23 C22        30.8340  -15.4160    2.3290 C.3       1 VVQ        -0.0289
     24 H          31.2105   -8.8852    3.7735 H         1 VVQ         0.0629
     25 H          32.4824   -7.1499    2.5504 H         1 VVQ         0.0864
     26 H          35.9172   -9.4362    0.4887 H         1 VVQ         0.1823
     27 H          35.7833  -11.1368    1.0110 H         1 VVQ         0.1823
     28 H          33.2197  -13.1017    3.3931 H         1 VVQ         0.2342
     29 H          30.0010  -10.6053    4.6174 H         1 VVQ         0.0457
     30 H          28.1723  -14.7257    6.4031 H         1 VVQ         0.1799
     31 H          29.7546  -15.0873    5.7986 H         1 VVQ         0.1799
     32 H          32.5756  -14.8645    6.5448 H         1 VVQ         0.0614
     33 H          32.5852  -18.8166    4.8115 H         1 VVQ         0.0609
     34 H          31.4708  -17.8142    2.7975 H         1 VVQ         0.0557
     35 H          30.6093  -14.3395    2.3534 H         1 VVQ         0.0402
     36 H          29.9071  -15.9800    2.1477 H         1 VVQ         0.0402
     37 H          31.5526  -15.6223    1.5221 H         1 VVQ         0.0402
@<TRIPOS>BOND
     1    1    2 ar 
     2    1    7 ar 
     3    2    3 ar 
     4    3    4 ar 
     5    4    5 1  
     6    4    6 ar 
     7    6    7 ar 
     8    7    8 1  
     9    8    9 1  
    10    8   10 2  
    11    9   15 1  
    12   10   11 1  
    13   11   12 1  
    14   11   15 2  
    15   12   13 2  
    16   12   14 am 
    17   15   16 1  
    18   16   17 ar 
    19   16   22 ar 
    20   17   18 ar 
    21   18   19 1  
    22   18   20 ar 
    23   20   21 ar 
    24   21   22 ar 
    25   22   23 1  
    26    1   24 1  
    27    2   25 1  
    28    5   26 1  
    29    5   27 1  
    30    9   28 1  
    31   10   29 1  
    32   14   30 1  
    33   14   31 1  
    34   17   32 1  
    35   20   33 1  
    36   21   34 1  
    37   23   35 1  
    38   23   36 1  
    39   23   37 1  
@<TRIPOS>SUBSTRUCTURE
     1 VVQ         1

