### 
### Created by X-TOOL on Mon Sep 10 21:13:17 2018
### 

@<TRIPOS>MOLECULE
4d0x_ligand
   37    39     1     0     0
SMALL
GAST_HUCK


@<TRIPOS>ATOM
      1 CL         30.6670  -14.9690    1.7840 Cl        1 953        -0.0403
      2 C25        31.1840  -15.7410    3.2490 C.ar      1 953         0.0820
      3 C24        31.3330  -17.1240    3.2270 C.ar      1 953        -0.0174
      4 C23        31.8350  -17.6960    4.3280 C.ar      1 953        -0.0316
      5 C18        32.1490  -16.9100    5.4610 C.ar      1 953         0.0475
      6 C19        32.7040  -17.6310    6.6520 C.3       1 953         0.3758
      7 F22        32.8540  -16.8390    7.6950 F         1 953        -0.2213
      8 F21        33.9640  -17.9470    6.3790 F         1 953        -0.2213
      9 F20        31.9980  -18.7250    6.8920 F         1 953        -0.2213
     10 C17        31.9990  -15.5360    5.4930 C.ar      1 953        -0.0212
     11 C16        31.4860  -14.9330    4.3740 C.ar      1 953         0.0541
     12 C15        31.3600  -13.4660    4.3250 C.2       1 953         0.0992
     13 N1         32.2630  -12.6750    3.6360 N.pl3     1 953        -0.2668
     14 C11        30.3380  -12.6300    4.8250 C.2       1 953         0.0542
     15 C12        29.1080  -13.1810    5.5370 C.2       1 953         0.1832
     16 N14        29.0520  -14.3880    5.9740 N.am      1 953        -0.3042
     17 O13        28.0990  -12.4590    5.6910 O.2       1 953        -0.3974
     18 C10        30.6420  -11.3100    4.4660 C.2       1 953        -0.0379
     19 C2         31.8680  -11.3760    3.7540 C.2       1 953         0.0872
     20 C3         32.5710  -10.2600    3.1130 C.ar      1 953         0.0663
     21 C9         32.1470   -8.9490    3.1970 C.ar      1 953        -0.0224
     22 C8         32.8770   -8.0090    2.5180 C.ar      1 953         0.0064
     23 N7         33.9600   -8.3640    1.7890 N.ar      1 953        -0.2636
     24 C5         34.3520   -9.6710    1.7070 C.ar      1 953         0.1785
     25 N4         33.6780  -10.6200    2.3890 N.ar      1 953        -0.2595
     26 N6         35.4580  -10.0880    1.0020 N.pl3     1 953        -0.3047
     27 H          31.0555  -17.7109    2.3589 H         1 953         0.0703
     28 H          32.0017  -18.7669    4.3514 H         1 953         0.0849
     29 H          32.2759  -14.9588    6.3678 H         1 953         0.0857
     30 H          33.0907  -13.0103    3.1227 H         1 953         0.2350
     31 H          28.2277  -14.7146    6.4365 H         1 953         0.1800
     32 H          29.8327  -15.0008    5.8516 H         1 953         0.1800
     33 H          30.0581  -10.4178    4.6876 H         1 953         0.0461
     34 H          31.2727   -8.6745    3.7761 H         1 953         0.0632
     35 H          32.5828   -6.9668    2.5656 H         1 953         0.0866
     36 H          36.0116   -9.4073    0.4625 H         1 953         0.1824
     37 H          35.7321  -11.0808    1.0139 H         1 953         0.1824
@<TRIPOS>BOND
     1    1    2 1  
     2    2    3 ar 
     3    2   11 ar 
     4    3    4 ar 
     5    4    5 ar 
     6    5    6 1  
     7    5   10 ar 
     8    6    7 1  
     9    6    8 1  
    10    6    9 1  
    11   10   11 ar 
    12   11   12 1  
    13   12   13 1  
    14   12   14 2  
    15   13   19 1  
    16   14   15 1  
    17   14   18 1  
    18   15   16 am 
    19   15   17 2  
    20   18   19 2  
    21   19   20 1  
    22   20   21 ar 
    23   20   25 ar 
    24   21   22 ar 
    25   22   23 ar 
    26   23   24 ar 
    27   24   25 ar 
    28   24   26 1  
    29    3   27 1  
    30    4   28 1  
    31   10   29 1  
    32   13   30 1  
    33   16   31 1  
    34   16   32 1  
    35   18   33 1  
    36   21   34 1  
    37   22   35 1  
    38   26   36 1  
    39   26   37 1  
@<TRIPOS>SUBSTRUCTURE
     1 953         1

