### 
### Created by X-TOOL on Mon Sep 10 21:13:20 2018
### 

@<TRIPOS>MOLECULE
4d1a_ligand
   28    30     1     0     0
SMALL
GAST_HUCK


@<TRIPOS>ATOM
      1 N1          2.4860    6.9090   27.7500 N.pl3     1 I5H        -0.2890
      2 C2          2.6050    8.1130   27.1520 C.2       1 I5H         0.0167
      3 C3          2.3990    9.1190   28.0770 C.2       1 I5H        -0.0418
      4 C4          2.1420    8.4830   29.3040 C.ar      1 I5H        -0.0214
      5 C5          1.8620    8.9430   30.5910 C.ar      1 I5H        -0.0747
      6 C6          1.6500    8.0040   31.6110 C.ar      1 I5H        -0.0792
      7 C7          1.7140    6.6490   31.3560 C.ar      1 I5H        -0.0768
      8 C8          1.9890    6.1560   30.0880 C.ar      1 I5H        -0.0443
      9 C9          2.1990    7.0950   29.0750 C.ar      1 I5H         0.0603
     10 C10         2.4430   10.6250   27.8140 C.3       1 I5H         0.0045
     11 C11         3.5360   10.9100   26.8780 C.3       1 I5H         0.1409
     12 C12         3.2710   12.2170   26.2220 C.2       1 I5H         0.2311
     13 N13         4.3380   13.0970   26.5580 N.am      1 I5H        -0.1832
     14 C14         5.2750   12.3660   27.4130 C.2       1 I5H         0.2900
     15 N15         4.7600   11.0160   27.5970 N.am      1 I5H        -0.2457
     16 O16         2.3170   12.4790   25.5320 O.2       1 I5H        -0.3842
     17 O17         6.2910   12.7940   27.8850 O.2       1 I5H        -0.3914
     18 H           2.5939    5.9968   27.2840 H         1 I5H         0.2216
     19 H           2.8298    8.2686   26.0979 H         1 I5H         0.0795
     20 H           1.8093   10.0056   30.7986 H         1 I5H         0.0540
     21 H           1.4324    8.3479   32.6157 H         1 I5H         0.0510
     22 H           1.5449    5.9510   32.1680 H         1 I5H         0.0530
     23 H           2.0386    5.0909   29.8926 H         1 I5H         0.0541
     24 H           2.6167   11.1604   28.7591 H         1 I5H         0.0397
     25 H           1.4878   10.9521   27.3774 H         1 I5H         0.0397
     26 H           3.6062   10.1113   26.1249 H         1 I5H         0.0817
     27 H           4.4313   14.0476   26.2620 H         1 I5H         0.2255
     28 H           5.1907   10.2908   28.1342 H         1 I5H         0.1885
@<TRIPOS>BOND
     1    1    2 1  
     2    1    9 1  
     3    2    3 2  
     4    3    4 1  
     5    3   10 1  
     6    4    5 ar 
     7    4    9 ar 
     8    5    6 ar 
     9    6    7 ar 
    10    7    8 ar 
    11    8    9 ar 
    12   10   11 1  
    13   11   12 1  
    14   11   15 1  
    15   12   13 am 
    16   12   16 2  
    17   13   14 am 
    18   14   15 am 
    19   14   17 2  
    20    1   18 1  
    21    2   19 1  
    22    5   20 1  
    23    6   21 1  
    24    7   22 1  
    25    8   23 1  
    26   10   24 1  
    27   10   25 1  
    28   11   26 1  
    29   13   27 1  
    30   15   28 1  
@<TRIPOS>SUBSTRUCTURE
     1 I5H         1

