### 
### Created by X-TOOL on Mon Sep 10 21:13:20 2018
### 

@<TRIPOS>MOLECULE
4d1b_ligand
   24    25     1     0     0
SMALL
GAST_HUCK


@<TRIPOS>ATOM
      1 N1          4.5920   11.7070  -24.6860 N.am      1 5FH        -0.2449
      2 C1          5.0900   13.0200  -25.0490 C.2       1 5FH         0.2901
      3 O1          6.0720   13.5750  -24.5770 O.2       1 5FH        -0.3914
      4 N2          4.2150   13.5610  -26.0690 N.am      1 5FH        -0.1832
      5 C2          3.1960   12.6010  -26.3330 C.2       1 5FH         0.2319
      6 O2          2.2860   12.7240  -27.1410 O.2       1 5FH        -0.3841
      7 C3          3.4300   11.4350  -25.4700 C.3       1 5FH         0.1461
      8 C4          2.2360   11.2180  -24.6000 C.3       1 5FH         0.0217
      9 C5          2.4190    9.9930  -23.7640 C.ar      1 5FH        -0.0386
     10 C6          2.3990    7.5390  -23.4580 C.ar      1 5FH        -0.0686
     11 C7          2.8200   10.1260  -22.3360 C.ar      1 5FH        -0.0601
     12 C8          2.9850    9.0160  -21.5610 C.ar      1 5FH        -0.0686
     13 C9          2.7660    7.6630  -22.1490 C.ar      1 5FH        -0.0687
     14 C10         2.2180    8.7550  -24.3010 C.ar      1 5FH        -0.0601
     15 H           4.9938   11.0966  -24.0034 H         1 5FH         0.1886
     16 H           4.3098   14.4531  -26.5109 H         1 5FH         0.2255
     17 H           3.5997   10.5391  -26.0852 H         1 5FH         0.0826
     18 H           1.3439   11.0960  -25.2319 H         1 5FH         0.0474
     19 H           2.1031   12.0896  -23.9422 H         1 5FH         0.0474
     20 H           2.2391    6.5555  -23.8848 H         1 5FH         0.0599
     21 H           2.9815   11.1098  -21.9105 H         1 5FH         0.0557
     22 H           3.2743    9.1168  -20.5212 H         1 5FH         0.0599
     23 H           2.8982    6.7781  -21.5370 H         1 5FH         0.0559
     24 H           1.9268    8.6557  -25.3404 H         1 5FH         0.0557
@<TRIPOS>BOND
     1    1    2 am 
     2    7    1 1  
     3    2    3 2  
     4    4    2 am 
     5    5    4 am 
     6    5    6 2  
     7    7    5 1  
     8    8    7 1  
     9    9    8 1  
    10    9   11 ar 
    11   14    9 ar 
    12   10   13 ar 
    13   10   14 ar 
    14   11   12 ar 
    15   12   13 ar 
    16    1   15 1  
    17    4   16 1  
    18    7   17 1  
    19    8   18 1  
    20    8   19 1  
    21   10   20 1  
    22   11   21 1  
    23   12   22 1  
    24   13   23 1  
    25   14   24 1  
@<TRIPOS>SUBSTRUCTURE
     1 5FH         1

