### 
### Created by X-TOOL on Mon Sep 10 21:13:20 2018
### 

@<TRIPOS>MOLECULE
4d1c_ligand
   22    23     1     0     0
SMALL
GAST_HUCK


@<TRIPOS>ATOM
      1 N10         4.2330   12.1670  -24.6780 N.2       1 B5H        -0.2091
      2 CA          3.1930   11.7400  -25.4370 C.2       1 B5H         0.1481
      3 CB          2.4740   10.5800  -25.3200 C.3       1 B5H         0.0587
      4 CG          2.4930    9.7120  -24.1050 C.ar      1 B5H        -0.0184
      5 CD1         2.7670   10.2230  -22.8410 C.ar      1 B5H        -0.0538
      6 CE1         2.7760    9.4010  -21.7240 C.ar      1 B5H        -0.0647
      7 CZ          2.5070    8.0520  -21.8480 C.ar      1 B5H        -0.0584
      8 CE2         2.2280    7.5310  -23.0990 C.ar      1 B5H         0.0073
      9 CD2         2.2200    8.3530  -24.2150 C.ar      1 B5H        -0.0469
     10 C           3.0280   12.7800  -26.3890 C.2       1 B5H         0.2873
     11 N11         3.9840   13.6810  -26.0680 N.am      1 B5H        -0.1833
     12 C2          4.7330   13.3390  -25.0330 C.2       1 B5H         0.2826
     13 BR1         1.8470    5.6400  -23.2940 Br        1 B5H        -0.0515
     14 O2          5.6600   13.9540  -24.5280 O.2       1 B5H        -0.3620
     15 O3          2.2120   12.8570  -27.2950 O.2       1 B5H        -0.3396
     16 H           2.8024    9.9388  -26.1513 H         1 B5H         0.0713
     17 H           1.4217   10.8635  -25.4691 H         1 B5H         0.0713
     18 H           2.9768   11.2804  -22.7270 H         1 B5H         0.0590
     19 H           2.9953    9.8195  -20.7484 H         1 B5H         0.0608
     20 H           2.5144    7.4089  -20.9754 H         1 B5H         0.0592
     21 H           1.9976    7.9301  -25.1880 H         1 B5H         0.0593
     22 H           4.1139   14.5352  -26.5715 H         1 B5H         0.2227
@<TRIPOS>BOND
     1    1    2 2  
     2    1   12 1  
     3    2    3 1  
     4    2   10 1  
     5    3    4 1  
     6    4    5 ar 
     7    4    9 ar 
     8    5    6 ar 
     9    6    7 ar 
    10    7    8 ar 
    11    8    9 ar 
    12    8   13 1  
    13   10   11 am 
    14   10   15 2  
    15   11   12 am 
    16   12   14 2  
    17    3   16 1  
    18    3   17 1  
    19    5   18 1  
    20    6   19 1  
    21    7   20 1  
    22    9   21 1  
    23   11   22 1  
@<TRIPOS>SUBSTRUCTURE
     1 B5H         1

