### 
### Created by X-TOOL on Mon Sep 10 21:13:20 2018
### 

@<TRIPOS>MOLECULE
4d1d_ligand
   30    32     1     0     0
SMALL
GAST_HUCK


@<TRIPOS>ATOM
      1 N10         4.0470   11.8000  -24.1410 N.am      1 5ND        -0.2449
      2 CA          2.8530   11.3170  -24.7540 C.3       1 5ND         0.1462
      3 CB          3.0450    9.9020  -25.1990 C.3       1 5ND         0.0219
      4 CG          2.8330    8.9890  -24.0430 C.ar      1 5ND        -0.0377
      5 CD1         2.0680    9.3980  -22.9590 C.ar      1 5ND        -0.0564
      6 CE1         1.8770    8.5560  -21.8790 C.ar      1 5ND        -0.0567
      7 CZ          2.4510    7.2970  -21.8690 C.ar      1 5ND        -0.0222
      8 CE2         3.2180    6.8800  -22.9440 C.ar      1 5ND        -0.0259
      9 CD2         3.4060    7.7270  -24.0270 C.ar      1 5ND        -0.0547
     10 C           2.5650   12.1630  -25.9160 C.2       1 5ND         0.2319
     11 N11         3.5790   13.1560  -26.0000 N.am      1 5ND        -0.1832
     12 C2          4.5050   12.9470  -24.9010 C.2       1 5ND         0.2901
     13 O2          5.5020   13.6180  -24.6630 O.2       1 5ND        -0.3914
     14 O3          1.6180   12.0360  -26.6780 O.2       1 5ND        -0.3841
     15 C1          3.7940    5.6220  -22.9360 C.ar      1 5ND        -0.0578
     16 C3          3.6030    4.7830  -21.8540 C.ar      1 5ND        -0.0637
     17 C5          2.8340    5.2000  -20.7780 C.ar      1 5ND        -0.0634
     18 C6          2.2590    6.4550  -20.7850 C.ar      1 5ND        -0.0568
     19 H           4.4897   11.4158  -23.3308 H         1 5ND         0.1886
     20 H           2.0192   11.3674  -24.0383 H         1 5ND         0.0826
     21 H           4.0668    9.7739  -25.5856 H         1 5ND         0.0476
     22 H           2.3205    9.6648  -25.9920 H         1 5ND         0.0476
     23 H           1.6175   10.3839  -22.9593 H         1 5ND         0.0586
     24 H           1.2761    8.8830  -21.0381 H         1 5ND         0.0620
     25 H           4.0062    7.3988  -24.8679 H         1 5ND         0.0531
     26 H           3.6433   13.8728  -26.6943 H         1 5ND         0.2255
     27 H           4.3943    5.2947  -23.7772 H         1 5ND         0.0603
     28 H           4.0550    3.7978  -21.8467 H         1 5ND         0.0611
     29 H           2.6843    4.5402  -19.9310 H         1 5ND         0.0598
     30 H           1.6582    6.7815  -19.9439 H         1 5ND         0.0619
@<TRIPOS>BOND
     1    1    2 1  
     2    1   12 am 
     3    2    3 1  
     4    2   10 1  
     5    3    4 1  
     6    4    5 ar 
     7    4    9 ar 
     8    5    6 ar 
     9    6    7 ar 
    10    7    8 ar 
    11    7   18 ar 
    12    8    9 ar 
    13    8   15 ar 
    14   10   11 am 
    15   10   14 2  
    16   11   12 am 
    17   12   13 2  
    18   15   16 ar 
    19   16   17 ar 
    20   17   18 ar 
    21    1   19 1  
    22    2   20 1  
    23    3   21 1  
    24    3   22 1  
    25    5   23 1  
    26    6   24 1  
    27    9   25 1  
    28   11   26 1  
    29   15   27 1  
    30   16   28 1  
    31   17   29 1  
    32   18   30 1  
@<TRIPOS>SUBSTRUCTURE
     1 5ND         1

