### 
### Created by X-TOOL on Mon Sep 10 21:13:17 2018
### 

@<TRIPOS>MOLECULE
4d1j_ligand
   25    25     1     0     0
SMALL
GAST_HUCK


@<TRIPOS>ATOM
      1 C1         64.0640   28.8140   33.2550 C.3       1 DGJ        -0.0040
      2 C2         62.8040   27.9600   33.3220 C.3       1 DGJ         0.1231
      3 O2         62.0920   27.8680   32.0360 O.3       1 DGJ        -0.3838
      4 C3         61.8360   28.5690   34.3460 C.3       1 DGJ         0.1171
      5 O3         60.6510   27.7810   34.5220 O.3       1 DGJ        -0.3862
      6 C4         62.5420   28.7350   35.6850 C.3       1 DGJ         0.1280
      7 O4         62.9970   27.4590   36.1680 O.3       1 DGJ        -0.3835
      8 C5         63.6950   29.7050   35.5130 C.3       1 DGJ         0.0301
      9 N5         64.6740   29.0830   34.5730 N.4       1 DGJ         0.2346
     10 C6         64.4120   30.0010   36.8250 C.3       1 DGJ         0.0893
     11 O6         63.6360   30.7150   37.7600 O.3       1 DGJ        -0.3894
     12 H          63.8059   29.7767   32.7896 H         1 DGJ         0.0840
     13 H          64.8040   28.2917   32.6308 H         1 DGJ         0.0840
     14 H          63.0880   26.9464   33.6414 H         1 DGJ         0.0674
     15 H          61.8335   28.7381   31.7555 H         1 DGJ         0.2101
     16 H          61.5346   29.5621   33.9815 H         1 DGJ         0.0649
     17 H          60.1927   27.7107   33.6928 H         1 DGJ         0.2100
     18 H          61.8333   29.1527   36.4152 H         1 DGJ         0.0678
     19 H          62.2523   26.8795   36.2782 H         1 DGJ         0.2102
     20 H          63.3145   30.6472   35.0917 H         1 DGJ         0.0900
     21 H          65.4542   29.7095   34.4510 H         1 DGJ         0.2019
     22 H          64.9992   28.2140   34.9668 H         1 DGJ         0.2019
     23 H          65.3118   30.5925   36.6004 H         1 DGJ         0.0614
     24 H          64.7065   29.0441   37.2805 H         1 DGJ         0.0614
     25 H          64.1466   30.8614   38.5476 H         1 DGJ         0.2097
@<TRIPOS>BOND
     1    1    2 1  
     2    1    9 1  
     3    2    3 1  
     4    2    4 1  
     5    4    5 1  
     6    4    6 1  
     7    6    7 1  
     8    6    8 1  
     9    8    9 1  
    10    8   10 1  
    11   10   11 1  
    12    1   12 1  
    13    1   13 1  
    14    2   14 1  
    15    3   15 1  
    16    4   16 1  
    17    5   17 1  
    18    6   18 1  
    19    7   19 1  
    20    8   20 1  
    21    9   21 1  
    22    9   22 1  
    23   10   23 1  
    24   10   24 1  
    25   11   25 1  
@<TRIPOS>SUBSTRUCTURE
     1 DGJ         1

