### 
### Created by X-TOOL on Mon Sep 10 21:13:19 2018
### 

@<TRIPOS>MOLECULE
4d1s_ligand
   68    72     1     0     0
SMALL
GAST_HUCK


@<TRIPOS>ATOM
      1 C8          1.9860   -1.6590    5.4110 C.3       1 BJG         0.0649
      2 C9          1.4030   -0.1800    5.2020 C.3       1 BJG        -0.0123
      3 N10         1.5260    0.2570    3.7910 N.4       1 BJG         0.2358
      4 C35         1.2470    1.7460    3.8280 C.3       1 BJG        -0.0430
      5 C11         2.9270    0.2580    3.3660 C.3       1 BJG        -0.0123
      6 C12         3.4550   -1.1630    3.2900 C.3       1 BJG         0.0649
      7 N7          3.1300   -1.9350    4.4700 N.pl3     1 BJG        -0.3045
      8 C16         3.9230   -3.0670    4.6970 C.ar      1 BJG         0.0297
      9 C17         5.2870   -2.9670    4.4870 C.ar      1 BJG        -0.0528
     10 C18         6.0720   -4.0920    4.7390 C.ar      1 BJG        -0.0489
     11 C15         3.3080   -4.2480    5.1450 C.ar      1 BJG        -0.0528
     12 C14         4.1250   -5.3720    5.3530 C.ar      1 BJG        -0.0489
     13 C13         5.5070   -5.2800    5.2070 C.ar      1 BJG         0.0529
     14 N34         6.1730   -6.4400    5.4840 N.pl3     1 BJG        -0.2502
     15 C23         7.5330   -6.7190    5.3830 C.ar      1 BJG         0.1985
     16 N24         8.4470   -5.8000    4.9950 N.ar      1 BJG        -0.2572
     17 N22         7.8960   -7.9760    5.7420 N.ar      1 BJG        -0.2611
     18 C21         9.2280   -8.3880    5.7390 C.ar      1 BJG         0.0065
     19 C20        10.1560   -7.4340    5.2850 C.ar      1 BJG        -0.0227
     20 C19         9.7850   -6.1180    4.9330 C.ar      1 BJG         0.0657
     21 C29        10.6970   -5.0990    4.6010 C.2       1 BJG         0.0876
     22 N25        10.3940   -3.8430    4.1220 N.pl3     1 BJG        -0.2570
     23 C33         9.1000   -3.4750    3.6140 C.3       1 BJG         0.0441
     24 C28        12.0240   -5.0640    4.8890 C.2       1 BJG        -0.0397
     25 C27        12.5010   -3.7940    4.5350 C.2       1 BJG         0.0515
     26 C30        13.8140   -3.3930    4.6360 C.2       1 BJG         0.1817
     27 O31        14.7520   -4.1860    4.4610 O.2       1 BJG        -0.3984
     28 N32        14.0260   -2.0550    4.9400 N.am      1 BJG        -0.3045
     29 C26        11.5080   -3.0550    4.0560 C.2       1 BJG         0.0912
     30 C1         11.4860   -1.7430    3.5300 C.ar      1 BJG         0.0152
     31 C2         12.1730   -1.4000    2.3490 C.ar      1 BJG        -0.0428
     32 C3         12.0560   -0.0840    1.8030 C.ar      1 BJG         0.0342
     33 CL1        12.9950    0.1610    0.3970 Cl        1 BJG        -0.0768
     34 C4         11.2720    0.9620    2.3650 C.ar      1 BJG        -0.0541
     35 C5         10.5800    0.6310    3.5520 C.ar      1 BJG        -0.0581
     36 C6         10.6600   -0.6850    4.0970 C.ar      1 BJG        -0.0327
     37 C36         9.8990   -0.9070    5.3050 C.3       1 BJG        -0.0289
     38 H           1.1849   -2.3895    5.2249 H         1 BJG         0.0562
     39 H           2.3417   -1.7608    6.4469 H         1 BJG         0.0562
     40 H           1.9615    0.5184    5.8426 H         1 BJG         0.0834
     41 H           0.3409   -0.1705    5.4880 H         1 BJG         0.0834
     42 H           0.9249   -0.2660    3.1736 H         1 BJG         0.2032
     43 H           1.3180    2.1577    2.8104 H         1 BJG         0.0778
     44 H           1.9849    2.2413    4.4762 H         1 BJG         0.0778
     45 H           0.2356    1.9198    4.2241 H         1 BJG         0.0778
     46 H           3.5257    0.8293    4.0906 H         1 BJG         0.0834
     47 H           3.0052    0.7277    2.3744 H         1 BJG         0.0834
     48 H           4.5490   -1.1282    3.1807 H         1 BJG         0.0562
     49 H           3.0142   -1.6574    2.4118 H         1 BJG         0.0562
     50 H           5.7319   -2.0425    4.1373 H         1 BJG         0.0490
     51 H           7.1414   -4.0431    4.5682 H         1 BJG         0.0507
     52 H           2.2397   -4.2906    5.3241 H         1 BJG         0.0490
     53 H           3.6758   -6.3190    5.6295 H         1 BJG         0.0507
     54 H           5.5855   -7.2188    5.8145 H         1 BJG         0.2144
     55 H           9.5281   -9.3774    6.0648 H         1 BJG         0.0865
     56 H          11.1982   -7.7205    5.2019 H         1 BJG         0.0631
     57 H           8.3875   -4.2924    3.7990 H         1 BJG         0.0579
     58 H           9.1704   -3.2877    2.5324 H         1 BJG         0.0579
     59 H           8.7522   -2.5635    4.1221 H         1 BJG         0.0579
     60 H          12.6109   -5.8752    5.3172 H         1 BJG         0.0457
     61 H          14.9582   -1.7036    5.0268 H         1 BJG         0.1799
     62 H          13.2465   -1.4427    5.0722 H         1 BJG         0.1799
     63 H          12.7931   -2.1372    1.8520 H         1 BJG         0.0614
     64 H          11.2097    1.9456    1.9136 H         1 BJG         0.0609
     65 H           9.9828    1.3842    4.0531 H         1 BJG         0.0557
     66 H          10.0317   -1.9476    5.6359 H         1 BJG         0.0402
     67 H           8.8336   -0.7183    5.1071 H         1 BJG         0.0402
     68 H          10.2524   -0.2242    6.0917 H         1 BJG         0.0402
@<TRIPOS>BOND
     1    1    2 1  
     2    1    7 1  
     3    2    3 1  
     4    3    4 1  
     5    3    5 1  
     6    5    6 1  
     7    6    7 1  
     8    7    8 1  
     9    8    9 ar 
    10    8   11 ar 
    11    9   10 ar 
    12   10   13 ar 
    13   11   12 ar 
    14   12   13 ar 
    15   13   14 1  
    16   14   15 1  
    17   15   16 ar 
    18   15   17 ar 
    19   16   20 ar 
    20   17   18 ar 
    21   18   19 ar 
    22   19   20 ar 
    23   20   21 1  
    24   21   22 1  
    25   21   24 2  
    26   22   23 1  
    27   22   29 1  
    28   24   25 1  
    29   25   26 1  
    30   25   29 2  
    31   26   27 2  
    32   26   28 am 
    33   29   30 1  
    34   30   31 ar 
    35   30   36 ar 
    36   31   32 ar 
    37   32   33 1  
    38   32   34 ar 
    39   34   35 ar 
    40   35   36 ar 
    41   36   37 1  
    42    1   38 1  
    43    1   39 1  
    44    2   40 1  
    45    2   41 1  
    46    3   42 1  
    47    4   43 1  
    48    4   44 1  
    49    4   45 1  
    50    5   46 1  
    51    5   47 1  
    52    6   48 1  
    53    6   49 1  
    54    9   50 1  
    55   10   51 1  
    56   11   52 1  
    57   12   53 1  
    58   14   54 1  
    59   18   55 1  
    60   19   56 1  
    61   23   57 1  
    62   23   58 1  
    63   23   59 1  
    64   24   60 1  
    65   28   61 1  
    66   28   62 1  
    67   31   63 1  
    68   34   64 1  
    69   35   65 1  
    70   37   66 1  
    71   37   67 1  
    72   37   68 1  
@<TRIPOS>SUBSTRUCTURE
     1 BJG         1

