### 
### Created by X-TOOL on Mon Sep 10 21:13:19 2018
### 

@<TRIPOS>MOLECULE
4d1y_ligand
   47    49     1     0     0
SMALL
GAST_HUCK


@<TRIPOS>ATOM
      1 N1        -35.0430   -7.4820   31.7770 N.2       1 RBF        -0.2549
      2 C2        -35.2090   -6.8610   32.9730 C.2       1 RBF         0.2439
      3 O2        -35.0130   -7.5090   34.0240 O.2       1 RBF        -0.3902
      4 N3        -35.5710   -5.5710   33.0750 N.am      1 RBF        -0.1938
      5 C4        -35.7970   -4.8040   32.0030 C.2       1 RBF         0.2704
      6 O4        -36.1360   -3.6090   32.1360 O.2       1 RBF        -0.3655
      7 C4A       -35.6430   -5.4080   30.6580 C.2       1 RBF         0.2076
      8 N5        -35.8570   -4.6970   29.5300 N.2       1 RBF        -0.2387
      9 C5A       -35.7110   -5.2720   28.3150 C.ar      1 RBF         0.0856
     10 C6        -35.9440   -4.5200   27.1700 C.ar      1 RBF        -0.0403
     11 C7        -35.7980   -5.0990   25.9150 C.ar      1 RBF        -0.0428
     12 C7M       -36.0510   -4.2780   24.6790 C.3       1 RBF        -0.0352
     13 C8        -35.3920   -6.5250   25.7950 C.ar      1 RBF        -0.0416
     14 C8M       -35.2360   -7.1480   24.4330 C.3       1 RBF        -0.0312
     15 C9        -35.1590   -7.2810   26.9380 C.ar      1 RBF        -0.0258
     16 C9A       -35.3050   -6.7030   28.1950 C.ar      1 RBF         0.1048
     17 N10       -35.0840   -7.4670   29.3610 N.pl3     1 RBF        -0.2138
     18 C10       -35.2380   -6.8320   30.6100 C.2       1 RBF         0.1894
     19 C1'       -34.6690   -8.8730   29.2640 C.3       1 RBF         0.0886
     20 C2'       -35.7470   -9.8610   29.6930 C.3       1 RBF         0.1101
     21 O2'       -35.9740   -9.7340   31.0990 O.3       1 RBF        -0.3865
     22 C3'       -35.2930  -11.2850   29.3900 C.3       1 RBF         0.1114
     23 O3'       -34.5770  -11.3130   28.1480 O.3       1 RBF        -0.3865
     24 C4'       -36.4680  -12.2570   29.3280 C.3       1 RBF         0.1065
     25 O4'       -37.6760  -11.5440   29.0390 O.3       1 RBF        -0.3869
     26 C5'       -36.6340  -13.0040   30.6450 C.3       1 RBF         0.0727
     27 O5'       -35.4940  -13.8430   30.8640 O.3       1 RBF        -0.3924
     28 H         -35.6752   -5.1701   33.9852 H         1 RBF         0.2248
     29 H         -36.2399   -3.4807   27.2557 H         1 RBF         0.0564
     30 H         -36.3387   -3.2569   24.9697 H         1 RBF         0.0366
     31 H         -36.8631   -4.7354   24.0948 H         1 RBF         0.0366
     32 H         -35.1362   -4.2416   24.0693 H         1 RBF         0.0366
     33 H         -34.9333   -8.1998   24.5434 H         1 RBF         0.0395
     34 H         -34.4670   -6.6027   23.8662 H         1 RBF         0.0395
     35 H         -36.1938   -7.0967   23.8944 H         1 RBF         0.0395
     36 H         -34.8637   -8.3203   26.8500 H         1 RBF         0.0493
     37 H         -33.7879   -9.0201   29.9059 H         1 RBF         0.0631
     38 H         -34.4004   -9.0845   28.2185 H         1 RBF         0.0631
     39 H         -36.6781   -9.6477   29.1475 H         1 RBF         0.0647
     40 H         -36.2581   -8.8487   31.2941 H         1 RBF         0.2100
     41 H         -34.6174  -11.6105   30.1947 H         1 RBF         0.0647
     42 H         -34.2971  -12.2023   27.9651 H         1 RBF         0.2100
     43 H         -36.2800  -12.9867   28.5267 H         1 RBF         0.0643
     44 H         -37.8349  -10.9027   29.7216 H         1 RBF         0.2100
     45 H         -37.5424  -13.6229   30.6037 H         1 RBF         0.0584
     46 H         -36.7205  -12.2803   31.4689 H         1 RBF         0.0584
     47 H         -35.5980  -14.3086   31.6855 H         1 RBF         0.2095
@<TRIPOS>BOND
     1    1    2 1  
     2    1   18 2  
     3    2    3 2  
     4    2    4 am 
     5    4    5 am 
     6    5    6 2  
     7    5    7 1  
     8    7    8 2  
     9    7   18 1  
    10    8    9 1  
    11    9   10 ar 
    12    9   16 ar 
    13   10   11 ar 
    14   11   12 1  
    15   11   13 ar 
    16   13   14 1  
    17   13   15 ar 
    18   15   16 ar 
    19   16   17 1  
    20   17   18 1  
    21   17   19 1  
    22   19   20 1  
    23   20   21 1  
    24   20   22 1  
    25   22   23 1  
    26   22   24 1  
    27   24   25 1  
    28   24   26 1  
    29   26   27 1  
    30    4   28 1  
    31   10   29 1  
    32   12   30 1  
    33   12   31 1  
    34   12   32 1  
    35   14   33 1  
    36   14   34 1  
    37   14   35 1  
    38   15   36 1  
    39   19   37 1  
    40   19   38 1  
    41   20   39 1  
    42   21   40 1  
    43   22   41 1  
    44   23   42 1  
    45   24   43 1  
    46   25   44 1  
    47   26   45 1  
    48   26   46 1  
    49   27   47 1  
@<TRIPOS>SUBSTRUCTURE
     1 RBF         1

