### 
### Created by X-TOOL on Mon Sep 10 21:13:19 2018
### 

@<TRIPOS>MOLECULE
4d2d_ligand
   33    32     1     0     0
SMALL
GAST_HUCK


@<TRIPOS>ATOM
      1 N         -22.7220  -18.7470   -6.1930 N.4       1 ALA         0.2377
      2 CA        -23.2590  -19.1760   -4.9080 C.3       1 ALA         0.0621
      3 C         -22.4650  -18.5710   -3.7570 C.2       1 ALA         0.2264
      4 O         -21.4250  -17.9470   -3.9700 O.2       1 ALA        -0.3907
      5 CB        -23.2590  -20.6930   -4.8110 C.3       1 ALA        -0.0040
      6 N         -22.9640  -18.7600   -2.5400 N.am      1 ALA        -0.2613
      7 CA        -22.2980  -18.2420   -1.3500 C.3       1 ALA         0.1283
      8 C         -22.7870  -18.9350   -0.0810 C.2       1 ALA         0.2031
      9 O         -22.3080  -20.0100    0.2690 O.2       1 ALA        -0.3944
     10 CB        -22.5020  -16.7350   -1.2390 C.3       1 ALA        -0.0244
     11 N         -23.7510  -18.3190    0.5940 N.am      1 ALA        -0.2698
     12 CA        -24.1710  -18.7520    1.9250 C.3       1 ALA         0.0916
     13 C         -22.9650  -18.8450    2.8520 C.2       1 ALA         0.0598
     14 O         -22.3530  -17.8280    3.1770 O.co2     1 ALA        -0.5666
     15 CB        -24.9070  -20.0860    1.8630 C.3       1 ALA        -0.0300
     16 OXT       -22.5700  -19.9280    3.2840 O.co2     1 ALA        -0.5666
     17 H         -23.2624  -19.1591   -6.9374 H         1 ALA         0.2015
     18 H         -21.7616  -19.0428   -6.2715 H         1 ALA         0.2015
     19 H         -22.7706  -17.7423   -6.2590 H         1 ALA         0.2015
     20 H         -24.2983  -18.8236   -4.8335 H         1 ALA         0.1095
     21 H         -23.6670  -20.9980   -3.8361 H         1 ALA         0.0310
     22 H         -22.2293  -21.0668   -4.9107 H         1 ALA         0.0310
     23 H         -23.8808  -21.1119   -5.6159 H         1 ALA         0.0310
     24 H         -23.8178  -19.2703   -2.4373 H         1 ALA         0.1884
     25 H         -21.2204  -18.4380   -1.4514 H         1 ALA         0.0797
     26 H         -21.9940  -16.3617   -0.3376 H         1 ALA         0.0277
     27 H         -23.5776  -16.5145   -1.1716 H         1 ALA         0.0277
     28 H         -22.0815  -16.2416   -2.1277 H         1 ALA         0.0277
     29 H         -24.2051  -17.5317    0.1769 H         1 ALA         0.1875
     30 H         -24.8619  -17.9982    2.3304 H         1 ALA         0.0723
     31 H         -25.2099  -20.3851    2.8773 H         1 ALA         0.0270
     32 H         -24.2421  -20.8523    1.4380 H         1 ALA         0.0270
     33 H         -25.8001  -19.9830    1.2291 H         1 ALA         0.0270
@<TRIPOS>BOND
     1    1    2 1  
     2    2    3 1  
     3    2    5 1  
     4    3    4 2  
     5    3    6 am 
     6    6    7 1  
     7    7    8 1  
     8    7   10 1  
     9    8    9 2  
    10    8   11 am 
    11   11   12 1  
    12   12   13 1  
    13   12   15 1  
    14   13   14 ar 
    15   13   16 ar 
    16    1   17 1  
    17    1   18 1  
    18    1   19 1  
    19    2   20 1  
    20    5   21 1  
    21    5   22 1  
    22    5   23 1  
    23    6   24 1  
    24    7   25 1  
    25   10   26 1  
    26   10   27 1  
    27   10   28 1  
    28   11   29 1  
    29   12   30 1  
    30   15   31 1  
    31   15   32 1  
    32   15   33 1  
@<TRIPOS>SUBSTRUCTURE
     1 ALA         1

