### 
### Created by X-TOOL on Mon Sep 10 21:13:20 2018
### 

@<TRIPOS>MOLECULE
4d2p_ligand
   53    56     1     0     0
SMALL
GAST_HUCK


@<TRIPOS>ATOM
      1 C1         -8.1870  -34.0530  -12.7340 C.3       1 6Z7         0.0589
      2 O2         -8.5420  -35.0510  -13.6880 O.3       1 6Z7        -0.3269
      3 C3         -9.1320  -34.6430  -14.8540 C.ar      1 6Z7         0.0724
      4 C4         -9.3430  -33.3520  -15.3020 C.ar      1 6Z7        -0.0177
      5 C5         -9.9890  -33.1350  -16.5090 C.ar      1 6Z7         0.0692
      6 O6        -10.1750  -31.8690  -16.9770 O.3       1 6Z7        -0.3388
      7 C7        -10.4430  -34.2110  -17.2570 C.ar      1 6Z7        -0.0233
      8 C8        -10.2400  -35.5160  -16.8130 C.ar      1 6Z7         0.0413
      9 N9        -10.7130  -36.5850  -17.6120 N.pl3     1 6Z7        -0.2768
     10 C10       -10.3660  -37.9560  -17.7290 C.ar      1 6Z7         0.0629
     11 C11        -9.2760  -38.5400  -17.0870 C.ar      1 6Z7        -0.0338
     12 C12        -9.0080  -39.8890  -17.2460 C.ar      1 6Z7        -0.0518
     13 C13        -9.8240  -40.6850  -18.0460 C.ar      1 6Z7         0.0428
     14 C14       -10.9080  -40.1010  -18.6930 C.ar      1 6Z7        -0.0518
     15 C15       -11.1740  -38.7510  -18.5380 C.ar      1 6Z7        -0.0338
     16 C16        -9.5040  -42.1410  -18.2100 C.2       1 6Z7         0.2214
     17 O17        -8.4160  -42.5880  -17.8500 O.2       1 6Z7        -0.3798
     18 N18       -10.4700  -42.9220  -18.7650 N.am      1 6Z7        -0.2403
     19 C19       -10.3490  -44.2140  -19.3420 C.ar      1 6Z7         0.0524
     20 C20        -9.1390  -44.8910  -19.4720 C.ar      1 6Z7        -0.0543
     21 C21        -9.0970  -46.1460  -20.0490 C.ar      1 6Z7        -0.0792
     22 C22       -10.2560  -46.7520  -20.5200 C.ar      1 6Z7        -0.0454
     23 C23       -10.1350  -48.1150  -21.1550 C.3       1 6Z7         0.0122
     24 C24       -11.4620  -48.6870  -21.6420 C.3       1 6Z7        -0.0258
     25 N25       -12.3820  -47.5960  -22.0600 N.4       1 6Z7         0.2391
     26 C26       -12.7380  -46.7180  -20.9130 C.3       1 6Z7        -0.0052
     27 C27       -11.4740  -46.0820  -20.3960 C.ar      1 6Z7        -0.0093
     28 C28       -11.5090  -44.8160  -19.8110 C.ar      1 6Z7        -0.0412
     29 C29        -9.5900  -35.7150  -15.5980 C.ar      1 6Z7        -0.0231
     30 H          -7.7267  -34.5314  -11.8569 H         1 6Z7         0.0577
     31 H          -9.0892  -33.5064  -12.4222 H         1 6Z7         0.0577
     32 H          -7.4711  -33.3512  -13.1867 H         1 6Z7         0.0577
     33 H          -9.0034  -32.5101  -14.7096 H         1 6Z7         0.0368
     34 H         -10.6923  -31.3745  -16.3523 H         1 6Z7         0.2475
     35 H         -10.9595  -34.0355  -18.1938 H         1 6Z7         0.0363
     36 H         -11.4751  -36.3069  -18.2467 H         1 6Z7         0.2095
     37 H          -8.6334  -37.9340  -16.4587 H         1 6Z7         0.0543
     38 H          -8.1549  -40.3298  -16.7430 H         1 6Z7         0.0638
     39 H         -11.5491  -40.7070  -19.3230 H         1 6Z7         0.0638
     40 H         -12.0198  -38.3084  -19.0516 H         1 6Z7         0.0543
     41 H         -11.3913  -42.5330  -18.7669 H         1 6Z7         0.2226
     42 H          -8.2238  -44.4304  -19.1181 H         1 6Z7         0.0431
     43 H          -8.1488  -46.6642  -20.1354 H         1 6Z7         0.0502
     44 H          -9.7106  -48.8070  -20.4127 H         1 6Z7         0.0436
     45 H          -9.4541  -48.0376  -22.0155 H         1 6Z7         0.0436
     46 H         -11.9286  -49.2608  -20.8278 H         1 6Z7         0.0833
     47 H         -11.2763  -49.3511  -22.4990 H         1 6Z7         0.0833
     48 H         -13.2243  -48.0029  -22.4355 H         1 6Z7         0.2028
     49 H         -11.9313  -47.0409  -22.7705 H         1 6Z7         0.2028
     50 H         -13.2059  -47.3164  -20.1174 H         1 6Z7         0.0962
     51 H         -13.4385  -45.9376  -21.2450 H         1 6Z7         0.0962
     52 H         -12.4553  -44.2948  -19.7213 H         1 6Z7         0.0425
     53 H          -9.4409  -36.7238  -15.2302 H         1 6Z7         0.0363
@<TRIPOS>BOND
     1    1    2 1  
     2    2    3 1  
     3    3    4 ar 
     4    3   29 ar 
     5    4    5 ar 
     6    5    6 1  
     7    5    7 ar 
     8    7    8 ar 
     9    8    9 1  
    10    8   29 ar 
    11    9   10 1  
    12   10   11 ar 
    13   10   15 ar 
    14   11   12 ar 
    15   12   13 ar 
    16   13   14 ar 
    17   13   16 1  
    18   14   15 ar 
    19   16   17 2  
    20   16   18 am 
    21   18   19 1  
    22   19   20 ar 
    23   19   28 ar 
    24   20   21 ar 
    25   21   22 ar 
    26   22   23 1  
    27   22   27 ar 
    28   23   24 1  
    29   24   25 1  
    30   25   26 1  
    31   26   27 1  
    32   27   28 ar 
    33    1   30 1  
    34    1   31 1  
    35    1   32 1  
    36    4   33 1  
    37    6   34 1  
    38    7   35 1  
    39    9   36 1  
    40   11   37 1  
    41   12   38 1  
    42   14   39 1  
    43   15   40 1  
    44   18   41 1  
    45   20   42 1  
    46   21   43 1  
    47   23   44 1  
    48   23   45 1  
    49   24   46 1  
    50   24   47 1  
    51   25   48 1  
    52   25   49 1  
    53   26   50 1  
    54   26   51 1  
    55   28   52 1  
    56   29   53 1  
@<TRIPOS>SUBSTRUCTURE
     1 6Z7         1

