### 
### Created by X-TOOL on Mon Sep 10 21:13:23 2018
### 

@<TRIPOS>MOLECULE
4d2r_ligand
   59    63     1     0     0
SMALL
GAST_HUCK


@<TRIPOS>ATOM
      1 C           1.5100   -3.9800   53.1740 C.3       1 DYK        -0.0431
      2 N           2.6870   -3.8130   52.3120 N.4       1 DYK         0.2332
      3 O           6.2150   -4.7410   52.6610 O.3       1 DYK        -0.3242
      4 C1          3.6950   -2.9800   52.9710 C.3       1 DYK        -0.0294
      5 N1         10.6190   -2.4560   55.2000 N.pl3     1 DYK        -0.2523
      6 O1          8.3600   -3.0100   56.5320 O.3       1 DYK        -0.3275
      7 C2          4.8950   -2.7270   52.0490 C.3       1 DYK         0.0180
      8 N2         12.6720   -1.4290   55.5940 N.ar      1 DYK        -0.2640
      9 C3          5.4910   -4.0420   51.5790 C.3       1 DYK         0.0883
     10 N3         12.4610   -3.3250   54.1240 N.ar      1 DYK        -0.2638
     11 C4          4.4360   -4.9590   50.9950 C.3       1 DYK         0.0180
     12 N4         15.7300   -5.4660   51.6780 N.pl3     1 DYK        -0.2586
     13 C5          3.2660   -5.1130   51.9710 C.3       1 DYK        -0.0294
     14 N5         12.7640   -7.4830   50.6990 N.ar      1 DYK        -0.3157
     15 C6          7.3560   -4.1680   53.1860 C.ar      1 DYK         0.0716
     16 C7          8.5440   -3.9600   52.4970 C.ar      1 DYK        -0.0533
     17 C8          9.6250   -3.3810   53.1430 C.ar      1 DYK        -0.0541
     18 C9          9.5530   -3.0690   54.5000 C.ar      1 DYK         0.0850
     19 C10         8.3340   -3.3100   55.1970 C.ar      1 DYK         0.1075
     20 C11         7.2550   -3.8830   54.5410 C.ar      1 DYK        -0.0131
     21 C12         7.2150   -3.3580   57.3240 C.3       1 DYK         0.0568
     22 C13        11.9650   -2.3960   54.9630 C.ar      1 DYK         0.1942
     23 C14        13.9870   -1.4190   55.3340 C.ar      1 DYK         0.0037
     24 C15        14.6030   -2.3220   54.4860 C.ar      1 DYK        -0.0289
     25 C16        13.7830   -3.2760   53.8910 C.ar      1 DYK         0.0321
     26 C17        14.3220   -4.2770   52.9690 C.2       1 DYK         0.0210
     27 C18        15.6230   -4.4180   52.5540 C.2       1 DYK         0.0566
     28 C19        14.4890   -6.0350   51.4910 C.ar      1 DYK         0.0983
     29 C20        13.5640   -5.3210   52.2780 C.ar      1 DYK         0.0079
     30 C21        12.2260   -5.7130   52.2580 C.ar      1 DYK        -0.0474
     31 C22        11.8910   -6.7930   51.4530 C.ar      1 DYK        -0.0090
     32 C23        14.0500   -7.1070   50.7150 C.ar      1 DYK         0.0301
     33 H1          1.0911   -2.9926   53.4179 H         1 DYK         0.0777
     34 H2          1.8046   -4.4926   54.1016 H         1 DYK         0.0777
     35 H3          0.7526   -4.5799   52.6482 H         1 DYK         0.0777
     36 H4          2.3975   -3.3562   51.4614 H         1 DYK         0.2030
     37 H5          4.0432   -3.4905   53.8810 H         1 DYK         0.0815
     38 H6          3.2415   -2.0153   53.2425 H         1 DYK         0.0815
     39 H7         10.3247   -1.9589   56.0528 H         1 DYK         0.2121
     40 H8          5.6600   -2.1587   52.5982 H         1 DYK         0.0346
     41 H9          4.5641   -2.1467   51.1751 H         1 DYK         0.0346
     42 H10         6.2151   -3.8103   50.7840 H         1 DYK         0.0649
     43 H11         4.8801   -5.9467   50.8024 H         1 DYK         0.0346
     44 H12         4.0669   -4.5324   50.0507 H         1 DYK         0.0346
     45 H13        16.6023   -5.7797   51.2291 H         1 DYK         0.2370
     46 H14         2.4911   -5.7402   51.5061 H         1 DYK         0.0815
     47 H15         3.6270   -5.5973   52.8903 H         1 DYK         0.0815
     48 H16         8.6256   -4.2500   51.4557 H         1 DYK         0.0423
     49 H17        10.5326   -3.1693   52.5894 H         1 DYK         0.0479
     50 H18         6.3418   -4.1062   55.0808 H         1 DYK         0.0436
     51 H19         7.3855   -3.0554   58.3677 H         1 DYK         0.0573
     52 H20         7.0548   -4.4453   57.2790 H         1 DYK         0.0573
     53 H21         6.3271   -2.8400   56.9324 H         1 DYK         0.0573
     54 H22        14.5997   -0.6640   55.8132 H         1 DYK         0.0860
     55 H23        15.6695   -2.2882   54.2949 H         1 DYK         0.0605
     56 H24        16.4509   -3.7875   52.8749 H         1 DYK         0.1145
     57 H25        11.4778   -5.1953   52.8472 H         1 DYK         0.0634
     58 H26        10.8521   -7.1017   51.4308 H         1 DYK         0.0698
     59 H27        14.7669   -7.6497   50.1096 H         1 DYK         0.0770
@<TRIPOS>BOND
     1    2    1 1  
     2    4    2 1  
     3   13    2 1  
     4    3    9 1  
     5   15    3 1  
     6    7    4 1  
     7    5   18 1  
     8   22    5 1  
     9   19    6 1  
    10    6   21 1  
    11    9    7 1  
    12   22    8 ar 
    13   23    8 ar 
    14    9   11 1  
    15   10   22 ar 
    16   25   10 ar 
    17   11   13 1  
    18   12   27 1  
    19   28   12 1  
    20   14   31 ar 
    21   32   14 ar 
    22   16   15 ar 
    23   20   15 ar 
    24   17   16 ar 
    25   18   17 ar 
    26   18   19 ar 
    27   19   20 ar 
    28   24   23 ar 
    29   25   24 ar 
    30   26   25 1  
    31   26   27 2  
    32   29   26 1  
    33   28   29 ar 
    34   28   32 ar 
    35   29   30 ar 
    36   30   31 ar 
    37    1   33 1  
    38    1   34 1  
    39    1   35 1  
    40    2   36 1  
    41    4   37 1  
    42    4   38 1  
    43    5   39 1  
    44    7   40 1  
    45    7   41 1  
    46    9   42 1  
    47   11   43 1  
    48   11   44 1  
    49   12   45 1  
    50   13   46 1  
    51   13   47 1  
    52   16   48 1  
    53   17   49 1  
    54   20   50 1  
    55   21   51 1  
    56   21   52 1  
    57   21   53 1  
    58   23   54 1  
    59   24   55 1  
    60   27   56 1  
    61   30   57 1  
    62   31   58 1  
    63   32   59 1  
@<TRIPOS>SUBSTRUCTURE
     1 DYK         1

