### 
### Created by X-TOOL on Mon Sep 10 21:13:23 2018
### 

@<TRIPOS>MOLECULE
4d2s_ligand
   59    63     1     0     0
SMALL
GAST_HUCK


@<TRIPOS>ATOM
      1 C          -3.6250   14.3810    1.2300 C.3       1 DYK        -0.0431
      2 N          -3.5830   15.5740    0.3900 N.4       1 DYK         0.2332
      3 O          -3.7270   19.1780    1.0780 O.3       1 DYK        -0.3242
      4 C1         -4.7970   16.3690    0.5630 C.3       1 DYK        -0.0294
      5 N1         -6.1420   24.1570    0.3580 N.pl3     1 DYK        -0.2523
      6 O1         -3.4780   23.9600    0.4260 O.3       1 DYK        -0.3275
      7 C2         -4.8100   17.5660   -0.3870 C.3       1 DYK         0.0180
      8 N2         -7.7080   25.7100   -0.4360 N.ar      1 DYK        -0.2640
      9 C3         -3.5740   18.4200   -0.1810 C.3       1 DYK         0.0883
     10 N3         -7.8520   23.3630   -0.9290 N.ar      1 DYK        -0.2638
     11 C4         -2.3040   17.5950   -0.2340 C.3       1 DYK         0.0180
     12 N4         -9.9230   20.2860   -2.9340 N.pl3     1 DYK        -0.2586
     13 C5         -2.4110   16.3910    0.7080 C.3       1 DYK        -0.0294
     14 N5        -13.1200   21.5040   -4.3950 N.ar      1 DYK        -0.3157
     15 C6         -4.3280   20.4080    0.9070 C.ar      1 DYK         0.0716
     16 C7         -5.7160   20.4980    0.8890 C.ar      1 DYK        -0.0533
     17 C8         -6.3270   21.7270    0.7200 C.ar      1 DYK        -0.0541
     18 C9         -5.5580   22.8790    0.5390 C.ar      1 DYK         0.0850
     19 C10        -4.1460   22.7740    0.5750 C.ar      1 DYK         0.1075
     20 C11        -3.5370   21.5420    0.7770 C.ar      1 DYK        -0.0131
     21 C12        -2.0610   23.9640    0.6140 C.3       1 DYK         0.0568
     22 C13        -7.2740   24.4360   -0.3550 C.ar      1 DYK         0.1942
     23 C14        -8.8210   25.8930   -1.1710 C.ar      1 DYK         0.0037
     24 C15        -9.4950   24.8620   -1.7990 C.ar      1 DYK        -0.0289
     25 C16        -8.9610   23.5880   -1.6490 C.ar      1 DYK         0.0321
     26 C17        -9.5840   22.4070   -2.2650 C.2       1 DYK         0.0210
     27 C18        -9.0710   21.1330   -2.2780 C.2       1 DYK         0.0566
     28 C19       -11.0250   20.9910   -3.3680 C.ar      1 DYK         0.0983
     29 C20       -10.8600   22.3340   -2.9760 C.ar      1 DYK         0.0079
     30 C21       -11.8520   23.2520   -3.3100 C.ar      1 DYK        -0.0474
     31 C22       -12.9500   22.7820   -4.0190 C.ar      1 DYK        -0.0090
     32 C23       -12.1640   20.6180   -4.0760 C.ar      1 DYK         0.0301
     33 H1         -4.5123   13.7834    0.9740 H         1 DYK         0.0777
     34 H2         -3.6763   14.6788    2.2877 H         1 DYK         0.0777
     35 H3         -2.7182   13.7817    1.0614 H         1 DYK         0.0777
     36 H4         -3.5218   15.2838   -0.5734 H         1 DYK         0.2030
     37 H5         -4.8436   16.7328    1.6000 H         1 DYK         0.0815
     38 H6         -5.6731   15.7368    0.3564 H         1 DYK         0.0815
     39 H7         -5.6674   24.9531    0.8074 H         1 DYK         0.2121
     40 H8         -5.7063   18.1732   -0.1922 H         1 DYK         0.0346
     41 H9         -4.8310   17.2039   -1.4255 H         1 DYK         0.0346
     42 H10        -3.5218   19.1469   -1.0049 H         1 DYK         0.0649
     43 H11        -1.4523   18.2202    0.0720 H         1 DYK         0.0346
     44 H12        -2.1461   17.2379   -1.2624 H         1 DYK         0.0346
     45 H13        -9.7652   19.2788   -3.0805 H         1 DYK         0.2370
     46 H14        -1.5055   15.7746    0.6070 H         1 DYK         0.0815
     47 H15        -2.4952   16.7519    1.7437 H         1 DYK         0.0815
     48 H16        -6.3187   19.6048    1.0074 H         1 DYK         0.0423
     49 H17        -7.4087   21.7968    0.7280 H         1 DYK         0.0479
     50 H18        -2.4570   21.4666    0.8325 H         1 DYK         0.0436
     51 H19        -1.6738   24.9822    0.4613 H         1 DYK         0.0573
     52 H20        -1.5930   23.2813   -0.1105 H         1 DYK         0.0573
     53 H21        -1.8257   23.6317    1.6359 H         1 DYK         0.0573
     54 H22        -9.2085   26.9000   -1.2758 H         1 DYK         0.0860
     55 H23       -10.3939   25.0385   -2.3786 H         1 DYK         0.0605
     56 H24        -8.1227   20.8390   -1.8307 H         1 DYK         0.1145
     57 H25       -11.7704   24.2953   -3.0271 H         1 DYK         0.0634
     58 H26       -13.7216   23.4947   -4.2869 H         1 DYK         0.0698
     59 H27       -12.2819   19.5836   -4.3779 H         1 DYK         0.0770
@<TRIPOS>BOND
     1    2    1 1  
     2    4    2 1  
     3   13    2 1  
     4    3    9 1  
     5   15    3 1  
     6    7    4 1  
     7    5   18 1  
     8   22    5 1  
     9   19    6 1  
    10    6   21 1  
    11    9    7 1  
    12   22    8 ar 
    13   23    8 ar 
    14    9   11 1  
    15   10   22 ar 
    16   25   10 ar 
    17   11   13 1  
    18   12   27 1  
    19   28   12 1  
    20   14   31 ar 
    21   32   14 ar 
    22   16   15 ar 
    23   20   15 ar 
    24   17   16 ar 
    25   18   17 ar 
    26   18   19 ar 
    27   19   20 ar 
    28   24   23 ar 
    29   25   24 ar 
    30   26   25 1  
    31   26   27 2  
    32   29   26 1  
    33   28   29 ar 
    34   28   32 ar 
    35   29   30 ar 
    36   30   31 ar 
    37    1   33 1  
    38    1   34 1  
    39    1   35 1  
    40    2   36 1  
    41    4   37 1  
    42    4   38 1  
    43    5   39 1  
    44    7   40 1  
    45    7   41 1  
    46    9   42 1  
    47   11   43 1  
    48   11   44 1  
    49   12   45 1  
    50   13   46 1  
    51   13   47 1  
    52   16   48 1  
    53   17   49 1  
    54   20   50 1  
    55   21   51 1  
    56   21   52 1  
    57   21   53 1  
    58   23   54 1  
    59   24   55 1  
    60   27   56 1  
    61   30   57 1  
    62   31   58 1  
    63   32   59 1  
@<TRIPOS>SUBSTRUCTURE
     1 DYK         1

