### 
### Created by X-TOOL on Mon Sep 10 21:13:20 2018
### 

@<TRIPOS>MOLECULE
4d2t_ligand
   46    48     1     0     0
SMALL
GAST_HUCK


@<TRIPOS>ATOM
      1 N1         -0.2340    2.7800  -11.3690 N.4       1 3I7         0.2186
      2 C2         -0.8290    1.6010  -10.6890 C.3       1 3I7        -0.0329
      3 C3         -0.3870    0.2900  -11.3330 C.3       1 3I7         0.0154
      4 C4         -0.7620   -0.9550  -10.5300 C.3       1 3I7         0.0767
      5 O5          0.3750   -1.8240  -10.4100 O.3       1 3I7        -0.3140
      6 C6          1.2180   -1.6960   -9.3070 C.ar      1 3I7         0.1074
      7 C7          1.5770   -0.4470   -8.8330 C.ar      1 3I7        -0.0285
      8 C8          2.4170   -0.3000   -7.7360 C.ar      1 3I7        -0.0400
      9 C9          2.8760   -1.4500   -7.1010 C.ar      1 3I7        -0.0676
     10 C10         2.5290   -2.7040   -7.5640 C.ar      1 3I7        -0.0548
     11 C11         1.6940   -2.8520   -8.6720 C.ar      1 3I7         0.0790
     12 C12         1.3750   -4.2640   -9.0750 C.2       1 3I7         0.2229
     13 O13         2.0790   -5.1970   -8.6980 O.2       1 3I7        -0.3818
     14 N14         0.2800   -4.4550   -9.8530 N.am      1 3I7        -0.2358
     15 C15        -0.1280   -5.6640  -10.4650 C.ar      1 3I7         0.0655
     16 C16         0.7850   -6.6100  -10.9160 C.ar      1 3I7        -0.0413
     17 C17         0.3400   -7.7750  -11.5100 C.ar      1 3I7        -0.0755
     18 C18        -1.0080   -8.0030  -11.6660 C.ar      1 3I7        -0.0772
     19 C19        -1.9230   -7.0710  -11.2270 C.ar      1 3I7        -0.0755
     20 C20        -1.4880   -5.9030  -10.6270 C.ar      1 3I7        -0.0413
     21 C21         2.7550    1.0400   -7.2190 C.2       1 3I7         0.0016
     22 C22         3.2170    1.3520   -5.9640 C.2       1 3I7         0.0069
     23 N23         3.3990    2.6580   -5.8200 N.2       1 3I7        -0.2149
     24 N24         3.0380    3.1910   -7.0070 N.pl3     1 3I7        -0.2153
     25 C25         2.6380    2.2510   -7.8700 C.2       1 3I7         0.0631
     26 H          -0.5489    3.6236  -10.9159 H         1 3I7         0.1994
     27 H          -0.5206    2.7906  -12.3353 H         1 3I7         0.1994
     28 H           0.7712    2.7260  -11.3172 H         1 3I7         0.1994
     29 H          -1.9251    1.6733  -10.7458 H         1 3I7         0.0814
     30 H          -0.5155    1.6027   -9.6346 H         1 3I7         0.0814
     31 H           0.7069    0.3119  -11.4462 H         1 3I7         0.0343
     32 H          -0.8569    0.2162  -12.3248 H         1 3I7         0.0343
     33 H          -1.5753   -1.4884  -11.0438 H         1 3I7         0.0619
     34 H          -1.0975   -0.6538   -9.5267 H         1 3I7         0.0619
     35 H           1.1941    0.4376   -9.3289 H         1 3I7         0.0503
     36 H           3.5153   -1.3602   -6.2302 H         1 3I7         0.0497
     37 H           2.9103   -3.5847   -7.0601 H         1 3I7         0.0627
     38 H          -0.3007   -3.6563  -10.0108 H         1 3I7         0.2247
     39 H           1.8483   -6.4332  -10.8014 H         1 3I7         0.0502
     40 H           1.0557   -8.5126  -11.8547 H         1 3I7         0.0577
     41 H          -1.3509   -8.9180  -12.1354 H         1 3I7         0.0488
     42 H          -2.9843   -7.2532  -11.3519 H         1 3I7         0.0577
     43 H          -2.2099   -5.1716  -10.2820 H         1 3I7         0.0502
     44 H           3.4101    0.6178   -5.1833 H         1 3I7         0.0679
     45 H           3.0671    4.1980   -7.2214 H         1 3I7         0.2605
     46 H           2.2879    2.4103   -8.8888 H         1 3I7         0.1053
@<TRIPOS>BOND
     1    1    2 1  
     2    2    3 1  
     3    3    4 1  
     4    4    5 1  
     5    5    6 1  
     6    6    7 ar 
     7    6   11 ar 
     8    7    8 ar 
     9    8    9 ar 
    10    8   21 1  
    11    9   10 ar 
    12   10   11 ar 
    13   11   12 1  
    14   12   13 2  
    15   12   14 am 
    16   14   15 1  
    17   15   16 ar 
    18   15   20 ar 
    19   16   17 ar 
    20   17   18 ar 
    21   18   19 ar 
    22   19   20 ar 
    23   21   22 1  
    24   21   25 2  
    25   22   23 2  
    26   23   24 1  
    27   24   25 1  
    28    1   26 1  
    29    1   27 1  
    30    1   28 1  
    31    2   29 1  
    32    2   30 1  
    33    3   31 1  
    34    3   32 1  
    35    4   33 1  
    36    4   34 1  
    37    7   35 1  
    38    9   36 1  
    39   10   37 1  
    40   14   38 1  
    41   16   39 1  
    42   17   40 1  
    43   18   41 1  
    44   19   42 1  
    45   20   43 1  
    46   22   44 1  
    47   24   45 1  
    48   25   46 1  
@<TRIPOS>SUBSTRUCTURE
     1 3I7         1

