### 
### Created by X-TOOL on Mon Sep 10 21:13:20 2018
### 

@<TRIPOS>MOLECULE
4d2v_ligand
   50    53     1     0     0
SMALL
GAST_HUCK


@<TRIPOS>ATOM
      1 C1        -12.4890  -40.7660  -20.9420 C.3       1 45R         0.0609
      2 O2        -11.6200  -40.6800  -19.8160 O.3       1 45R        -0.3174
      3 C3        -10.8020  -41.7450  -19.5420 C.ar      1 45R         0.1070
      4 C4        -10.9400  -43.0060  -20.1150 C.ar      1 45R        -0.0285
      5 C5        -10.0790  -44.0490  -19.7900 C.ar      1 45R        -0.0400
      6 C6         -9.0740  -43.8060  -18.8580 C.ar      1 45R        -0.0676
      7 C7         -8.9230  -42.5660  -18.2760 C.ar      1 45R        -0.0548
      8 C8         -9.7680  -41.5060  -18.6070 C.ar      1 45R         0.0786
      9 C9         -9.4670  -40.2170  -17.8840 C.2       1 45R         0.2211
     10 O10        -8.7180  -40.1900  -16.9110 O.2       1 45R        -0.3827
     11 N11       -10.0500  -39.1000  -18.3580 N.am      1 45R        -0.2411
     12 C12       -10.1970  -37.8410  -17.7410 C.ar      1 45R         0.0521
     13 C13        -9.4030  -37.3130  -16.7370 C.ar      1 45R        -0.0543
     14 C14        -9.6530  -36.0410  -16.2480 C.ar      1 45R        -0.0794
     15 C15       -10.6920  -35.2670  -16.7650 C.ar      1 45R        -0.0503
     16 C16       -10.9400  -33.9060  -16.1610 C.3       1 45R         0.0120
     17 C17       -10.9580  -32.7050  -17.0930 C.3       1 45R        -0.0269
     18 N18       -12.1640  -32.6220  -17.9710 N.4       1 45R         0.2295
     19 C19       -12.3390  -33.7130  -18.9790 C.3       1 45R        -0.0252
     20 C20       -12.6830  -35.0610  -18.3600 C.3       1 45R         0.0156
     21 C21       -11.5080  -35.8030  -17.7700 C.ar      1 45R        -0.0486
     22 C22       -11.2390  -37.0810  -18.2510 C.ar      1 45R        -0.0460
     23 C23       -10.2540  -45.3950  -20.3750 C.2       1 45R         0.0016
     24 C24       -11.3150  -45.8600  -21.1480 C.2       1 45R         0.0069
     25 N25       -11.1420  -47.1340  -21.4850 N.2       1 45R        -0.2149
     26 N26        -9.9700  -47.4930  -20.9150 N.pl3     1 45R        -0.2153
     27 C27        -9.4110  -46.4820  -20.2420 C.2       1 45R         0.0631
     28 H         -13.0746  -39.8385  -21.0249 H         1 45R         0.0580
     29 H         -13.1707  -41.6198  -20.8147 H         1 45R         0.0580
     30 H         -11.8926  -40.9059  -21.8556 H         1 45R         0.0580
     31 H         -11.7360  -43.1790  -20.8302 H         1 45R         0.0503
     32 H          -8.3972  -44.6075  -18.5848 H         1 45R         0.0497
     33 H          -8.1343  -42.4114  -17.5486 H         1 45R         0.0627
     34 H         -10.4333  -39.1738  -19.2787 H         1 45R         0.2224
     35 H          -8.5837  -37.8963  -16.3326 H         1 45R         0.0431
     36 H          -9.0331  -35.6420  -15.4533 H         1 45R         0.0502
     37 H         -10.1505  -33.7299  -15.4156 H         1 45R         0.0436
     38 H         -11.9174  -33.9444  -15.6578 H         1 45R         0.0436
     39 H         -10.0672  -32.7556  -17.7363 H         1 45R         0.0833
     40 H         -10.9160  -31.7930  -16.4795 H         1 45R         0.0833
     41 H         -12.1174  -31.7485  -18.4718 H         1 45R         0.2016
     42 H         -12.9765  -32.6245  -17.3745 H         1 45R         0.2016
     43 H         -11.4014  -33.8185  -19.5445 H         1 45R         0.0836
     44 H         -13.1505  -33.4272  -19.6644 H         1 45R         0.0836
     45 H         -13.1296  -35.6930  -19.1417 H         1 45R         0.0461
     46 H         -13.4187  -34.8927  -17.5597 H         1 45R         0.0461
     47 H         -11.8572  -37.4912  -19.0413 H         1 45R         0.0423
     48 H         -12.1747  -45.2580  -21.4386 H         1 45R         0.0679
     49 H          -9.5568  -48.4335  -20.9902 H         1 45R         0.2605
     50 H          -8.4706  -46.5098  -19.6935 H         1 45R         0.1053
@<TRIPOS>BOND
     1    1    2 1  
     2    2    3 1  
     3    3    4 ar 
     4    3    8 ar 
     5    4    5 ar 
     6    5    6 ar 
     7    5   23 1  
     8    6    7 ar 
     9    7    8 ar 
    10    8    9 1  
    11    9   10 2  
    12    9   11 am 
    13   11   12 1  
    14   12   13 ar 
    15   12   22 ar 
    16   13   14 ar 
    17   14   15 ar 
    18   15   16 1  
    19   15   21 ar 
    20   16   17 1  
    21   17   18 1  
    22   18   19 1  
    23   19   20 1  
    24   20   21 1  
    25   21   22 ar 
    26   23   24 1  
    27   23   27 2  
    28   24   25 2  
    29   25   26 1  
    30   26   27 1  
    31    1   28 1  
    32    1   29 1  
    33    1   30 1  
    34    4   31 1  
    35    6   32 1  
    36    7   33 1  
    37   11   34 1  
    38   13   35 1  
    39   14   36 1  
    40   16   37 1  
    41   16   38 1  
    42   17   39 1  
    43   17   40 1  
    44   18   41 1  
    45   18   42 1  
    46   19   43 1  
    47   19   44 1  
    48   20   45 1  
    49   20   46 1  
    50   22   47 1  
    51   24   48 1  
    52   26   49 1  
    53   27   50 1  
@<TRIPOS>SUBSTRUCTURE
     1 45R         1

