### 
### Created by X-TOOL on Mon Sep 10 21:13:19 2018
### 

@<TRIPOS>MOLECULE
4d2w_ligand
   39    41     1     0     0
SMALL
GAST_HUCK


@<TRIPOS>ATOM
      1 BR1         1.6220    0.0700   -8.4270 Br        1 NF5        -0.0461
      2 C2          1.0170   -1.5960   -9.0700 C.ar      1 NF5         0.0172
      3 C3          1.4830   -2.7610   -8.4670 C.ar      1 NF5        -0.0468
      4 C4          1.0160   -3.9750   -8.9320 C.ar      1 NF5        -0.0390
      5 C5          0.1130   -4.0300   -9.9860 C.ar      1 NF5         0.0583
      6 C6         -0.3500   -2.8530  -10.5760 C.ar      1 NF5        -0.0390
      7 C7          0.1100   -1.6330  -10.1250 C.ar      1 NF5        -0.0468
      8 C8         -0.3810   -5.3570  -10.4510 C.2       1 NF5         0.2324
      9 O9          0.3090   -6.3640  -10.3630 O.2       1 NF5        -0.3727
     10 N10        -1.6330   -5.3450  -10.9490 N.am      1 NF5        -0.2380
     11 C11        -2.3440   -6.3240  -11.6700 C.ar      1 NF5         0.0526
     12 C12        -1.7840   -7.4640  -12.2340 C.ar      1 NF5        -0.0542
     13 C13        -2.5800   -8.3440  -12.9400 C.ar      1 NF5        -0.0793
     14 C14        -3.9450   -8.1030  -13.1000 C.ar      1 NF5        -0.0502
     15 C15        -4.7700   -9.0990  -13.8790 C.3       1 NF5         0.0120
     16 C16        -5.9060   -9.7170  -13.0780 C.3       1 NF5        -0.0269
     17 N17        -7.0860   -8.8640  -12.9020 N.4       1 NF5         0.2295
     18 C20        -6.8890   -7.6890  -12.0490 C.3       1 NF5        -0.0252
     19 C21        -5.9830   -6.6170  -12.6450 C.3       1 NF5         0.0156
     20 C22        -4.5150   -6.9570  -12.5270 C.ar      1 NF5        -0.0486
     21 C23        -3.6990   -6.0800  -11.8270 C.ar      1 NF5        -0.0459
     22 H           2.1958   -2.7165   -7.6515 H         1 NF5         0.0655
     23 H           1.3577   -4.8940   -8.4697 H         1 NF5         0.0675
     24 H          -1.0689   -2.8973  -11.3862 H         1 NF5         0.0675
     25 H          -0.2311   -0.7137  -10.5871 H         1 NF5         0.0655
     26 H          -2.1417   -4.5011  -10.7784 H         1 NF5         0.2230
     27 H          -0.7244   -7.6620  -12.1199 H         1 NF5         0.0431
     28 H          -2.1389   -9.2333  -13.3755 H         1 NF5         0.0502
     29 H          -4.1065   -9.9074  -14.2198 H         1 NF5         0.0436
     30 H          -5.2004   -8.5855  -14.7514 H         1 NF5         0.0436
     31 H          -5.5190   -9.9715  -12.0803 H         1 NF5         0.0833
     32 H          -6.2245  -10.6353  -13.5930 H         1 NF5         0.0833
     33 H          -7.8177   -9.4251  -12.4947 H         1 NF5         0.2016
     34 H          -7.3763   -8.5426  -13.8122 H         1 NF5         0.2016
     35 H          -6.4453   -8.0244  -11.1000 H         1 NF5         0.0836
     36 H          -7.8729   -7.2373  -11.8544 H         1 NF5         0.0836
     37 H          -6.1673   -5.6689  -12.1185 H         1 NF5         0.0461
     38 H          -6.2317   -6.4994  -13.7100 H         1 NF5         0.0461
     39 H          -4.1306   -5.1850  -11.3937 H         1 NF5         0.0424
@<TRIPOS>BOND
     1    1    2 1  
     2    2    3 ar 
     3    2    7 ar 
     4    3    4 ar 
     5    4    5 ar 
     6    5    6 ar 
     7    5    8 1  
     8    6    7 ar 
     9    8    9 2  
    10    8   10 am 
    11   10   11 1  
    12   11   12 ar 
    13   11   21 ar 
    14   12   13 ar 
    15   13   14 ar 
    16   14   15 1  
    17   14   20 ar 
    18   15   16 1  
    19   16   17 1  
    20   17   18 1  
    21   18   19 1  
    22   19   20 1  
    23   20   21 ar 
    24    3   22 1  
    25    4   23 1  
    26    6   24 1  
    27    7   25 1  
    28   10   26 1  
    29   12   27 1  
    30   13   28 1  
    31   15   29 1  
    32   15   30 1  
    33   16   31 1  
    34   16   32 1  
    35   17   33 1  
    36   17   34 1  
    37   18   35 1  
    38   18   36 1  
    39   19   37 1  
    40   19   38 1  
    41   21   39 1  
@<TRIPOS>SUBSTRUCTURE
     1 NF5         1

