### 
### Created by X-TOOL on Mon Sep 10 21:13:20 2018
### 

@<TRIPOS>MOLECULE
4d4d_ligand
   45    46     1     0     0
SMALL
GAST_HUCK


@<TRIPOS>ATOM
      1 O4          2.5750  -14.3460    7.8460 O.3       1 IFM        -0.3885
      2 C4          2.2000  -13.2670    8.6720 C.3       1 IFM         0.0958
      3 C3          1.1920  -13.7120    9.7460 C.3       1 IFM         0.1209
      4 O3         -0.1710  -13.4810    9.3230 O.3       1 IFM        -0.3839
      5 C2          1.4620  -13.0420   11.1020 C.3       1 IFM        -0.0045
      6 N           1.8910  -11.6600   11.0060 N.4       1 IFM         0.2292
      7 C1          3.0440  -11.3860   10.1340 C.3       1 IFM        -0.0261
      8 C5          3.4510  -12.6030    9.2900 C.3       1 IFM         0.0511
      9 C6          4.4140  -12.1910    8.2280 C.3       1 IFM         0.0609
     10 O6          3.7290  -11.4330    7.2410 O.3       1 IFM        -0.3481
     11 C1          4.5610  -10.9180    6.1960 C.3       1 MAN         0.1879
     12 C2          3.5840  -10.2460    5.2290 C.3       1 MAN         0.1341
     13 C3          2.6710  -11.2890    4.5720 C.3       1 MAN         0.1141
     14 C4          3.5040  -12.4100    3.9530 C.3       1 MAN         0.1119
     15 C5          4.5510  -12.9650    4.9460 C.3       1 MAN         0.1130
     16 C6          5.4960  -13.9560    4.3020 C.3       1 MAN         0.0730
     17 O2          4.3070   -9.5570    4.2050 O.3       1 MAN        -0.3841
     18 O3          1.7400  -10.7180    3.6670 O.3       1 MAN        -0.3864
     19 O4          2.7180  -13.4670    3.4310 O.3       1 MAN        -0.3865
     20 O5          5.3000  -11.9070    5.5380 O.3       1 MAN        -0.3405
     21 O6          6.2080  -13.3900    3.2490 O.3       1 MAN        -0.3924
     22 H1          1.8045  -14.6947    7.4132 H         1 IFM         0.2099
     23 H2          1.7013  -12.5168    8.0408 H         1 IFM         0.0626
     24 H3          1.3174  -14.7962    9.8830 H         1 IFM         0.0673
     25 H4         -0.2973  -12.5541    9.1575 H         1 IFM         0.2101
     26 H5          2.2481  -13.6123   11.6184 H         1 IFM         0.0840
     27 H6          0.5356  -13.0755   11.6941 H         1 IFM         0.0840
     28 H7          2.1294  -11.3488   11.9346 H         1 IFM         0.2014
     29 H8          1.1120  -11.1215   10.6608 H         1 IFM         0.2014
     30 H9          3.8980  -11.0916   10.7617 H         1 IFM         0.0818
     31 H10         2.7844  -10.5590    9.4567 H         1 IFM         0.0818
     32 H11         3.9462  -13.3349    9.9450 H         1 IFM         0.0401
     33 H12         4.8542  -13.0859    7.7639 H         1 IFM         0.0566
     34 H13         5.2120  -11.5786    8.6732 H         1 IFM         0.0566
     35 H14         5.2601  -10.1762    6.6094 H         1 IFM         0.0937
     36 H15         2.9675   -9.5258    5.7868 H         1 IFM         0.0671
     37 H16         2.0767  -11.7440    5.3781 H         1 IFM         0.0648
     38 H17         4.0537  -11.9681    3.1089 H         1 IFM         0.0647
     39 H18         4.0062  -13.4890    5.7451 H         1 IFM         0.0647
     40 H19         4.9122  -14.8061    3.9193 H         1 IFM         0.0584
     41 H20         6.2081  -14.3122    5.0610 H         1 IFM         0.0584
     42 H21         4.8298  -10.1800    3.7142 H         1 IFM         0.2101
     43 H22         2.2056  -10.3528    2.9238 H         1 IFM         0.2100
     44 H23         2.2695  -13.9081    4.1429 H         1 IFM         0.2100
     45 H24         6.7876  -14.0423    2.8733 H         1 IFM         0.2095
@<TRIPOS>BOND
     1    1    2 1  
     2    2    3 1  
     3    2    8 1  
     4    3    4 1  
     5    3    5 1  
     6    5    6 1  
     7    6    7 1  
     8    7    8 1  
     9    8    9 1  
    10    9   10 1  
    11   10   11 1  
    12   11   12 1  
    13   11   20 1  
    14   12   13 1  
    15   12   17 1  
    16   13   14 1  
    17   13   18 1  
    18   14   15 1  
    19   14   19 1  
    20   15   16 1  
    21   15   20 1  
    22   16   21 1  
    23    1   22 1  
    24    2   23 1  
    25    3   24 1  
    26    4   25 1  
    27    5   26 1  
    28    5   27 1  
    29    6   28 1  
    30    6   29 1  
    31    7   30 1  
    32    7   31 1  
    33    8   32 1  
    34    9   33 1  
    35    9   34 1  
    36   11   35 1  
    37   12   36 1  
    38   13   37 1  
    39   14   38 1  
    40   15   39 1  
    41   16   40 1  
    42   16   41 1  
    43   17   42 1  
    44   18   43 1  
    45   19   44 1  
    46   21   45 1  
@<TRIPOS>SUBSTRUCTURE
     1 IFM         1

