### 
### Created by X-TOOL on Mon Sep 10 21:13:20 2018
### 

@<TRIPOS>MOLECULE
4d52_ligand
   24    24     1     0     0
SMALL
GAST_HUCK


@<TRIPOS>ATOM
      1 C1         18.7000  -24.5000   19.5100 C.3       1 GIV         0.1854
      2 C2         19.9000  -23.6000   19.7780 C.3       1 GIV         0.1339
      3 C3         19.6130  -22.1300   19.4710 C.3       1 GIV         0.1141
      4 C4         18.3280  -21.7060   20.2140 C.3       1 GIV         0.1119
      5 C5         17.1900  -22.6590   19.8280 C.3       1 GIV         0.1130
      6 C6         15.8970  -22.2260   20.4790 C.3       1 GIV         0.0730
      7 O1         19.0430  -25.7930   20.0080 O.3       1 GIV        -0.3649
      8 O3         20.7800  -21.3420   19.8400 O.3       1 GIV        -0.3864
      9 O4         18.5070  -21.7460   21.6300 O.3       1 GIV        -0.3865
     10 O5         17.5600  -23.9880   20.1810 O.3       1 GIV        -0.3407
     11 O6         14.8130  -23.0150   20.0120 O.3       1 GIV        -0.3924
     12 O2         21.0310  -24.0740   19.0420 O.3       1 GIV        -0.3841
     13 H1         18.4963  -24.5531   18.4303 H         1 GXL         0.0935
     14 H2         20.1387  -23.6712   20.8494 H         1 GXL         0.0671
     15 H3         19.4425  -22.0115   18.3908 H         1 GXL         0.0648
     16 H4         18.0643  -20.6806   19.9157 H         1 GXL         0.0647
     17 H5         17.0511  -22.6183   18.7376 H         1 GXL         0.0647
     18 H6         15.7062  -21.1702   20.2366 H         1 GXL         0.0584
     19 H7         15.9848  -22.3418   21.5693 H         1 GXL         0.0584
     20 H8         18.3143  -26.3871   19.8719 H         1 GXL         0.2126
     21 H9         20.9433  -21.4369   20.7711 H         1 GXL         0.2100
     22 H10        19.2110  -21.1574   21.8758 H         1 GXL         0.2100
     23 H11        14.9733  -23.9274   20.2222 H         1 GXL         0.2095
     24 H12        20.8610  -23.9869   18.1114 H         1 GXL         0.2101
@<TRIPOS>BOND
     1    1    2 1  
     2    1    7 1  
     3    1   10 1  
     4    2    3 1  
     5    2   12 1  
     6    3    4 1  
     7    3    8 1  
     8    4    5 1  
     9    4    9 1  
    10    5    6 1  
    11    5   10 1  
    12    6   11 1  
    13    1   13 1  
    14    2   14 1  
    15    3   15 1  
    16    4   16 1  
    17    5   17 1  
    18    6   18 1  
    19    6   19 1  
    20    7   20 1  
    21    8   21 1  
    22    9   22 1  
    23   11   23 1  
    24   12   24 1  
@<TRIPOS>SUBSTRUCTURE
     1 GIV         1

