### 
### Created by X-TOOL on Mon Sep 10 21:13:24 2018
### 

@<TRIPOS>MOLECULE
4d62_ligand
   39    39     1     0     0
SMALL
GAST_HUCK


@<TRIPOS>ATOM
      1 C1         47.4450   12.0130   31.7510 C.2       1 SIA         0.1039
      2 C2         46.8400   12.0380   33.1780 C.3       1 SIA         0.2179
      3 C3         46.3850   13.4660   33.5370 C.3       1 SIA         0.0351
      4 C4         45.1110   13.8400   32.7630 C.3       1 SIA         0.0850
      5 C5         44.0670   12.7520   33.0320 C.3       1 SIA         0.0964
      6 C6         44.5890   11.3970   32.4930 C.3       1 SIA         0.1143
      7 C7         43.6720   10.1830   32.6870 C.3       1 SIA         0.1114
      8 C8         44.3710    8.7850   32.7830 C.3       1 SIA         0.1065
      9 C9         44.2840    8.1430   34.1860 C.3       1 SIA         0.0727
     10 C10        41.6760   13.3160   33.2240 C.2       1 SIA         0.1733
     11 C11        40.4340   13.8940   32.5950 C.3       1 SIA         0.0257
     12 N5         42.7960   13.2220   32.4870 N.am      1 SIA        -0.2790
     13 O1A        47.7020   13.0870   31.1410 O.co2     1 SIA        -0.5426
     14 O1B        47.6590   10.9070   31.1840 O.co2     1 SIA        -0.5426
     15 O2         47.6830   11.5070   34.2460 O.3       1 SIA        -0.3631
     16 O4         44.5840   15.1550   33.0890 O.3       1 SIA        -0.3893
     17 O6         45.7660   11.1030   33.2290 O.3       1 SIA        -0.3385
     18 O7         42.9410   10.4760   33.8830 O.3       1 SIA        -0.3865
     19 O8         43.8330    7.8220   31.8460 O.3       1 SIA        -0.3869
     20 O9         45.4120    7.2900   34.4600 O.3       1 SIA        -0.3924
     21 O10        41.6410   12.9420   34.3780 O.2       1 SIA        -0.3974
     22 H1         47.1853   14.1755   33.2798 H         1 SIA         0.0336
     23 H2         46.1806   13.5194   34.6165 H         1 SIA         0.0336
     24 H3         45.3522   13.8390   31.6898 H         1 SIA         0.0618
     25 H4         43.9395   12.6407   34.1189 H         1 SIA         0.0608
     26 H5         44.8120   11.5062   31.4214 H         1 SIA         0.0646
     27 H6         42.9766   10.1369   31.8359 H         1 SIA         0.0647
     28 H7         45.4334    8.9412   32.5443 H         1 SIA         0.0643
     29 H8         43.3632    7.5443   34.2461 H         1 SIA         0.0584
     30 H9         44.2516    8.9423   34.9410 H         1 SIA         0.0584
     31 H10        39.6173   13.8972   33.3319 H         1 SIA         0.0467
     32 H11        40.1433   13.2824   31.7282 H         1 SIA         0.0467
     33 H12        40.6350   14.9242   32.2660 H         1 SIA         0.0467
     34 H13        42.7574   13.4854   31.5231 H         1 SIA         0.1856
     35 H14        47.9347   10.6155   34.0356 H         1 SIA         0.2112
     36 H15        43.8167   15.3284   32.5564 H         1 SIA         0.2099
     37 H16        42.5274   11.3272   33.7995 H         1 SIA         0.2100
     38 H17        43.8695    8.1820   30.9676 H         1 SIA         0.2100
     39 H18        45.3212    6.9160   35.3285 H         1 SIA         0.2095
@<TRIPOS>BOND
     1    2    1 1  
     2    1   13 ar 
     3    1   14 ar 
     4    3    2 1  
     5    2   15 1  
     6   17    2 1  
     7    4    3 1  
     8    5    4 1  
     9    4   16 1  
    10    5    6 1  
    11   12    5 1  
    12    6    7 1  
    13    6   17 1  
    14    7    8 1  
    15    7   18 1  
    16    8    9 1  
    17    8   19 1  
    18    9   20 1  
    19   10   11 1  
    20   10   12 am 
    21   10   21 2  
    22    3   22 1  
    23    3   23 1  
    24    4   24 1  
    25    5   25 1  
    26    6   26 1  
    27    7   27 1  
    28    8   28 1  
    29    9   29 1  
    30    9   30 1  
    31   11   31 1  
    32   11   32 1  
    33   11   33 1  
    34   12   34 1  
    35   15   35 1  
    36   16   36 1  
    37   18   37 1  
    38   19   38 1  
    39   20   39 1  
@<TRIPOS>SUBSTRUCTURE
     1 SIA         1

