### 
### Created by X-TOOL on Mon Sep 10 21:13:23 2018
### 

@<TRIPOS>MOLECULE
4d63_ligand
   39    39     1     0     0
SMALL
GAST_HUCK


@<TRIPOS>ATOM
      1 C1         47.6050   12.2140   31.6170 C.2       1 SIA         0.1039
      2 C2         46.9600   12.2940   32.9960 C.3       1 SIA         0.2179
      3 C3         46.4460   13.7170   33.2950 C.3       1 SIA         0.0351
      4 C4         45.1310   14.0370   32.5710 C.3       1 SIA         0.0850
      5 C5         44.1130   12.9680   32.9380 C.3       1 SIA         0.0964
      6 C6         44.6570   11.6070   32.4740 C.3       1 SIA         0.1143
      7 C7         43.7520   10.4200   32.8060 C.3       1 SIA         0.1114
      8 C8         44.4580    9.0580   32.6560 C.3       1 SIA         0.1065
      9 C9         44.5140    8.2660   33.9670 C.3       1 SIA         0.0727
     10 C10        41.7090   13.4310   33.1230 C.2       1 SIA         0.1733
     11 C11        40.4520   13.9670   32.4740 C.3       1 SIA         0.0257
     12 N5         42.8190   13.3500   32.3860 N.am      1 SIA        -0.2790
     13 O1A        47.9130   13.2850   31.0420 O.co2     1 SIA        -0.5426
     14 O1B        47.8340   11.0890   31.1030 O.co2     1 SIA        -0.5426
     15 O2         47.9310   11.8730   33.9820 O.3       1 SIA        -0.3631
     16 O4         44.5990   15.3370   32.9160 O.3       1 SIA        -0.3893
     17 O6         45.8870   11.3620   33.1570 O.3       1 SIA        -0.3385
     18 O7         43.2870   10.5960   34.1570 O.3       1 SIA        -0.3865
     19 O8         43.8120    8.2240   31.6880 O.3       1 SIA        -0.3869
     20 O9         45.4880    7.2190   33.8560 O.3       1 SIA        -0.3924
     21 O10        41.6990   13.0970   34.2850 O.2       1 SIA        -0.3974
     22 H1         47.2093   14.4413   32.9744 H         1 SIA         0.0336
     23 H2         46.2829   13.8116   34.3787 H         1 SIA         0.0336
     24 H3         45.3121   14.0118   31.4863 H         1 SIA         0.0618
     25 H4         44.0096   12.9306   34.0325 H         1 SIA         0.0608
     26 H5         44.8214   11.6438   31.3870 H         1 SIA         0.0646
     27 H6         42.8902   10.4340   32.1226 H         1 SIA         0.0647
     28 H7         45.4877    9.2533   32.3221 H         1 SIA         0.0643
     29 H8         43.5265    7.8269   34.1718 H         1 SIA         0.0584
     30 H9         44.7935    8.9400   34.7901 H         1 SIA         0.0584
     31 H10        39.6329   13.9698   33.2082 H         1 SIA         0.0467
     32 H11        40.1782   13.3278   31.6217 H         1 SIA         0.0467
     33 H12        40.6308   14.9931   32.1203 H         1 SIA         0.0467
     34 H13        42.7602   13.5611   31.4103 H         1 SIA         0.1856
     35 H14        48.1989   10.9800   33.7998 H         1 SIA         0.2112
     36 H15        43.7925   15.4853   32.4364 H         1 SIA         0.2099
     37 H16        42.8546   11.4383   34.2347 H         1 SIA         0.2100
     38 H17        43.7596    8.6850   30.8590 H         1 SIA         0.2100
     39 H18        45.2460    6.6370   33.1452 H         1 SIA         0.2095
@<TRIPOS>BOND
     1    2    1 1  
     2    1   13 ar 
     3    1   14 ar 
     4    3    2 1  
     5    2   15 1  
     6   17    2 1  
     7    4    3 1  
     8    5    4 1  
     9    4   16 1  
    10    5    6 1  
    11   12    5 1  
    12    6    7 1  
    13    6   17 1  
    14    7    8 1  
    15    7   18 1  
    16    8    9 1  
    17    8   19 1  
    18    9   20 1  
    19   10   11 1  
    20   10   12 am 
    21   10   21 2  
    22    3   22 1  
    23    3   23 1  
    24    4   24 1  
    25    5   25 1  
    26    6   26 1  
    27    7   27 1  
    28    8   28 1  
    29    9   29 1  
    30    9   30 1  
    31   11   31 1  
    32   11   32 1  
    33   11   33 1  
    34   12   34 1  
    35   15   35 1  
    36   16   36 1  
    37   18   37 1  
    38   19   38 1  
    39   20   39 1  
@<TRIPOS>SUBSTRUCTURE
     1 SIA         1

