### 
### Created by X-TOOL on Mon Sep 10 21:13:27 2018
### 

@<TRIPOS>MOLECULE
4d7b_ligand
   31    32     1     0     0
SMALL
GAST_HUCK


@<TRIPOS>ATOM
      1 O13         1.7990    2.1050   -7.2780 O.2       1 TCW        -0.3242
      2 C12         0.8760    1.3270   -7.0120 C.2       1 TCW         0.2295
      3 C4          0.6550    0.8870   -5.5970 C.ar      1 TCW         0.1691
      4 C3          1.2620    1.6000   -4.5610 C.ar      1 TCW         0.1553
      5 C2          1.0340    1.2260   -3.2370 C.ar      1 TCW         0.3812
      6 O7          1.6740    1.8700   -2.2110 O.3       1 TCW        -0.1819
      7 C5         -0.2100   -0.1670   -5.2980 C.ar      1 TCW         0.1157
      8 C6         -0.4120   -0.5680   -3.9660 C.ar      1 TCW         0.2832
      9 N9         -1.3170   -1.7420   -3.7200 N.2       1 TCW        -0.1848
     10 O11        -1.2210   -2.3830   -2.7270 O.2       1 TCW        -0.4884
     11 O10        -2.0990   -2.0060   -4.5570 O.2       1 TCW        -0.4884
     12 C1          0.2190    0.1290   -2.9190 C.ar      1 TCW         0.4073
     13 O8          0.0150   -0.2410   -1.6420 O.3       1 TCW        -0.1743
     14 C14         0.0070    0.8310   -8.1350 C.ar      1 TCW         0.0427
     15 C19         0.5730    0.4310   -9.3460 C.ar      1 TCW        -0.0487
     16 C18        -0.1690   -0.0550  -10.4130 C.ar      1 TCW        -0.0545
     17 C17        -1.5440   -0.1080  -10.3400 C.ar      1 TCW        -0.0411
     18 C20        -2.3120   -0.5850  -11.4770 C.3       1 TCW        -0.0288
     19 C16        -2.1150    0.3240   -9.1460 C.ar      1 TCW        -0.0545
     20 C15        -1.4010    0.7640   -8.0350 C.ar      1 TCW        -0.0487
     21 H1          1.9080    2.4411   -4.7851 H         1 TCW         0.1075
     22 H2          1.4040    1.4905   -1.3830 H         1 TCW         0.3502
     23 H3         -0.7298   -0.6801   -6.0990 H         1 TCW         0.1567
     24 H4          0.5107    0.3286   -1.0654 H         1 TCW         0.3547
     25 H5          1.6486    0.5037   -9.4591 H         1 TCW         0.0653
     26 H6          0.3362   -0.3952  -11.3097 H         1 TCW         0.0570
     27 H7         -3.3843   -0.5555  -11.2335 H         1 TCW         0.0401
     28 H8         -2.0175   -1.6187  -11.7108 H         1 TCW         0.0401
     29 H9         -2.1159    0.0580  -12.3477 H         1 TCW         0.0401
     30 H10        -3.1967    0.3172   -9.0763 H         1 TCW         0.0570
     31 H11        -1.9098    1.0468   -7.1205 H         1 TCW         0.0653
@<TRIPOS>BOND
     1    1    2 2  
     2    2    3 1  
     3    2   14 1  
     4    3    4 ar 
     5    3    7 ar 
     6    4    5 ar 
     7    5    6 1  
     8    5   12 ar 
     9    7    8 ar 
    10    8    9 1  
    11    8   12 ar 
    12    9   10 2  
    13    9   11 2  
    14   12   13 1  
    15   14   15 ar 
    16   14   20 ar 
    17   15   16 ar 
    18   16   17 ar 
    19   17   18 1  
    20   17   19 ar 
    21   19   20 ar 
    22    4   21 1  
    23    6   22 1  
    24    7   23 1  
    25   13   24 1  
    26   15   25 1  
    27   16   26 1  
    28   18   27 1  
    29   18   28 1  
    30   18   29 1  
    31   19   30 1  
    32   20   31 1  
@<TRIPOS>SUBSTRUCTURE
     1 TCW         1

