### 
### Created by X-TOOL on Mon Sep 10 21:13:10 2018
### 

@<TRIPOS>MOLECULE
4d83_ligand
   70    73     1     0     0
SMALL
GAST_HUCK


@<TRIPOS>ATOM
      1 F1         30.0710    7.6790   21.4130 F         1 0GT        -0.2078
      2 C2         29.6720    8.4240   20.3420 C.3       1 0GT         0.2432
      3 F4         28.3860    8.8350   20.5070 F         1 0GT        -0.2078
      4 C5         30.5910    9.6570   20.2080 C.3       1 0GT         0.0240
      5 C8         30.5790   10.2250   18.8130 C.2       1 0GT        -0.0434
      6 C9         30.1620   11.4460   18.4390 C.2       1 0GT         0.0151
      7 N11        30.3130   11.5990   17.1490 N.pl3     1 0GT        -0.2919
      8 C13        30.8340   10.4970   16.5820 C.ar      1 0GT         0.0546
      9 C14        31.0440    9.5270   17.5630 C.ar      1 0GT        -0.0287
     10 C15        31.5710    8.2580   17.2510 C.ar      1 0GT        -0.0747
     11 C17        31.8940    7.9870   15.8940 C.ar      1 0GT        -0.0601
     12 C18        31.6890    8.9820   14.8930 C.ar      1 0GT        -0.0736
     13 C20        31.1550   10.2540   15.2260 C.ar      1 0GT        -0.0488
     14 C22        32.4570    6.6020   15.5210 C.3       1 0GT        -0.0188
     15 C25        31.4310    5.7570   14.6870 C.3       1 0GT         0.0178
     16 C27        32.0150    4.3680   14.2720 C.3       1 0GT         0.1050
     17 C29        31.0670    3.5180   13.3760 C.3       1 0GT         0.0254
     18 C31        29.6510    3.2520   13.9670 C.3       1 0GT         0.1107
     19 S34        28.8670    4.8320   14.3210 S.o2      1 0GT        -0.0252
     20 C35        30.0710    5.5740   15.4280 C.3       1 0GT         0.0729
     21 O38        28.8020    5.6370   13.1200 O.2       1 0GT        -0.1741
     22 O39        27.6540    4.5940   15.0650 O.2       1 0GT        -0.1741
     23 N40        31.7430    2.2830   12.8850 N.4       1 0GT         0.2446
     24 C42        31.1390    1.4650   11.8010 C.3       1 0GT         0.0069
     25 C45        30.9620    2.3210   10.5280 C.ar      1 0GT         0.0301
     26 C46        32.1030    2.7990    9.8390 C.ar      1 0GT        -0.0336
     27 C48        32.0120    3.5950    8.6650 C.ar      1 0GT        -0.0545
     28 C49        30.7000    3.8970    8.1930 C.ar      1 0GT        -0.0455
     29 C51        29.5420    3.4320    8.8630 C.ar      1 0GT        -0.0379
     30 C53        29.6670    2.6380   10.0330 C.ar      1 0GT        -0.0265
     31 C55        33.3380    4.0690    7.9820 C.3       1 0GT        -0.0466
     32 C56        33.1210    4.7000    6.5630 C.3       1 0GT        -0.0838
     33 C60        34.1410    5.1230    8.8190 C.3       1 0GT        -0.0838
     34 C64        34.2710    2.8320    7.7880 C.3       1 0GT        -0.0838
     35 O68        33.2190    4.5660   13.5190 O.3       1 0GT        -0.3857
     36 H1         29.7430    7.8141   19.4294 H         1 0GT         0.1033
     37 H2         31.6198    9.3616   20.4616 H         1 0GT         0.0402
     38 H3         30.2487   10.4322   20.9093 H         1 0GT         0.0402
     39 H4         29.7568   12.1996   19.1127 H         1 0GT         0.0792
     40 H5         30.0644   12.4550   16.6330 H         1 0GT         0.2202
     41 H6         31.7252    7.5118   18.0220 H         1 0GT         0.0462
     42 H7         31.9449    8.7634   13.8626 H         1 0GT         0.0486
     43 H8         30.9986   11.0128   14.4678 H         1 0GT         0.0531
     44 H9         32.6990    6.0562   16.4448 H         1 0GT         0.0408
     45 H10        33.3717    6.7388   14.9256 H         1 0GT         0.0408
     46 H11        31.2279    6.3180   13.7629 H         1 0GT         0.0363
     47 H12        32.2382    3.8013   15.1879 H         1 0GT         0.0655
     48 H13        30.8879    4.1326   12.4815 H         1 0GT         0.0893
     49 H14        29.7409    2.6675   14.8945 H         1 0GT         0.0557
     50 H15        29.0450    2.6932   13.2387 H         1 0GT         0.0557
     51 H16        29.7029    6.5551   15.7624 H         1 0GT         0.0505
     52 H17        30.2160    4.9199   16.3004 H         1 0GT         0.0505
     53 H18        31.8442    1.6743   13.6821 H         1 0GT         0.2032
     54 H19        32.6544    2.5643   12.5591 H         1 0GT         0.2032
     55 H20        30.1571    1.0935   12.1293 H         1 0GT         0.0985
     56 H21        31.7977    0.6127   11.5779 H         1 0GT         0.0985
     57 H22        33.0853    2.5477   10.2223 H         1 0GT         0.0779
     58 H23        30.5864    4.4981    7.2981 H         1 0GT         0.0800
     59 H24        28.5588    3.6828    8.4817 H         1 0GT         0.0683
     60 H25        28.7826    2.2763   10.5450 H         1 0GT         0.0805
     61 H26        34.0913    5.0083    6.1466 H         1 0GT         0.0138
     62 H27        32.4633    5.5776    6.6486 H         1 0GT         0.0138
     63 H28        32.6562    3.9568    5.8984 H         1 0GT         0.0138
     64 H29        34.3214    4.7281    9.8297 H         1 0GT         0.0138
     65 H30        33.5613    6.0553    8.8877 H         1 0GT         0.0138
     66 H31        35.1039    5.3253    8.3272 H         1 0GT         0.0138
     67 H32        33.7444    2.0638    7.2026 H         1 0GT         0.0138
     68 H33        34.5439    2.4208    8.7711 H         1 0GT         0.0138
     69 H34        35.1818    3.1399    7.2536 H         1 0GT         0.0138
     70 H35        33.8298    5.0831   14.0308 H         1 0GT         0.2101
@<TRIPOS>BOND
     1    1    2 1  
     2    2    3 1  
     3    2    4 1  
     4    4    5 1  
     5    5    6 2  
     6    5    9 1  
     7    6    7 1  
     8    7    8 1  
     9    8    9 ar 
    10    8   13 ar 
    11    9   10 ar 
    12   10   11 ar 
    13   11   12 ar 
    14   11   14 1  
    15   12   13 ar 
    16   14   15 1  
    17   15   16 1  
    18   15   20 1  
    19   16   17 1  
    20   16   35 1  
    21   17   18 1  
    22   17   23 1  
    23   18   19 1  
    24   19   20 1  
    25   19   21 2  
    26   19   22 2  
    27   23   24 1  
    28   24   25 1  
    29   25   26 ar 
    30   25   30 ar 
    31   26   27 ar 
    32   27   28 ar 
    33   27   31 1  
    34   28   29 ar 
    35   29   30 ar 
    36   31   32 1  
    37   31   33 1  
    38   31   34 1  
    39    2   36 1  
    40    4   37 1  
    41    4   38 1  
    42    6   39 1  
    43    7   40 1  
    44   10   41 1  
    45   12   42 1  
    46   13   43 1  
    47   14   44 1  
    48   14   45 1  
    49   15   46 1  
    50   16   47 1  
    51   17   48 1  
    52   18   49 1  
    53   18   50 1  
    54   20   51 1  
    55   20   52 1  
    56   23   53 1  
    57   23   54 1  
    58   24   55 1  
    59   24   56 1  
    60   26   57 1  
    61   28   58 1  
    62   29   59 1  
    63   30   60 1  
    64   32   61 1  
    65   32   62 1  
    66   32   63 1  
    67   33   64 1  
    68   33   65 1  
    69   33   66 1  
    70   34   67 1  
    71   34   68 1  
    72   34   69 1  
    73   35   70 1  
@<TRIPOS>SUBSTRUCTURE
     1 0GT         1

