### 
### Created by X-TOOL on Mon Sep 10 21:13:11 2018
### 

@<TRIPOS>MOLECULE
4d85_ligand
   79    83     1     0     0
SMALL
GAST_HUCK


@<TRIPOS>ATOM
      1 F1         27.3370   39.5900   60.0990 F         1 0GU        -0.2057
      2 C2         26.6610   40.4600   60.8950 C.3       1 0GU         0.2472
      3 C3         25.1650   39.9840   60.9320 C.3       1 0GU         0.0017
      4 C6         24.3280   40.4850   62.1530 C.3       1 0GU        -0.0731
      5 C9         25.0840   40.5540   63.5290 C.3       1 0GU        -0.0305
      6 C10        24.2730   41.4390   64.5610 C.3       1 0GU         0.0063
      7 N13        24.3930   40.7190   65.8180 N.pl3     1 0GU        -0.3117
      8 C15        24.7480   39.4400   65.6250 C.ar      1 0GU         0.1014
      9 C16        25.1590   39.2100   64.3040 C.ar      1 0GU        -0.0380
     10 C17        25.5500   37.9000   63.9350 C.ar      1 0GU        -0.0551
     11 C19        25.5390   36.8460   64.8900 C.ar      1 0GU        -0.0288
     12 C20        25.1260   37.1120   66.2280 C.ar      1 0GU        -0.0068
     13 C22        24.7260   38.4210   66.6050 C.ar      1 0GU         0.1782
     14 F23        24.3390   38.6950   67.8530 F         1 0GU        -0.1844
     15 C24        25.9860   35.4280   64.4730 C.3       1 0GU        -0.0119
     16 C27        27.4260   35.0540   64.9600 C.3       1 0GU         0.0186
     17 C29        27.9910   33.6600   64.5370 C.3       1 0GU         0.1050
     18 C31        29.3660   33.3620   65.2080 C.3       1 0GU         0.0254
     19 C33        30.4830   34.3830   64.8910 C.3       1 0GU         0.1107
     20 S36        29.9280   35.9790   65.4920 S.o2      1 0GU        -0.0252
     21 C37        28.4460   36.1380   64.4970 C.3       1 0GU         0.0730
     22 O40        29.5530   35.9290   66.8870 O.2       1 0GU        -0.1741
     23 O41        30.8950   36.9560   65.0790 O.2       1 0GU        -0.1741
     24 N42        29.8360   31.9770   64.9730 N.4       1 0GU         0.2446
     25 C44        30.9330   31.3630   65.7720 C.3       1 0GU         0.0069
     26 C47        30.4690   31.3160   67.2450 C.ar      1 0GU         0.0301
     27 C48        29.3870   30.4940   67.6390 C.ar      1 0GU        -0.0336
     28 C50        28.9330   30.4260   68.9860 C.ar      1 0GU        -0.0545
     29 C51        29.6260   31.2430   69.9260 C.ar      1 0GU        -0.0455
     30 C53        30.7100   32.0720   69.5560 C.ar      1 0GU        -0.0379
     31 C55        31.1300   32.1070   68.2120 C.ar      1 0GU        -0.0265
     32 C57        27.7380   29.5030   69.4100 C.3       1 0GU        -0.0466
     33 C58        28.0960   28.0420   68.9960 C.3       1 0GU        -0.0838
     34 C62        27.4400   29.5100   70.9450 C.3       1 0GU        -0.0838
     35 C66        26.3900   29.9260   68.7410 C.3       1 0GU        -0.0838
     36 O70        27.1910   32.5450   64.9600 O.3       1 0GU        -0.3857
     37 C72        26.5120   41.1790   63.3590 C.3       1 0GU        -0.0731
     38 C75        27.3860   40.4940   62.2750 C.3       1 0GU         0.0017
     39 F78        26.7640   41.7040   60.3330 F         1 0GU        -0.2057
     40 H          25.1875   38.8962   60.9972 H         1 0GU         0.0313
     41 H          24.6879   40.3920   60.0409 H         1 0GU         0.0313
     42 H          23.5201   39.7653   62.2847 H         1 0GU         0.0148
     43 H          24.0278   41.5063   61.9185 H         1 0GU         0.0148
     44 H          23.2337   41.5731   64.2609 H         1 0GU         0.0412
     45 H          24.6639   42.4542   64.6291 H         1 0GU         0.0412
     46 H          24.2276   41.1353   66.7344 H         1 0GU         0.1897
     47 H          25.8621   37.6976   62.9104 H         1 0GU         0.0657
     48 H          25.1172   36.3080   66.9640 H         1 0GU         0.0755
     49 H          25.9914   35.3950   63.3835 H         1 0GU         0.0418
     50 H          25.2935   34.7205   64.9290 H         1 0GU         0.0418
     51 H          27.3077   35.0021   66.0423 H         1 0GU         0.0364
     52 H          28.0309   33.7423   63.4508 H         1 0GU         0.0655
     53 H          29.1550   33.4737   66.2715 H         1 0GU         0.0893
     54 H          30.6747   34.4219   63.8187 H         1 0GU         0.0557
     55 H          31.4161   34.0939   65.3746 H         1 0GU         0.0557
     56 H          28.0170   37.1322   64.6219 H         1 0GU         0.0505
     57 H          28.6868   35.9985   63.4431 H         1 0GU         0.0505
     58 H          30.2212   32.0136   64.0292 H         1 0GU         0.2032
     59 H          29.0233   31.4071   65.2078 H         1 0GU         0.2032
     60 H          31.8457   31.9517   65.6797 H         1 0GU         0.0985
     61 H          31.1504   30.3582   65.4098 H         1 0GU         0.0985
     62 H          28.8830   29.8911   66.8836 H         1 0GU         0.0779
     63 H          29.3086   31.2282   70.9687 H         1 0GU         0.0800
     64 H          31.2170   32.6797   70.3055 H         1 0GU         0.0683
     65 H          31.9643   32.7438   67.9178 H         1 0GU         0.0805
     66 H          28.2454   27.9977   67.9172 H         1 0GU         0.0138
     67 H          29.0106   27.7357   69.5036 H         1 0GU         0.0138
     68 H          27.2812   27.3755   69.2790 H         1 0GU         0.0138
     69 H          28.3208   29.1648   71.4864 H         1 0GU         0.0138
     70 H          27.1916   30.5232   71.2610 H         1 0GU         0.0138
     71 H          26.6005   28.8468   71.1539 H         1 0GU         0.0138
     72 H          26.1462   30.9477   69.0323 H         1 0GU         0.0138
     73 H          26.4905   29.8701   67.6571 H         1 0GU         0.0138
     74 H          25.5967   29.2542   69.0687 H         1 0GU         0.0138
     75 H          26.3069   32.6304   64.5956 H         1 0GU         0.2101
     76 H          27.0295   41.0584   64.3107 H         1 0GU         0.0148
     77 H          26.3732   42.2152   63.0505 H         1 0GU         0.0148
     78 H          28.3098   41.0622   62.1661 H         1 0GU         0.0313
     79 H          27.5829   39.4684   62.5872 H         1 0GU         0.0313
@<TRIPOS>BOND
     1    1    2 1  
     2    2    3 1  
     3    2   38 1  
     4    2   39 1  
     5    3    4 1  
     6    4    5 1  
     7    5    6 1  
     8    5    9 1  
     9    5   37 1  
    10    6    7 1  
    11    7    8 1  
    12    8    9 ar 
    13    8   13 ar 
    14    9   10 ar 
    15   10   11 ar 
    16   11   12 ar 
    17   11   15 1  
    18   12   13 ar 
    19   13   14 1  
    20   15   16 1  
    21   16   17 1  
    22   16   21 1  
    23   17   18 1  
    24   17   36 1  
    25   18   19 1  
    26   18   24 1  
    27   19   20 1  
    28   20   21 1  
    29   20   22 2  
    30   20   23 2  
    31   24   25 1  
    32   25   26 1  
    33   26   27 ar 
    34   26   31 ar 
    35   27   28 ar 
    36   28   29 ar 
    37   28   32 1  
    38   29   30 ar 
    39   30   31 ar 
    40   32   33 1  
    41   32   34 1  
    42   32   35 1  
    43   37   38 1  
    44    3   40 1  
    45    3   41 1  
    46    4   42 1  
    47    4   43 1  
    48    6   44 1  
    49    6   45 1  
    50    7   46 1  
    51   10   47 1  
    52   12   48 1  
    53   15   49 1  
    54   15   50 1  
    55   16   51 1  
    56   17   52 1  
    57   18   53 1  
    58   19   54 1  
    59   19   55 1  
    60   21   56 1  
    61   21   57 1  
    62   24   58 1  
    63   24   59 1  
    64   25   60 1  
    65   25   61 1  
    66   27   62 1  
    67   29   63 1  
    68   30   64 1  
    69   31   65 1  
    70   33   66 1  
    71   33   67 1  
    72   33   68 1  
    73   34   69 1  
    74   34   70 1  
    75   34   71 1  
    76   35   72 1  
    77   35   73 1  
    78   35   74 1  
    79   36   75 1  
    80   37   76 1  
    81   37   77 1  
    82   38   78 1  
    83   38   79 1  
@<TRIPOS>SUBSTRUCTURE
     1 0GU         1

