### 
### Created by X-TOOL on Mon Sep 10 21:13:09 2018
### 

@<TRIPOS>MOLECULE
4d88_ligand
   72    74     1     0     0
SMALL
GAST_HUCK


@<TRIPOS>ATOM
      1 F1         29.0640   80.8110   18.1980 F         1 BXQ        -0.1678
      2 C2         28.5910   79.5940   17.8150 C.3       1 BXQ         0.4169
      3 F3         27.3220   79.4180   18.2750 F         1 BXQ        -0.1678
      4 F4         28.5830   79.5160   16.4550 F         1 BXQ        -0.1678
      5 C5         29.5250   78.5160   18.4130 C.3       1 BXQ         0.1572
      6 O7         30.8450   78.6240   17.8490 O.3       1 BXQ        -0.3811
      7 C9         29.6010   78.5940   19.9710 C.3       1 BXQ         0.0096
      8 C12        30.2470   77.3110   20.5180 C.ar      1 BXQ        -0.0299
      9 C13        31.5150   77.2620   21.1700 C.ar      1 BXQ         0.0649
     10 C14        32.0060   76.0090   21.6250 C.ar      1 BXQ         0.1356
     11 C15        31.2590   74.8210   21.4370 C.ar      1 BXQ        -0.0450
     12 C17        30.0010   74.8730   20.7860 C.ar      1 BXQ        -0.0637
     13 C18        29.5080   76.1180   20.3410 C.ar      1 BXQ        -0.0736
     14 C20        29.1650   73.6040   20.5330 C.3       1 BXQ        -0.0207
     15 C23        29.7450   72.7480   19.3490 C.3       1 BXQ         0.0175
     16 C25        28.8260   71.5860   18.8540 C.3       1 BXQ         0.1049
     17 C27        29.5570   70.6590   17.8250 C.3       1 BXQ         0.0254
     18 C29        30.0630   71.3840   16.5420 C.3       1 BXQ         0.1107
     19 S32        31.1990   72.6990   17.0110 S.o2      1 BXQ        -0.0252
     20 C33        30.1480   73.6390   18.1190 C.3       1 BXQ         0.0729
     21 O36        32.3190   72.1540   17.7510 O.2       1 BXQ        -0.1741
     22 O37        31.5050   73.5140   15.8490 O.2       1 BXQ        -0.1741
     23 N38        28.7500   69.4540   17.4970 N.4       1 BXQ         0.2446
     24 C40        29.3550   68.2500   16.8560 C.3       1 BXQ         0.0069
     25 C43        30.5030   67.7500   17.7520 C.ar      1 BXQ         0.0301
     26 C44        30.2190   67.1640   19.0090 C.ar      1 BXQ        -0.0336
     27 C46        31.2380   66.6850   19.8890 C.ar      1 BXQ        -0.0545
     28 C47        32.5820   66.8300   19.4260 C.ar      1 BXQ        -0.0455
     29 C49        32.8900   67.4110   18.1720 C.ar      1 BXQ        -0.0379
     30 C51        31.8490   67.8720   17.3320 C.ar      1 BXQ        -0.0265
     31 C53        30.8540   66.0460   21.2790 C.3       1 BXQ        -0.0466
     32 C54        32.0500   65.2740   21.9210 C.3       1 BXQ        -0.0838
     33 C58        30.4080   67.1460   22.2980 C.3       1 BXQ        -0.0838
     34 C62        29.6560   65.0400   21.1850 C.3       1 BXQ        -0.0838
     35 O66        28.4280   70.6980   19.9140 O.3       1 BXQ        -0.3857
     36 F68        33.1890   75.9430   22.2350 F         1 BXQ        -0.1966
     37 N69        32.2850   78.3620   21.3780 N.pl3     1 BXQ        -0.3438
     38 H1         29.1157   77.5310   18.1444 H         1 BXQ         0.0703
     39 H2         30.7968   78.5039   16.9078 H         1 BXQ         0.2104
     40 H3         28.5863   78.6977   20.3828 H         1 BXQ         0.0425
     41 H4         30.2069   79.4636   20.2654 H         1 BXQ         0.0425
     42 H5         31.6486   73.8732   21.7904 H         1 BXQ         0.0454
     43 H6         28.5412   76.1611   19.8525 H         1 BXQ         0.0430
     44 H7         28.1346   73.8999   20.2867 H         1 BXQ         0.0404
     45 H8         29.1622   72.9916   21.4468 H         1 BXQ         0.0404
     46 H9         30.6651   72.2821   19.7316 H         1 BXQ         0.0363
     47 H10        27.9335   72.0294   18.3884 H         1 BXQ         0.0655
     48 H11        30.4595   70.2960   18.3385 H         1 BXQ         0.0893
     49 H12        29.2071   71.8135   16.0008 H         1 BXQ         0.0557
     50 H13        30.5827   70.6634   15.8935 H         1 BXQ         0.0557
     51 H14        30.6918   74.5271   18.4733 H         1 BXQ         0.0505
     52 H15        29.2407   73.9542   17.5828 H         1 BXQ         0.0505
     53 H16        28.0167   69.7646   16.8790 H         1 BXQ         0.2032
     54 H17        28.3467   69.1391   18.3654 H         1 BXQ         0.2032
     55 H18        29.7468   68.5148   15.8628 H         1 BXQ         0.0985
     56 H19        28.5943   67.4622   16.7521 H         1 BXQ         0.0985
     57 H20        29.1836   67.0748   19.3174 H         1 BXQ         0.0779
     58 H21        33.3932   66.4835   20.0560 H         1 BXQ         0.0800
     59 H22        33.9228   67.5025   17.8557 H         1 BXQ         0.0683
     60 H23        32.0813   68.3166   16.3711 H         1 BXQ         0.0805
     61 H24        31.7359   64.8474   22.8850 H         1 BXQ         0.0138
     62 H25        32.8891   65.9666   22.0826 H         1 BXQ         0.0138
     63 H26        32.3674   64.4641   21.2477 H         1 BXQ         0.0138
     64 H27        29.5637   67.7131   21.8791 H         1 BXQ         0.0138
     65 H28        31.2483   67.8289   22.4916 H         1 BXQ         0.0138
     66 H29        30.0983   66.6695   23.2398 H         1 BXQ         0.0138
     67 H30        29.9076   64.2353   20.4785 H         1 BXQ         0.0138
     68 H31        28.7589   65.5700   20.8326 H         1 BXQ         0.0138
     69 H32        29.4607   64.6085   22.1778 H         1 BXQ         0.0138
     70 H33        27.9724   71.1922   20.5853 H         1 BXQ         0.2101
     71 H34        31.9592   79.2862   21.0608 H         1 BXQ         0.1665
     72 H35        33.1945   78.2717   21.8529 H         1 BXQ         0.1665
@<TRIPOS>BOND
     1    1    2 1  
     2    2    3 1  
     3    2    4 1  
     4    2    5 1  
     5    5    6 1  
     6    5    7 1  
     7    7    8 1  
     8    8    9 ar 
     9    8   13 ar 
    10    9   10 ar 
    11    9   37 1  
    12   10   11 ar 
    13   10   36 1  
    14   11   12 ar 
    15   12   13 ar 
    16   12   14 1  
    17   14   15 1  
    18   15   16 1  
    19   15   20 1  
    20   16   17 1  
    21   16   35 1  
    22   17   18 1  
    23   17   23 1  
    24   18   19 1  
    25   19   20 1  
    26   19   21 2  
    27   19   22 2  
    28   23   24 1  
    29   24   25 1  
    30   25   26 ar 
    31   25   30 ar 
    32   26   27 ar 
    33   27   28 ar 
    34   27   31 1  
    35   28   29 ar 
    36   29   30 ar 
    37   31   32 1  
    38   31   33 1  
    39   31   34 1  
    40    5   38 1  
    41    6   39 1  
    42    7   40 1  
    43    7   41 1  
    44   11   42 1  
    45   13   43 1  
    46   14   44 1  
    47   14   45 1  
    48   15   46 1  
    49   16   47 1  
    50   17   48 1  
    51   18   49 1  
    52   18   50 1  
    53   20   51 1  
    54   20   52 1  
    55   23   53 1  
    56   23   54 1  
    57   24   55 1  
    58   24   56 1  
    59   26   57 1  
    60   28   58 1  
    61   29   59 1  
    62   30   60 1  
    63   32   61 1  
    64   32   62 1  
    65   32   63 1  
    66   33   64 1  
    67   33   65 1  
    68   33   66 1  
    69   34   67 1  
    70   34   68 1  
    71   34   69 1  
    72   35   70 1  
    73   37   71 1  
    74   37   72 1  
@<TRIPOS>SUBSTRUCTURE
     1 BXQ         1

