### 
### Created by X-TOOL on Mon Sep 10 21:13:10 2018
### 

@<TRIPOS>MOLECULE
4d89_ligand
   79    81     1     0     0
SMALL
GAST_HUCK


@<TRIPOS>ATOM
      1 F1         27.6690   79.6480   18.6750 F         1 BXD        -0.1675
      2 C2         27.4650   78.4900   17.9980 C.3       1 BXD         0.4217
      3 F3         26.7450   77.6650   18.8020 F         1 BXD        -0.1675
      4 F4         26.7580   78.7170   16.8580 F         1 BXD        -0.1675
      5 C5         28.8370   77.8370   17.7010 C.3       1 BXD         0.1953
      6 O7         29.4310   77.6620   19.0060 O.3       1 BXD        -0.3119
      7 C8         29.7380   76.3890   19.4990 C.ar      1 BXD         0.1019
      8 C9         30.9170   76.2430   20.2650 C.ar      1 BXD         0.0924
      9 C10        31.2690   74.9710   20.7750 C.ar      1 BXD         0.1338
     10 C11        30.4460   73.8460   20.5280 C.ar      1 BXD        -0.0493
     11 C13        29.2610   73.9900   19.7600 C.ar      1 BXD        -0.0658
     12 C14        28.9140   75.2630   19.2520 C.ar      1 BXD        -0.0464
     13 C16        28.3460   72.7940   19.4480 C.3       1 BXD        -0.0215
     14 C19        28.9600   71.8270   18.3780 C.3       1 BXD         0.0175
     15 C21        28.0610   70.6010   18.0200 C.3       1 BXD         0.1049
     16 C23        28.7920   69.5670   17.1040 C.3       1 BXD         0.0254
     17 C25        29.3610   70.1570   15.7750 C.3       1 BXD         0.1107
     18 S28        30.4570   71.5420   16.1090 S.o2      1 BXD        -0.0252
     19 C29        29.3700   72.5900   17.0750 C.3       1 BXD         0.0729
     20 O32        30.7420   72.1990   14.8430 O.2       1 BXD        -0.1741
     21 O33        31.5760   71.0990   16.9150 O.2       1 BXD        -0.1741
     22 N34        27.9650   68.3520   16.8500 N.4       1 BXD         0.2446
     23 C36        28.5550   67.1190   16.2530 C.3       1 BXD         0.0069
     24 C39        29.7600   66.6350   17.0790 C.ar      1 BXD         0.0301
     25 C40        29.5340   66.1300   18.3810 C.ar      1 BXD        -0.0336
     26 C42        30.5910   65.6670   19.2200 C.ar      1 BXD        -0.0545
     27 C43        31.9080   65.7370   18.6770 C.ar      1 BXD        -0.0455
     28 C45        32.1590   66.2370   17.3760 C.ar      1 BXD        -0.0379
     29 C47        31.0840   66.6870   16.5750 C.ar      1 BXD        -0.0265
     30 C49        30.2920   65.1190   20.6620 C.3       1 BXD        -0.0466
     31 C50        29.1740   64.0390   20.5720 C.3       1 BXD        -0.0838
     32 C54        31.5130   64.4610   21.3870 C.3       1 BXD        -0.0838
     33 C58        29.8140   66.2690   21.6120 C.3       1 BXD        -0.0838
     34 O62        27.6960   69.8560   19.1940 O.3       1 BXD        -0.3857
     35 F64        32.3840   74.8390   21.4850 F         1 BXD        -0.1980
     36 N65        31.7010   77.3250   20.5020 N.pl3     1 BXD        -0.3441
     37 C68        29.7390   78.7500   16.8170 C.3       1 BXD         0.0863
     38 O71        30.7930   77.9750   16.2020 O.3       1 BXD        -0.3768
     39 C72        32.0740   78.0920   16.8680 C.3       1 BXD         0.0450
     40 C75        33.0780   77.0870   16.2440 C.3       1 BXD        -0.0416
     41 H1         28.7009   76.8673   17.1998 H         1 BXD         0.0759
     42 H2         30.7205   72.8754   20.9250 H         1 BXD         0.0419
     43 H3         28.0084   75.3788   18.6676 H         1 BXD         0.0414
     44 H4         27.3860   73.1745   19.0690 H         1 BXD         0.0404
     45 H5         28.1758   72.2292   20.3765 H         1 BXD         0.0404
     46 H6         29.8819   71.4222   18.8209 H         1 BXD         0.0363
     47 H7         27.1567   70.9700   17.5140 H         1 BXD         0.0655
     48 H8         29.6666   69.2291   17.6793 H         1 BXD         0.0893
     49 H9         28.5263   70.5011   15.1467 H         1 BXD         0.0557
     50 H10        29.9214   69.3738   15.2435 H         1 BXD         0.0557
     51 H11        29.8935   73.5203   17.3406 H         1 BXD         0.0505
     52 H12        28.4708   72.8299   16.4886 H         1 BXD         0.0505
     53 H13        27.2206   68.6383   16.2336 H         1 BXD         0.2032
     54 H14        27.5782   68.0799   17.7402 H         1 BXD         0.2032
     55 H15        28.8856   67.3376   15.2269 H         1 BXD         0.0985
     56 H16        27.7913   66.3276   16.2314 H         1 BXD         0.0985
     57 H17        28.5176   66.0934   18.7560 H         1 BXD         0.0779
     58 H18        32.7429   65.3969   19.2789 H         1 BXD         0.0800
     59 H19        33.1731   66.2747   16.9950 H         1 BXD         0.0683
     60 H20        31.2718   67.0705   15.5787 H         1 BXD         0.0805
     61 H21        28.9584   63.6498   21.5780 H         1 BXD         0.0138
     62 H22        29.5107   63.2158   19.9248 H         1 BXD         0.0138
     63 H23        28.2631   64.4884   20.1498 H         1 BXD         0.0138
     64 H24        32.3284   65.1946   21.4711 H         1 BXD         0.0138
     65 H25        31.8594   63.5927   20.8072 H         1 BXD         0.0138
     66 H26        31.2095   64.1333   22.3922 H         1 BXD         0.0138
     67 H27        28.9501   66.7805   21.1626 H         1 BXD         0.0138
     68 H28        30.6325   66.9896   21.7561 H         1 BXD         0.0138
     69 H29        29.5236   65.8445   22.5844 H         1 BXD         0.0138
     70 H30        27.2424   70.4277   19.8021 H         1 BXD         0.2101
     71 H31        31.4349   78.2461   20.1257 H         1 BXD         0.1652
     72 H32        32.5622   77.2251   21.0582 H         1 BXD         0.1652
     73 H33        30.1857   79.5350   17.4449 H         1 BXD         0.0592
     74 H34        29.1250   79.2142   16.0312 H         1 BXD         0.0592
     75 H35        31.9518   77.8705   17.9385 H         1 BXD         0.0557
     76 H36        32.4576   79.1158   16.7468 H         1 BXD         0.0557
     77 H37        34.0500   77.1773   16.7509 H         1 BXD         0.0252
     78 H38        33.2008   77.3082   15.1735 H         1 BXD         0.0252
     79 H39        32.6950   76.0630   16.3652 H         1 BXD         0.0252
@<TRIPOS>BOND
     1    1    2 1  
     2    2    3 1  
     3    2    4 1  
     4    2    5 1  
     5    5    6 1  
     6    5   37 1  
     7    6    7 1  
     8    7    8 ar 
     9    7   12 ar 
    10    8    9 ar 
    11    8   36 1  
    12    9   10 ar 
    13    9   35 1  
    14   10   11 ar 
    15   11   12 ar 
    16   11   13 1  
    17   13   14 1  
    18   14   15 1  
    19   14   19 1  
    20   15   16 1  
    21   15   34 1  
    22   16   17 1  
    23   16   22 1  
    24   17   18 1  
    25   18   19 1  
    26   18   20 2  
    27   18   21 2  
    28   22   23 1  
    29   23   24 1  
    30   24   25 ar 
    31   24   29 ar 
    32   25   26 ar 
    33   26   27 ar 
    34   26   30 1  
    35   27   28 ar 
    36   28   29 ar 
    37   30   31 1  
    38   30   32 1  
    39   30   33 1  
    40   37   38 1  
    41   38   39 1  
    42   39   40 1  
    43    5   41 1  
    44   10   42 1  
    45   12   43 1  
    46   13   44 1  
    47   13   45 1  
    48   14   46 1  
    49   15   47 1  
    50   16   48 1  
    51   17   49 1  
    52   17   50 1  
    53   19   51 1  
    54   19   52 1  
    55   22   53 1  
    56   22   54 1  
    57   23   55 1  
    58   23   56 1  
    59   25   57 1  
    60   27   58 1  
    61   28   59 1  
    62   29   60 1  
    63   31   61 1  
    64   31   62 1  
    65   31   63 1  
    66   32   64 1  
    67   32   65 1  
    68   32   66 1  
    69   33   67 1  
    70   33   68 1  
    71   33   69 1  
    72   34   70 1  
    73   36   71 1  
    74   36   72 1  
    75   37   73 1  
    76   37   74 1  
    77   39   75 1  
    78   39   76 1  
    79   40   77 1  
    80   40   78 1  
    81   40   79 1  
@<TRIPOS>SUBSTRUCTURE
     1 BXD         1

