### 
### Created by X-TOOL on Mon Sep 10 21:13:11 2018
### 

@<TRIPOS>MOLECULE
4d8a_ligand
   33    34     1     0     0
SMALL
GAST_HUCK


@<TRIPOS>ATOM
      1 O1        -14.2120   27.6740    3.7010 O.2       1 0HY        -0.3777
      2 N1        -16.4860   23.5280    2.3500 N.pl3     1 0HY        -0.2740
      3 C1        -13.8390   25.6050    4.9930 C.ar      1 0HY         0.1335
      4 C2        -14.4760   26.3390    3.9190 C.2       1 0HY         0.2492
      5 N2        -14.9770   23.5860    4.2890 N.2       1 0HY        -0.2829
      6 C3        -12.9030   25.9910    9.8740 C.2       1 0HY         0.2365
      7 N3        -12.6230   24.0530    7.0810 N.ar      1 0HY        -0.2777
      8 C4        -12.3030   25.3060    7.0470 C.ar      1 0HY         0.1030
      9 C5        -14.5660   26.4130   11.3410 C.3       1 0HY         0.0658
     10 C6        -14.1310   24.2690    5.1140 C.ar      1 0HY         0.0518
     11 C7        -12.8770   26.1780    5.9970 C.ar      1 0HY         0.1810
     12 C8        -11.7320   26.6120    9.1810 C.3       1 0HY         0.0668
     13 N4        -13.4850   23.5590    6.1710 N.ar      1 0HY        -0.3251
     14 C9        -15.6220   24.2370    3.2310 C.2       1 0HY         0.2439
     15 C10       -10.2870   24.7770    8.3770 C.3       1 0HY        -0.0443
     16 N5        -15.3570   25.6700    3.0510 N.am      1 0HY        -0.1720
     17 O2        -12.8070   24.8560   10.4170 O.2       1 0HY        -0.3702
     18 O3        -13.8330   26.7520   10.2280 O.3       1 0HY        -0.2800
     19 C11       -11.2380   25.8660    7.9740 C.3       1 0HY         0.0410
     20 O4        -12.5680   27.5110    6.0010 O.3       1 0HY        -0.2965
     21 H1        -16.6575   22.5228    2.4952 H         1 0HY         0.1941
     22 H2        -16.9398   24.0200    1.5671 H         1 0HY         0.1941
     23 H3        -15.3380   27.1763   11.5180 H         1 0HY         0.0577
     24 H4        -13.9004   26.3553   12.2148 H         1 0HY         0.0577
     25 H5        -15.0460   25.4364   11.1805 H         1 0HY         0.0577
     26 H6        -10.9046   26.6787    9.9028 H         1 0HY         0.0553
     27 H7        -12.0222   27.6237    8.8613 H         1 0HY         0.0553
     28 H8         -9.9381   24.2444    7.4800 H         1 0HY         0.0265
     29 H9        -10.8004   24.0709    9.0461 H         1 0HY         0.0265
     30 H10        -9.4255   25.2175    8.9001 H         1 0HY         0.0265
     31 H11       -15.8039   26.1710    2.3098 H         1 0HY         0.2529
     32 H12       -10.6672   26.5946    7.3796 H         1 0HY         0.0570
     33 H13       -13.0057   27.9386    5.2743 H         1 0HY         0.2670
@<TRIPOS>BOND
     1    4    1 2  
     2   14    2 1  
     3    3    4 1  
     4    3   10 ar 
     5   11    3 ar 
     6    4   16 am 
     7   10    5 1  
     8    5   14 2  
     9   12    6 1  
    10    6   17 2  
    11    6   18 1  
    12    8    7 ar 
    13    7   13 ar 
    14    8   11 ar 
    15   19    8 1  
    16   18    9 1  
    17   13   10 ar 
    18   11   20 1  
    19   12   19 1  
    20   14   16 am 
    21   19   15 1  
    22    2   21 1  
    23    2   22 1  
    24    9   23 1  
    25    9   24 1  
    26    9   25 1  
    27   12   26 1  
    28   12   27 1  
    29   15   28 1  
    30   15   29 1  
    31   15   30 1  
    32   16   31 1  
    33   19   32 1  
    34   20   33 1  
@<TRIPOS>SUBSTRUCTURE
     1 0HY         1

