### 
### Created by X-TOOL on Mon Sep 10 21:13:10 2018
### 

@<TRIPOS>MOLECULE
4d8c_ligand
   79    81     1     0     0
SMALL
GAST_HUCK


@<TRIPOS>ATOM
      1 F1         30.8100    9.4900   21.3900 F         1 BXD        -0.1675
      2 C2         30.7100    8.3100   20.7360 C.3       1 BXD         0.4217
      3 F3         31.9360    8.0010   20.2650 F         1 BXD        -0.1675
      4 F4         30.3210    7.3190   21.5810 F         1 BXD        -0.1675
      5 C5         29.7320    8.4610   19.5350 C.3       1 BXD         0.1953
      6 O7         30.2460    9.5590   18.7400 O.3       1 BXD        -0.3119
      7 C8         30.6030    9.3650   17.4090 C.ar      1 BXD         0.1019
      8 C9         30.2620   10.3590   16.4560 C.ar      1 BXD         0.0924
      9 C10        30.6220   10.1750   15.0960 C.ar      1 BXD         0.1338
     10 C11        31.2870    8.9990   14.6820 C.ar      1 BXD        -0.0493
     11 C13        31.6170    8.0040   15.6380 C.ar      1 BXD        -0.0658
     12 C14        31.2700    8.1920   16.9910 C.ar      1 BXD        -0.0464
     13 C16        32.3220    6.7020   15.2260 C.3       1 BXD        -0.0215
     14 C19        31.3450    5.6920   14.5220 C.3       1 BXD         0.0175
     15 C21        31.9840    4.3080   14.1880 C.3       1 BXD         0.1049
     16 C23        31.0420    3.3910   13.3440 C.3       1 BXD         0.0254
     17 C25        29.6270    3.1280   13.9520 C.3       1 BXD         0.1107
     18 S28        28.7850    4.6730   14.3140 S.o2      1 BXD        -0.0252
     19 C29        30.0260    5.4710   15.3380 C.3       1 BXD         0.0729
     20 O32        27.6140    4.3840   15.1100 O.2       1 BXD        -0.1741
     21 O33        28.6100    5.4540   13.0990 O.2       1 BXD        -0.1741
     22 N34        31.7050    2.1270   12.9120 N.4       1 BXD         0.2446
     23 C36        31.1160    1.2670   11.8480 C.3       1 BXD         0.0069
     24 C39        30.9020    2.0840   10.5580 C.ar      1 BXD         0.0301
     25 C40        32.0370    2.5480    9.8600 C.ar      1 BXD        -0.0336
     26 C42        31.9510    3.3110    8.6580 C.ar      1 BXD        -0.0545
     27 C43        30.6310    3.5820    8.1880 C.ar      1 BXD        -0.0455
     28 C45        29.4770    3.1280    8.8690 C.ar      1 BXD        -0.0379
     29 C47        29.6040    2.3730   10.0600 C.ar      1 BXD        -0.0265
     30 C49        33.2470    3.8000    7.9250 C.3       1 BXD        -0.0466
     31 C50        34.2140    2.5960    7.7180 C.3       1 BXD        -0.0838
     32 C54        33.0210    4.4330    6.5070 C.3       1 BXD        -0.0838
     33 C58        33.9910    4.8900    8.7680 C.3       1 BXD        -0.0838
     34 O62        33.1790    4.4790   13.4060 O.3       1 BXD        -0.3857
     35 F64        30.3120   11.0990   14.1910 F         1 BXD        -0.1980
     36 N65        29.6240   11.4870   16.8540 N.pl3     1 BXD        -0.3441
     37 C68        28.2780    8.7570   19.9990 C.3       1 BXD         0.0863
     38 O71        27.4550    8.8720   18.8220 O.3       1 BXD        -0.3768
     39 C72        26.0210    8.8840   19.0730 C.3       1 BXD         0.0450
     40 C75        25.5520   10.3750   19.0670 C.3       1 BXD        -0.0416
     41 H1         29.7312    7.5355   18.9405 H         1 BXD         0.0759
     42 H2         31.5439    8.8577   13.6384 H         1 BXD         0.0419
     43 H3         31.5177    7.4280   17.7190 H         1 BXD         0.0414
     44 H4         32.7367    6.2241   16.1258 H         1 BXD         0.0404
     45 H5         33.1389    6.9466   14.5312 H         1 BXD         0.0404
     46 H6         31.0626    6.1529   13.5640 H         1 BXD         0.0363
     47 H7         32.2291    3.8026   15.1338 H         1 BXD         0.0655
     48 H8         30.8534    3.9564   12.4195 H         1 BXD         0.0893
     49 H9         29.7366    2.5515   14.8824 H         1 BXD         0.0557
     50 H10        29.0275    2.5517   13.2320 H         1 BXD         0.0557
     51 H11        29.6434    6.4441   15.6795 H         1 BXD         0.0505
     52 H12        30.2408    4.8351   16.2094 H         1 BXD         0.0505
     53 H13        31.7818    1.5498   13.7348 H         1 BXD         0.2032
     54 H14        32.6266    2.3829   12.5938 H         1 BXD         0.2032
     55 H15        30.1485    0.8737   12.1933 H         1 BXD         0.0985
     56 H16        31.7984    0.4300   11.6386 H         1 BXD         0.0985
     57 H17        33.0189    2.3140   10.2552 H         1 BXD         0.0779
     58 H18        30.5082    4.1561    7.2768 H         1 BXD         0.0800
     59 H19        28.4928    3.3588    8.4778 H         1 BXD         0.0683
     60 H20        28.7230    2.0206   10.5842 H         1 BXD         0.0805
     61 H21        35.1233    2.9403    7.2035 H         1 BXD         0.0138
     62 H22        33.7168    1.8269    7.1086 H         1 BXD         0.0138
     63 H23        34.4847    2.1708    8.6957 H         1 BXD         0.0138
     64 H24        32.3412    5.2935    6.5937 H         1 BXD         0.0138
     65 H25        32.5780    3.6819    5.8365 H         1 BXD         0.0138
     66 H26        33.9853    4.7674    6.0968 H         1 BXD         0.0138
     67 H27        34.1801    4.5044    9.7807 H         1 BXD         0.0138
     68 H28        33.3676    5.7941    8.8304 H         1 BXD         0.0138
     69 H29        34.9480    5.1370    8.2852 H         1 BXD         0.0138
     70 H30        33.7888    5.0332   13.8787 H         1 BXD         0.2101
     71 H31        29.3668   11.6113   17.8436 H         1 BXD         0.1652
     72 H32        29.3965   12.2197   16.1668 H         1 BXD         0.1652
     73 H33        28.2510    9.6981   20.5679 H         1 BXD         0.0592
     74 H34        27.9126    7.9351   20.6322 H         1 BXD         0.0592
     75 H35        25.8076    8.4278   20.0509 H         1 BXD         0.0557
     76 H36        25.4976    8.3231   18.2847 H         1 BXD         0.0557
     77 H37        24.4690   10.4194   19.2545 H         1 BXD         0.0252
     78 H38        25.7734   10.8251   18.0880 H         1 BXD         0.0252
     79 H39        26.0834   10.9297   19.8543 H         1 BXD         0.0252
@<TRIPOS>BOND
     1    1    2 1  
     2    2    3 1  
     3    2    4 1  
     4    2    5 1  
     5    5    6 1  
     6    5   37 1  
     7    6    7 1  
     8    7    8 ar 
     9    7   12 ar 
    10    8    9 ar 
    11    8   36 1  
    12    9   10 ar 
    13    9   35 1  
    14   10   11 ar 
    15   11   12 ar 
    16   11   13 1  
    17   13   14 1  
    18   14   15 1  
    19   14   19 1  
    20   15   16 1  
    21   15   34 1  
    22   16   17 1  
    23   16   22 1  
    24   17   18 1  
    25   18   19 1  
    26   18   20 2  
    27   18   21 2  
    28   22   23 1  
    29   23   24 1  
    30   24   25 ar 
    31   24   29 ar 
    32   25   26 ar 
    33   26   27 ar 
    34   26   30 1  
    35   27   28 ar 
    36   28   29 ar 
    37   30   31 1  
    38   30   32 1  
    39   30   33 1  
    40   37   38 1  
    41   38   39 1  
    42   39   40 1  
    43    5   41 1  
    44   10   42 1  
    45   12   43 1  
    46   13   44 1  
    47   13   45 1  
    48   14   46 1  
    49   15   47 1  
    50   16   48 1  
    51   17   49 1  
    52   17   50 1  
    53   19   51 1  
    54   19   52 1  
    55   22   53 1  
    56   22   54 1  
    57   23   55 1  
    58   23   56 1  
    59   25   57 1  
    60   27   58 1  
    61   28   59 1  
    62   29   60 1  
    63   31   61 1  
    64   31   62 1  
    65   31   63 1  
    66   32   64 1  
    67   32   65 1  
    68   32   66 1  
    69   33   67 1  
    70   33   68 1  
    71   33   69 1  
    72   34   70 1  
    73   36   71 1  
    74   36   72 1  
    75   37   73 1  
    76   37   74 1  
    77   39   75 1  
    78   39   76 1  
    79   40   77 1  
    80   40   78 1  
    81   40   79 1  
@<TRIPOS>SUBSTRUCTURE
     1 BXD         1

