### 
### Created by X-TOOL on Mon Sep 10 21:13:08 2018
### 

@<TRIPOS>MOLECULE
4d8e_ligand
   54    53     1     0     0
SMALL
GAST_HUCK


@<TRIPOS>ATOM
      1 C1        -17.3590   11.6880   -4.7270 C.2       1 E64         0.0396
      2 O1        -17.6250   12.8560   -4.2560 O.co2     1 E64        -0.5688
      3 O2        -18.2960   10.9420   -5.1210 O.co2     1 E64        -0.5688
      4 C2        -15.9630   11.1890   -4.8610 C.3       1 E64         0.0436
      5 C3        -15.0640   12.2980   -5.2090 C.3       1 E64         0.1549
      6 O3        -15.4000   12.4930   -6.5950 O.3       1 E64        -0.3697
      7 C4        -13.6210   11.9170   -5.1800 C.2       1 E64         0.2089
      8 O4        -12.8790   12.0810   -4.1740 O.2       1 E64        -0.3940
      9 N1        -12.9870   11.3280   -6.2910 N.am      1 E64        -0.2634
     10 C6        -11.5430   11.0020   -6.2220 C.3       1 E64         0.1311
     11 C7        -11.2710    9.5750   -6.6270 C.3       1 E64        -0.0101
     12 C8        -11.9130    8.5280   -5.7200 C.3       1 E64        -0.0425
     13 C9        -11.5420    7.1150   -6.0880 C.3       1 E64        -0.0625
     14 C10       -11.5210    8.7670   -4.2490 C.3       1 E64        -0.0625
     15 C11       -10.7360   12.0110   -7.0420 C.2       1 E64         0.2017
     16 O5        -11.1720   13.1450   -7.2730 O.2       1 E64        -0.3945
     17 N2         -9.4480   11.6790   -7.5310 N.am      1 E64        -0.2851
     18 C12        -8.6650   12.6830   -8.3030 C.3       1 E64         0.0311
     19 C13        -7.8610   13.7080   -7.5010 C.3       1 E64        -0.0296
     20 C14        -8.7170   14.7520   -6.7690 C.3       1 E64        -0.0180
     21 C15        -8.1430   16.0660   -6.2490 C.3       1 E64         0.0626
     22 N3         -7.1500   16.0210   -5.1780 N.pl3     1 E64        -0.2723
     23 C16        -6.0740   17.0420   -5.1460 C.cat     1 E64         0.2882
     24 N4         -6.0560   17.9850   -6.0930 N.pl3     1 E64        -0.2849
     25 N5         -5.1550   17.0080   -4.2030 N.pl3     1 E64        -0.2849
     26 H1        -15.9233   10.4259   -5.6523 H         1 E64         0.0481
     27 H2        -15.6416   10.7452   -3.9072 H         1 E64         0.0481
     28 H3        -15.2472   13.1858   -4.5859 H         1 E64         0.0856
     29 H4        -14.8756   13.2011   -6.9502 H         1 E64         0.2135
     30 H5        -13.5080   11.1309   -7.1215 H         1 E64         0.1883
     31 H6        -11.2292   11.1051   -5.1728 H         1 E64         0.0800
     32 H7        -10.1825    9.4165   -6.6183 H         1 E64         0.0315
     33 H8        -11.6548    9.4279   -7.6473 H         1 E64         0.0315
     34 H9        -13.0043    8.6300   -5.8133 H         1 E64         0.0298
     35 H10       -12.0360    6.4148   -5.3983 H         1 E64         0.0232
     36 H11       -10.4513    6.9918   -6.0166 H         1 E64         0.0232
     37 H12       -11.8679    6.9066   -7.1177 H         1 E64         0.0232
     38 H13       -11.7848    9.7955   -3.9617 H         1 E64         0.0232
     39 H14       -10.4375    8.6195   -4.1296 H         1 E64         0.0232
     40 H15       -12.0609    8.0567   -3.6056 H         1 E64         0.0232
     41 H16        -9.0654   10.7715   -7.3578 H         1 E64         0.1851
     42 H17        -9.3723   13.2389   -8.9360 H         1 E64         0.0520
     43 H18        -7.9573   12.1323   -8.9401 H         1 E64         0.0520
     44 H19        -7.1901   14.2374   -8.1935 H         1 E64         0.0286
     45 H20        -7.2631   13.1672   -6.7526 H         1 E64         0.0286
     46 H21        -9.1435   14.2383   -5.8948 H         1 E64         0.0300
     47 H22        -9.5248   15.0257   -7.4637 H         1 E64         0.0300
     48 H23        -8.9885   16.6664   -5.8820 H         1 E64         0.0689
     49 H24        -7.6748   16.5760   -7.1038 H         1 E64         0.0689
     50 H25        -7.1964   15.2896   -4.4543 H         1 E64         0.2642
     51 H26        -5.3182   18.7037   -6.0901 H         1 E64         0.2615
     52 H27        -6.7799   17.9930   -6.8257 H         1 E64         0.2615
     53 H28        -5.1847   16.2738   -3.4812 H         1 E64         0.2615
     54 H29        -4.4067   17.7156   -4.1874 H         1 E64         0.2615
@<TRIPOS>BOND
     1    1    2 ar 
     2    1    3 ar 
     3    1    4 1  
     4    4    5 1  
     5    5    6 1  
     6    5    7 1  
     7    7    8 2  
     8    7    9 am 
     9    9   10 1  
    10   10   11 1  
    11   10   15 1  
    12   11   12 1  
    13   12   13 1  
    14   12   14 1  
    15   15   16 2  
    16   15   17 am 
    17   17   18 1  
    18   18   19 1  
    19   19   20 1  
    20   20   21 1  
    21   21   22 1  
    22   22   23 ar 
    23   23   24 ar 
    24   23   25 ar 
    25    4   26 1  
    26    4   27 1  
    27    5   28 1  
    28    6   29 1  
    29    9   30 1  
    30   10   31 1  
    31   11   32 1  
    32   11   33 1  
    33   12   34 1  
    34   13   35 1  
    35   13   36 1  
    36   13   37 1  
    37   14   38 1  
    38   14   39 1  
    39   14   40 1  
    40   17   41 1  
    41   18   42 1  
    42   18   43 1  
    43   19   44 1  
    44   19   45 1  
    45   20   46 1  
    46   20   47 1  
    47   21   48 1  
    48   21   49 1  
    49   22   50 1  
    50   24   51 1  
    51   24   52 1  
    52   25   53 1  
    53   25   54 1  
@<TRIPOS>SUBSTRUCTURE
     1 E64         1

