### 
### Created by X-TOOL on Mon Sep 10 21:13:09 2018
### 

@<TRIPOS>MOLECULE
4d8i_ligand
   75    74     1     0     0
SMALL
GAST_HUCK


@<TRIPOS>ATOM
      1 C           5.9090  -13.2860   -7.9480 C.2       1 ACE         0.1751
      2 O           5.4340  -12.9720   -6.8490 O.2       1 ACE        -0.3972
      3 CH3         5.0900  -13.1540   -9.2080 C.3       1 ACE         0.0258
      4 N           6.9770  -14.0550   -8.0490 N.am      1 ALA        -0.2661
      5 CA          7.9640  -14.1980   -6.9800 C.3       1 ALA         0.1281
      6 C           9.3170  -13.8050   -7.5130 C.2       1 ALA         0.2036
      7 O          10.2680  -14.6240   -7.5470 O.2       1 ALA        -0.3944
      8 CB          8.0080  -15.6460   -6.4150 C.3       1 ALA        -0.0244
      9 N           9.4260  -12.5380   -7.9120 N.am      1 GLU        -0.2636
     10 CA         10.5740  -12.1090   -8.7090 C.3       1 GLU         0.1325
     11 C          11.5170  -11.1910   -7.9810 C.2       1 GLU         0.2040
     12 O          12.4850  -10.6810   -8.5720 O.2       1 GLU        -0.3944
     13 CB         10.1350  -11.4820  -10.0370 C.3       1 GLU        -0.0008
     14 CG          9.2320  -12.3710  -10.8650 C.3       1 GLU         0.0044
     15 CD          9.9020  -13.6710  -11.2950 C.2       1 GLU         0.0350
     16 OE1        11.1620  -13.7340  -11.3410 O.co2     1 GLU        -0.5690
     17 OE2         9.1590  -14.6460  -11.5750 O.co2     1 GLU        -0.5690
     18 N          11.2880  -10.9940   -6.6820 N.am      1 ILE        -0.2635
     19 CA         12.2070  -10.1740   -5.8840 C.3       1 ILE         0.1334
     20 C          13.2230  -11.1140   -5.3090 C.2       1 ILE         0.2022
     21 O          12.8740  -11.9550   -4.4770 O.2       1 ILE        -0.3945
     22 CB         11.4430   -9.3830   -4.7740 C.3       1 ILE        -0.0037
     23 CG1        10.2260   -8.6190   -5.3320 C.3       1 ILE        -0.0491
     24 CG2        12.3950   -8.4370   -4.0250 C.3       1 ILE        -0.0582
     25 CD1        10.5940   -7.5920   -6.4790 C.3       1 ILE        -0.0648
     26 C          16.6460  -11.4390   -4.5950 C.3       1 LYJ         0.0671
     27 N          14.4720  -10.9980   -5.7300 N.am      1 LYJ        -0.2798
     28 O          17.4880  -12.3500   -4.2270 O.3       1 LYJ        -0.3927
     29 CA         15.4650  -11.9640   -5.3370 C.3       1 LYJ         0.0651
     30 CB         16.0490  -12.6260   -6.6080 C.3       1 LYJ        -0.0276
     31 CD         15.4990  -14.1130   -8.6600 C.3       1 LYJ        -0.0126
     32 CE         14.4370  -14.7830   -9.4830 C.3       1 LYJ        -0.0354
     33 CG         14.9970  -13.2870   -7.4740 C.3       1 LYJ        -0.0461
     34 NZ         14.8720  -15.8550  -10.3350 N.4       1 LYJ         0.2185
     35 H1          5.6888  -13.4820  -10.0705 H         1 ACE         0.0467
     36 H2          4.7946  -12.1033   -9.3450 H         1 ACE         0.0467
     37 H3          4.1895  -13.7805   -9.1273 H         1 ACE         0.0467
     38 H4          7.1179  -14.5645   -8.8979 H         1 ALA         0.1882
     39 H5          7.6925  -13.5167   -6.1602 H         1 ALA         0.0797
     40 H6          8.7620  -15.7052   -5.6163 H         1 ALA         0.0277
     41 H7          8.2721  -16.3463   -7.2211 H         1 ALA         0.0277
     42 H8          7.0211  -15.9109   -6.0078 H         1 ALA         0.0277
     43 H9          8.7180  -11.8766   -7.6646 H         1 GLU         0.1883
     44 H10        11.1429  -13.0187   -8.9515 H         1 GLU         0.0801
     45 H11        11.0349  -11.2559  -10.6278 H         1 GLU         0.0330
     46 H12         9.5960  -10.5485   -9.8181 H         1 GLU         0.0330
     47 H13         8.9287  -11.8188  -11.7667 H         1 GLU         0.0433
     48 H14         8.3410  -12.6172  -10.2687 H         1 GLU         0.0433
     49 H15        10.4864  -11.4070   -6.2497 H         1 ILE         0.1883
     50 H16        12.7129   -9.4491   -6.5386 H         1 ILE         0.0802
     51 H17        11.0641  -10.1176   -4.0482 H         1 ILE         0.0345
     52 H18         9.7552   -8.0646   -4.5068 H         1 ILE         0.0267
     53 H19         9.5116   -9.3509   -5.7367 H         1 ILE         0.0267
     54 H20        13.2517   -9.0090   -3.6391 H         1 ILE         0.0235
     55 H21        11.8603   -7.9671   -3.1864 H         1 ILE         0.0235
     56 H22        12.7545   -7.6580   -4.7134 H         1 ILE         0.0235
     57 H23         9.6804   -7.0871   -6.8261 H         1 ILE         0.0230
     58 H24        11.0568   -8.1307   -7.3190 H         1 ILE         0.0230
     59 H25        11.3004   -6.8444   -6.0891 H         1 ILE         0.0230
     60 H26        17.1725  -10.7248   -5.2451 H         1 LYJ         0.0580
     61 H27        16.2851  -10.9189   -3.6954 H         1 LYJ         0.0580
     62 H28        14.7277  -10.2355   -6.3242 H         1 LYJ         0.1855
     63 H29        17.8183  -12.8027   -4.9940 H         1 LYJ         0.2095
     64 H30        14.9684  -12.7206   -4.7118 H         1 LYJ         0.0579
     65 H31        16.7788  -13.3895   -6.3006 H         1 LYJ         0.0288
     66 H32        16.5562  -11.8526   -7.2034 H         1 LYJ         0.0288
     67 H33        16.0671  -13.4430   -9.3220 H         1 LYJ         0.0317
     68 H34        16.1668  -14.8947   -8.2688 H         1 LYJ         0.0317
     69 H35        13.9734  -14.0157  -10.1204 H         1 LYJ         0.0813
     70 H36        13.6840  -15.1892   -8.7916 H         1 LYJ         0.0813
     71 H37        14.3474  -12.4937   -7.8723 H         1 LYJ         0.0268
     72 H38        14.4070  -13.9550   -6.8293 H         1 LYJ         0.0268
     73 H39        14.0810  -16.2277  -10.8364 H         1 LYJ         0.1994
     74 H40        15.2875  -16.5824   -9.7743 H         1 LYJ         0.1994
     75 H41        15.5526  -15.5070  -10.9920 H         1 LYJ         0.1994
@<TRIPOS>BOND
     1    1    2 2  
     2    1    3 1  
     3    4    1 am 
     4    5    4 1  
     5    6    5 1  
     6    5    8 1  
     7    6    7 2  
     8    9    6 am 
     9   10    9 1  
    10   11   10 1  
    11   10   13 1  
    12   11   12 2  
    13   18   11 am 
    14   13   14 1  
    15   14   15 1  
    16   15   16 ar 
    17   15   17 ar 
    18   19   18 1  
    19   20   19 1  
    20   19   22 1  
    21   20   21 2  
    22   27   20 am 
    23   22   23 1  
    24   22   24 1  
    25   23   25 1  
    26   26   28 1  
    27   29   26 1  
    28   29   27 1  
    29   30   29 1  
    30   33   30 1  
    31   31   32 1  
    32   31   33 1  
    33   32   34 1  
    34    3   35 1  
    35    3   36 1  
    36    3   37 1  
    37    4   38 1  
    38    5   39 1  
    39    8   40 1  
    40    8   41 1  
    41    8   42 1  
    42    9   43 1  
    43   10   44 1  
    44   13   45 1  
    45   13   46 1  
    46   14   47 1  
    47   14   48 1  
    48   18   49 1  
    49   19   50 1  
    50   22   51 1  
    51   23   52 1  
    52   23   53 1  
    53   24   54 1  
    54   24   55 1  
    55   24   56 1  
    56   25   57 1  
    57   25   58 1  
    58   25   59 1  
    59   26   60 1  
    60   26   61 1  
    61   27   62 1  
    62   28   63 1  
    63   29   64 1  
    64   30   65 1  
    65   30   66 1  
    66   31   67 1  
    67   31   68 1  
    68   32   69 1  
    69   32   70 1  
    70   33   71 1  
    71   33   72 1  
    72   34   73 1  
    73   34   74 1  
    74   34   75 1  
@<TRIPOS>SUBSTRUCTURE
     1 ACE         1

