### 
### Created by X-TOOL on Mon Sep 10 21:13:10 2018
### 

@<TRIPOS>MOLECULE
4d8n_ligand
   57    60     1     0     0
SMALL
GAST_HUCK


@<TRIPOS>ATOM
      1 CAB        25.5300   10.9030   35.8850 C.ar      1 0HM        -0.0577
      2 CAC        25.6900   12.2830   35.7850 C.ar      1 0HM        -0.0685
      3 CAD        25.6770   12.8960   34.5360 C.ar      1 0HM        -0.0687
      4 CAE        25.5060   12.1280   33.3870 C.ar      1 0HM        -0.0685
      5 CAF        25.3480   10.7510   33.4870 C.ar      1 0HM        -0.0577
      6 CAA        25.3570   10.1350   34.7380 C.ar      1 0HM        -0.0128
      7 CAL        25.1490    8.6250   34.8600 C.3       1 0HM         0.0909
      8 NAG        25.5970    7.9310   33.6370 N.pl3     1 0HM        -0.2373
      9 CAK        24.8420    7.7530   32.5620 C.2       1 0HM         0.0302
     10 CAJ        25.5950    7.1170   31.6680 C.2       1 0HM        -0.0363
     11 NAI        26.7960    6.9110   32.2060 N.2       1 0HM        -0.3371
     12 CAH        26.8040    7.4150   33.4340 C.2       1 0HM         0.1390
     13 CBD        27.9930    7.3870   34.4060 C.3       1 0HM         0.1064
     14 NAN        27.9750    6.1730   35.2520 N.pl3     1 0HM        -0.2718
     15 CAM        28.1990    4.9170   34.6670 C.2       1 0HM        -0.0113
     16 CAQ        28.1630    3.7690   35.4450 C.2       1 0HM        -0.1006
     17 CAR        27.9020    3.8700   36.8120 C.2       1 0HM        -0.0783
     18 CAP        27.6810    5.1080   37.4010 C.2       1 0HM         0.1050
     19 OBE        27.4060    5.1730   38.7350 O.3       1 0HM        -0.3283
     20 CAO        27.7220    6.2660   36.6340 C.3       1 0HM         0.1941
     21 CAS        27.5930    7.6370   37.3010 C.2       1 0HM         0.2437
     22 OAU        28.4160    8.5240   37.0580 O.2       1 0HM        -0.3795
     23 NAT        26.5640    7.7660   38.1320 N.am      1 0HM        -0.2338
     24 CAX        26.2340    8.8960   38.7660 C.ar      1 0HM         0.0598
     25 CAY        24.9530    9.0070   39.2900 C.ar      1 0HM        -0.0471
     26 CAZ        24.5410   10.1910   39.9060 C.ar      1 0HM        -0.0682
     27 CAW        27.1090    9.9730   38.8620 C.ar      1 0HM        -0.0471
     28 CAV        26.7010   11.1570   39.4790 C.ar      1 0HM        -0.0682
     29 CBA        25.4180   11.2640   39.9980 C.ar      1 0HM        -0.0134
     30 CBB        24.9750   12.5780   40.6570 C.3       1 0HM        -0.0082
     31 NBC        23.7750   12.3630   41.4760 N.4       1 0HM         0.2289
     32 H1         25.5403   10.4264   36.8586 H         1 0HM         0.0558
     33 H2         25.8246   12.8794   36.6801 H         1 0HM         0.0599
     34 H3         25.7998   13.9702   34.4574 H         1 0HM         0.0559
     35 H4         25.4961   12.6048   32.4136 H         1 0HM         0.0599
     36 H5         25.2176   10.1548   32.5911 H         1 0HM         0.0558
     37 H6         24.0800    8.4204   35.0190 H         1 0HM         0.0782
     38 H7         25.7257    8.2502   35.7184 H         1 0HM         0.0782
     39 H8         23.8068    8.0663   32.4352 H         1 0HM         0.0797
     40 H9         25.2831    6.8167   30.6688 H         1 0HM         0.0408
     41 H10        27.9457    8.2746   35.0540 H         1 0HM         0.0759
     42 H11        28.9282    7.4051   33.8271 H         1 0HM         0.0759
     43 H12        28.4016    4.8435   33.5995 H         1 0HM         0.0759
     44 H13        28.3375    2.7945   34.9914 H         1 0HM         0.0220
     45 H14        27.8713    2.9691   37.4230 H         1 0HM         0.0160
     46 H15        26.6152    4.6795   38.9186 H         1 0HM         0.2536
     47 H16        26.6361    6.2217   36.4640 H         1 0HM         0.1019
     48 H17        25.9954    6.9597   38.2949 H         1 0HM         0.2236
     49 H18        24.2683    8.1695   39.2206 H         1 0HM         0.0487
     50 H19        23.5389   10.2722   40.3114 H         1 0HM         0.0522
     51 H20        28.1110    9.8927   38.4564 H         1 0HM         0.0487
     52 H21        27.3866   11.9934   39.5528 H         1 0HM         0.0522
     53 H22        24.7515   13.3182   39.8746 H         1 0HM         0.0949
     54 H23        25.7871   12.9542   41.2964 H         1 0HM         0.0949
     55 H24        23.4977   13.2340   41.9009 H         1 0HM         0.2005
     56 H25        23.9763   11.6870   42.1961 H         1 0HM         0.2005
     57 H26        23.0273   12.0205   40.8932 H         1 0HM         0.2005
@<TRIPOS>BOND
     1    1    2 ar 
     2    1    6 ar 
     3    2    3 ar 
     4    3    4 ar 
     5    4    5 ar 
     6    5    6 ar 
     7    6    7 1  
     8    7    8 1  
     9    8    9 1  
    10    8   12 1  
    11    9   10 2  
    12   10   11 1  
    13   11   12 2  
    14   12   13 1  
    15   13   14 1  
    16   14   15 1  
    17   14   20 1  
    18   15   16 2  
    19   16   17 1  
    20   17   18 2  
    21   18   19 1  
    22   18   20 1  
    23   20   21 1  
    24   21   22 2  
    25   21   23 am 
    26   23   24 1  
    27   24   25 ar 
    28   24   27 ar 
    29   25   26 ar 
    30   26   29 ar 
    31   27   28 ar 
    32   28   29 ar 
    33   29   30 1  
    34   30   31 1  
    35    1   32 1  
    36    2   33 1  
    37    3   34 1  
    38    4   35 1  
    39    5   36 1  
    40    7   37 1  
    41    7   38 1  
    42    9   39 1  
    43   10   40 1  
    44   13   41 1  
    45   13   42 1  
    46   15   43 1  
    47   16   44 1  
    48   17   45 1  
    49   19   46 1  
    50   20   47 1  
    51   23   48 1  
    52   25   49 1  
    53   26   50 1  
    54   27   51 1  
    55   28   52 1  
    56   30   53 1  
    57   30   54 1  
    58   31   55 1  
    59   31   56 1  
    60   31   57 1  
@<TRIPOS>SUBSTRUCTURE
     1 0HM         1

