### 
### Created by X-TOOL on Mon Sep 10 21:13:14 2018
### 

@<TRIPOS>MOLECULE
4d8s_ligand
   40    40     1     0     0
SMALL
GAST_HUCK


@<TRIPOS>ATOM
      1 C4        -26.6740  -22.0990  -11.4440 C.3       1 0HX        -0.0293
      2 C5        -26.1270  -23.1890  -10.5210 C.3       1 0HX        -0.0629
      3 C6        -24.0740  -19.8010  -11.9140 C.3       1 0HX         0.2043
      4 C11       -23.7740  -18.3310  -11.6670 C.3       1 0HX         0.1286
      5 C7        -22.2770  -20.4560  -10.5560 C.2       1 0HX         0.1115
      6 C8        -21.5810  -21.6300   -9.8620 C.2       1 0HX         0.0810
      7 C9        -21.5920  -19.2800  -10.8400 C.2       1 0HX        -0.0274
      8 C10       -22.2610  -18.1200  -11.5780 C.3       1 0HX         0.1025
      9 C12       -25.2450  -16.6420  -12.7420 C.2       1 0HX         0.1735
     10 C13       -25.5530  -15.9500  -14.0680 C.3       1 0HX         0.0257
     11 N1        -24.2660  -17.5440  -12.8040 N.am      1 0HX        -0.2746
     12 C3        -25.5600  -21.4390  -12.2420 C.3       1 0HX         0.0616
     13 C1        -26.1520  -23.0370  -14.0550 C.3       1 0HX        -0.0629
     14 C2        -25.8430  -21.5720  -13.7400 C.3       1 0HX        -0.0293
     15 O1        -25.4680  -20.0680  -11.8920 O.3       1 0HX        -0.3423
     16 O2        -23.5940  -20.5990  -10.8520 O.3       1 0HX        -0.2952
     17 O3        -20.4540  -21.4680   -9.3560 O.co2     1 0HX        -0.5623
     18 O4        -22.1930  -22.7150   -9.8380 O.co2     1 0HX        -0.5623
     19 O5        -21.9460  -16.8870  -10.9260 O.3       1 0HX        -0.3807
     20 O6        -25.8760  -16.3660  -11.7290 O.2       1 0HX        -0.3974
     21 H1        -27.1797  -21.3349  -10.8354 H         1 0HX         0.0287
     22 H2        -27.3958  -22.5492  -12.1414 H         1 0HX         0.0287
     23 H3        -26.9563  -23.6447   -9.9601 H         1 0HX         0.0231
     24 H4        -25.4076  -22.7460   -9.8165 H         1 0HX         0.0231
     25 H5        -25.6237  -23.9603  -11.1225 H         1 0HX         0.0231
     26 H6        -23.6298  -20.1067  -12.8728 H         1 0HX         0.0987
     27 H7        -24.2585  -18.0014  -10.7361 H         1 0HX         0.0657
     28 H8        -20.5529  -19.1826  -10.5290 H         1 0HX         0.0480
     29 H9        -21.8603  -18.0821  -12.6017 H         1 0HX         0.0740
     30 H10       -26.3689  -15.2266  -13.9232 H         1 0HX         0.0467
     31 H11       -25.8569  -16.7013  -14.8118 H         1 0HX         0.0467
     32 H12       -24.6552  -15.4236  -14.4242 H         1 0HX         0.0467
     33 H13       -23.8337  -17.6962  -13.6928 H         1 0HX         0.1859
     34 H14       -24.6066  -21.9359  -12.0095 H         1 0HX         0.0597
     35 H15       -26.3574  -23.1454  -15.1302 H         1 0HX         0.0231
     36 H16       -27.0327  -23.3580  -13.4793 H         1 0HX         0.0231
     37 H17       -25.2881  -23.6609  -13.7820 H         1 0HX         0.0231
     38 H18       -24.9615  -21.2486  -14.3130 H         1 0HX         0.0287
     39 H19       -26.7060  -20.9458  -14.0103 H         1 0HX         0.0287
     40 H20       -22.2611  -16.9142  -10.0302 H         1 0HX         0.2127
@<TRIPOS>BOND
     1    1    2 1  
     2   12    1 1  
     3    3    4 1  
     4   15    3 1  
     5    3   16 1  
     6    4    8 1  
     7    4   11 1  
     8    5    6 1  
     9    5    7 2  
    10   16    5 1  
    11    6   17 ar 
    12    6   18 ar 
    13    8    7 1  
    14    8   19 1  
    15    9   10 1  
    16   11    9 am 
    17    9   20 2  
    18   12   14 1  
    19   12   15 1  
    20   14   13 1  
    21    1   21 1  
    22    1   22 1  
    23    2   23 1  
    24    2   24 1  
    25    2   25 1  
    26    3   26 1  
    27    4   27 1  
    28    7   28 1  
    29    8   29 1  
    30   10   30 1  
    31   10   31 1  
    32   10   32 1  
    33   11   33 1  
    34   12   34 1  
    35   13   35 1  
    36   13   36 1  
    37   13   37 1  
    38   14   38 1  
    39   14   39 1  
    40   19   40 1  
@<TRIPOS>SUBSTRUCTURE
     1 0HX         1

