### 
### Created by X-TOOL on Mon Sep 10 21:13:11 2018
### 

@<TRIPOS>MOLECULE
4d8z_ligand
   29    30     1     0     0
SMALL
GAST_HUCK


@<TRIPOS>ATOM
      1 C1        -11.7000   25.9000    9.5310 C.3       1 0J2         0.0184
      2 C2        -10.0490   25.9230    7.7410 C.3       1 0J2        -0.0449
      3 C3        -13.0730   26.3240    9.9180 C.2       1 0J2         0.0378
      4 O1        -13.4700   27.5020    9.6700 O.co2     1 0J2        -0.5688
      5 O2        -13.8780   25.4390   10.3020 O.co2     1 0J2        -0.5688
      6 N1        -12.7030   24.3970    7.2460 N.ar      1 0J2        -0.2778
      7 N2        -13.5510   23.8330    6.3370 N.ar      1 0J2        -0.3251
      8 O3        -14.2810   27.9130    3.7580 O.2       1 0J2        -0.3777
      9 C4        -11.4400   26.3110    8.1180 C.3       1 0J2         0.0343
     10 N3        -16.4570   23.7020    2.4900 N.pl3     1 0J2        -0.2740
     11 C5        -14.5340   26.5800    3.9900 C.2       1 0J2         0.2492
     12 C6        -13.9060   25.8850    5.0890 C.ar      1 0J2         0.1335
     13 N4        -15.3870   25.8800    3.1280 N.am      1 0J2        -0.1720
     14 C7        -14.1640   24.5580    5.2580 C.ar      1 0J2         0.0518
     15 C8        -12.4060   25.6730    7.1690 C.ar      1 0J2         0.1023
     16 C9        -12.9880   26.5030    6.0780 C.ar      1 0J2         0.1809
     17 N5        -14.9890   23.8400    4.4350 N.2       1 0J2        -0.2829
     18 O4        -12.6970   27.8470    6.0370 O.3       1 0J2        -0.2965
     19 C10       -15.6180   24.4580    3.3490 C.2       1 0J2         0.2439
     20 H1        -11.6140   24.8068    9.6181 H         1 0J2         0.0464
     21 H2        -10.9657   26.3797   10.1949 H         1 0J2         0.0464
     22 H3         -9.8535   26.2239    6.7012 H         1 0J2         0.0264
     23 H4         -9.9341   24.8331    7.8351 H         1 0J2         0.0264
     24 H5         -9.3342   26.4261    8.4088 H         1 0J2         0.0264
     25 H6        -11.5430   27.4036    8.0440 H         1 0J2         0.0562
     26 H7        -16.9199   24.1575    1.6905 H         1 0J2         0.1941
     27 H8        -16.6031   22.6977    2.6659 H         1 0J2         0.1941
     28 H9        -15.8337   26.3515    2.3676 H         1 0J2         0.2529
     29 H10       -13.1350   28.2421    5.2924 H         1 0J2         0.2670
@<TRIPOS>BOND
     1    1    3 1  
     2    9    1 1  
     3    9    2 1  
     4    3    4 ar 
     5    3    5 ar 
     6    7    6 ar 
     7    6   15 ar 
     8   14    7 ar 
     9   11    8 2  
    10   15    9 1  
    11   19   10 1  
    12   11   12 1  
    13   13   11 am 
    14   12   14 ar 
    15   12   16 ar 
    16   13   19 am 
    17   14   17 1  
    18   15   16 ar 
    19   16   18 1  
    20   17   19 2  
    21    1   20 1  
    22    1   21 1  
    23    2   22 1  
    24    2   23 1  
    25    2   24 1  
    26    9   25 1  
    27   10   26 1  
    28   10   27 1  
    29   13   28 1  
    30   18   29 1  
@<TRIPOS>SUBSTRUCTURE
     1 0J2         1

