### 
### Created by X-TOOL on Mon Sep 10 21:13:11 2018
### 

@<TRIPOS>MOLECULE
4d9p_ligand
   33    34     1     0     0
SMALL
GAST_HUCK


@<TRIPOS>ATOM
      1 C1        -11.8640   26.7250    9.5380 C.3       1 Z17         0.0193
      2 C2        -13.2480   26.6130   10.1000 C.2       1 Z17         0.0379
      3 C3        -13.2860   27.2900    5.9880 C.ar      1 Z17         0.2383
      4 N1        -16.6900   24.3970    2.3710 N.pl3     1 Z17        -0.2650
      5 N2        -15.5880   26.5570    3.0140 N.am      1 Z17        -0.1543
      6 C4        -14.1450   23.2880    6.5820 C.3       1 Z17         0.0427
      7 C5        -12.7260   26.5460    7.1400 C.ar      1 Z17         0.1661
      8 C6        -10.3880   27.0790    7.6910 C.3       1 Z17        -0.0440
      9 O1        -12.9960   28.6130    5.8320 O.3       1 Z17        -0.2678
     10 N3        -13.0380   25.2870    7.2560 N.ar      1 Z17        -0.1548
     11 O2        -13.6240   25.4770   10.5140 O.co2     1 Z17        -0.5688
     12 C7        -15.8560   25.1520    3.2490 C.2       1 Z17         0.2788
     13 O3        -14.5190   28.5930    3.6090 O.2       1 Z17        -0.3650
     14 N4        -15.2800   24.5620    4.3600 N.2       1 Z17        -0.2096
     15 O4        -14.0190   27.6220   10.1270 O.co2     1 Z17        -0.5688
     16 C8        -14.4650   25.2800    5.2040 C.ar      1 Z17         0.1803
     17 C9        -14.1750   26.6140    5.0040 C.ar      1 Z17         0.2090
     18 N5        -13.8570   24.6730    6.3600 N.ar      1 Z17        -0.2365
     19 C10       -14.7590   27.2720    3.8670 C.2       1 Z17         0.2872
     20 C11       -11.8140   27.2400    8.1270 C.3       1 Z17         0.0450
     21 H1        -11.4013   25.7272    9.5580 H         1 Z17         0.0465
     22 H2        -11.2865   27.4099   10.1762 H         1 Z17         0.0465
     23 H3        -17.1127   24.8484    1.5473 H         1 Z17         0.1983
     24 H4        -16.8693   23.4007    2.5610 H         1 Z17         0.1983
     25 H5        -16.0047   27.0158    2.2292 H         1 Z17         0.2666
     26 H6        -14.8134   22.9209    5.7892 H         1 Z17         0.0509
     27 H7        -14.6348   23.1674    7.5595 H         1 Z17         0.0509
     28 H8        -13.2081   22.7118    6.5677 H         1 Z17         0.0509
     29 H9        -10.2776   27.4394    6.6576 H         1 Z17         0.0265
     30 H10       -10.1071   26.0167    7.7407 H         1 Z17         0.0265
     31 H11        -9.7334   27.6629    8.3548 H         1 Z17         0.0265
     32 H12       -13.4279   28.9409    5.0519 H         1 Z17         0.2846
     33 H13       -12.0815   28.3069    8.1361 H         1 Z17         0.0572
@<TRIPOS>BOND
     1    1    2 1  
     2   20    1 1  
     3    2   11 ar 
     4    2   15 ar 
     5    3    7 ar 
     6    3    9 1  
     7   17    3 ar 
     8   12    4 1  
     9   12    5 am 
    10    5   19 am 
    11   18    6 1  
    12    7   10 ar 
    13    7   20 1  
    14   20    8 1  
    15   10   18 ar 
    16   14   12 2  
    17   19   13 2  
    18   16   14 1  
    19   16   17 ar 
    20   16   18 ar 
    21   17   19 1  
    22    1   21 1  
    23    1   22 1  
    24    4   23 1  
    25    4   24 1  
    26    5   25 1  
    27    6   26 1  
    28    6   27 1  
    29    6   28 1  
    30    8   29 1  
    31    8   30 1  
    32    8   31 1  
    33    9   32 1  
    34   20   33 1  
@<TRIPOS>SUBSTRUCTURE
     1 Z17         1

