### 
### Created by X-TOOL on Mon Sep 10 21:13:14 2018
### 

@<TRIPOS>MOLECULE
4da5_ligand
   40    43     1     0     0
SMALL
GAST_HUCK


@<TRIPOS>ATOM
      1 O1        -10.2100  -12.7890    7.1080 O.3       1 0H7        -0.4738
      2 C2        -10.8920  -13.9480    6.6050 C.3       1 0H7         0.0408
      3 C3        -10.8120  -14.0220    5.0430 C.3       1 0H7        -0.0283
      4 C4        -11.2320  -12.6860    4.4020 C.3       1 0H7        -0.0437
      5 N5        -10.1060  -12.1440    3.6070 N.4       1 0H7         0.2343
      6 C6         -8.9150  -11.9230    4.4600 C.3       1 0H7        -0.0317
      7 C7         -8.3790  -13.2850    4.9510 C.3       1 0H7        -0.0106
      8 C8         -9.3740  -14.3930    4.5360 C.3       1 0H7        -0.0385
      9 C9         -9.3990  -14.4350    2.9930 C.3       1 0H7        -0.0106
     10 C10        -9.7750  -13.0310    2.4680 C.3       1 0H7        -0.0317
     11 C11       -10.3080  -15.1820    7.1840 C.2       1 0H7        -0.0120
     12 C12       -10.5590  -16.4160    6.7440 C.2       1 0H7        -0.0485
     13 C13        -9.9680  -17.4180    7.4730 C.2       1 0H7        -0.0135
     14 C14        -9.3000  -17.0010    8.5380 C.2       1 0H7         0.1387
     15 CL1        -8.4790  -18.0310    9.6440 Cl        1 0H7        -0.0125
     16 S16        -9.3540  -15.2490    8.6460 S.3       1 0H7        -0.0113
     17 C17       -12.3220  -13.9020    7.1000 C.2       1 0H7        -0.0120
     18 C18       -12.7100  -13.4440    8.2990 C.2       1 0H7        -0.0485
     19 C19       -14.0670  -13.5230    8.5470 C.2       1 0H7        -0.0135
     20 C20       -14.7770  -14.1210    7.5830 C.2       1 0H7         0.1387
     21 CL2       -16.5060  -14.3680    7.5850 Cl        1 0H7        -0.0125
     22 S22       -13.7050  -14.5880    6.2740 S.3       1 0H7        -0.0113
     23 H1         -9.2956  -12.8255    6.8531 H         1 0H7         0.1779
     24 H2        -11.5084  -14.8046    4.7075 H         1 0H7         0.0159
     25 H3        -11.5017  -11.9692    5.1916 H         1 0H7         0.0800
     26 H4        -12.0986  -12.8510    3.7450 H         1 0H7         0.0800
     27 H5        -10.3917  -11.2525    3.2333 H         1 0H7         0.2033
     28 H6         -9.1928  -11.3039    5.3257 H         1 0H7         0.0814
     29 H7         -8.1358  -11.4100    3.8773 H         1 0H7         0.0814
     30 H8         -8.2792  -13.2696    6.0463 H         1 0H7         0.0319
     31 H9         -7.3969  -13.4812    4.4960 H         1 0H7         0.0319
     32 H10        -9.0627  -15.3645    4.9473 H         1 0H7         0.0293
     33 H11       -10.1447  -15.1693    2.6542 H         1 0H7         0.0319
     34 H12        -8.4062  -14.7188    2.6138 H         1 0H7         0.0319
     35 H13        -8.9253  -12.6093    1.9111 H         1 0H7         0.0814
     36 H14       -10.6466  -13.1112    1.8017 H         1 0H7         0.0814
     37 H15       -11.1840  -16.6132    5.8743 H         1 0H7         0.0780
     38 H16       -10.0423  -18.4692    7.1983 H         1 0H7         0.0582
     39 H17       -12.0064  -13.0390    9.0249 H         1 0H7         0.0780
     40 H18       -14.5225  -13.1299    9.4547 H         1 0H7         0.0582
@<TRIPOS>BOND
     1    1    2 1  
     2    2    3 1  
     3    2   11 1  
     4    2   17 1  
     5    3    4 1  
     6    3    8 1  
     7    4    5 1  
     8    5    6 1  
     9    5   10 1  
    10    6    7 1  
    11    7    8 1  
    12    8    9 1  
    13    9   10 1  
    14   11   12 2  
    15   11   16 1  
    16   12   13 1  
    17   13   14 2  
    18   14   15 1  
    19   14   16 1  
    20   17   18 2  
    21   17   22 1  
    22   18   19 1  
    23   19   20 2  
    24   20   21 1  
    25   20   22 1  
    26    1   23 1  
    27    3   24 1  
    28    4   25 1  
    29    4   26 1  
    30    5   27 1  
    31    6   28 1  
    32    6   29 1  
    33    7   30 1  
    34    7   31 1  
    35    8   32 1  
    36    9   33 1  
    37    9   34 1  
    38   10   35 1  
    39   10   36 1  
    40   12   37 1  
    41   13   38 1  
    42   18   39 1  
    43   19   40 1  
@<TRIPOS>SUBSTRUCTURE
     1 0H7         1

