### 
### Created by X-TOOL on Mon Sep 10 21:13:12 2018
### 

@<TRIPOS>MOLECULE
4dai_ligand
   24    25     1     0     0
SMALL
GAST_HUCK


@<TRIPOS>ATOM
      1 O4        -13.5680   26.8550    9.8480 O.co2     1 0J5        -0.5621
      2 C8        -12.5280   27.1500    9.1940 C.2       1 0J5         0.0684
      3 O3        -12.0430   28.3130    9.1790 O.co2     1 0J5        -0.5621
      4 C7        -11.8480   26.0540    8.3760 C.3       1 0J5         0.1048
      5 C5        -12.7390   25.5090    7.2640 C.2       1 0J5         0.2173
      6 C6        -13.2400   26.3780    6.1400 C.2       1 0J5         0.2788
      7 O2        -12.9430   27.5880    6.0800 O.2       1 0J5        -0.3143
      8 C3        -14.1170   25.7200    5.0980 C.3       1 0J5         0.2639
      9 C4        -14.7190   26.4000    3.8960 C.2       1 0J5         0.2342
     10 O1        -14.5280   27.6080    3.6670 O.2       1 0J5        -0.3840
     11 N4        -13.0970   24.1850    7.2800 N.2       1 0J5        -0.0810
     12 N3        -13.9260   23.5680    6.2950 N.2       1 0J5        -0.0529
     13 C2        -14.4290   24.2500    5.2480 C.2       1 0J5         0.2891
     14 N2        -15.2260   23.6410    4.3120 N.pl3     1 0J5        -0.1993
     15 C1        -15.7420   24.3210    3.2440 C.cat     1 0J5         0.2018
     16 N5        -16.5200   23.6480    2.3640 N.pl3     1 0J5        -0.3333
     17 N1        -15.4960   25.6590    3.0430 N.am      1 0J5        -0.2490
     18 H1        -11.5809   25.2267    9.0499 H         1 0J5         0.0860
     19 H2        -10.9348   26.4680    7.9238 H         1 0J5         0.0860
     20 H3        -15.0023   25.9941    5.6906 H         1 0J5         0.1236
     21 H4        -15.4425   22.6395    4.4172 H         1 0J5         0.2472
     22 H5        -16.9206   24.1378    1.5513 H         1 0J5         0.1769
     23 H6        -16.7114   22.6461    2.5072 H         1 0J5         0.1769
     24 H7        -15.8986   26.1081    2.2454 H         1 0J5         0.1832
@<TRIPOS>BOND
     1    1    2 ar 
     2    2    3 ar 
     3    2    4 1  
     4    4    5 1  
     5    5    6 1  
     6    5   11 2  
     7    6    7 2  
     8    6    8 1  
     9    8    9 1  
    10    8   13 1  
    11    9   10 2  
    12    9   17 am 
    13   11   12 1  
    14   12   13 2  
    15   13   14 1  
    16   14   15 ar 
    17   15   16 ar 
    18   15   17 ar 
    19    4   18 1  
    20    4   19 1  
    21    8   20 1  
    22   14   21 1  
    23   16   22 1  
    24   16   23 1  
    25   17   24 1  
@<TRIPOS>SUBSTRUCTURE
     1 0J5         1

