### 
### Created by X-TOOL on Mon Sep 10 21:13:11 2018
### 

@<TRIPOS>MOLECULE
4db7_ligand
   26    27     1     0     0
SMALL
GAST_HUCK


@<TRIPOS>ATOM
      1 O3        -14.2740   28.5950    9.4070 O.co2     1 Z25        -0.5688
      2 C9        -13.1090   28.1590    9.7350 C.2       1 Z25         0.0376
      3 O4        -12.1650   29.0210    9.8450 O.co2     1 Z25        -0.5688
      4 C8        -12.7590   26.6870    9.5810 C.3       1 Z25         0.0159
      5 C7        -12.0800   26.3060    8.2930 C.3       1 Z25         0.0257
      6 C5        -12.9500   25.7920    7.1560 C.ar      1 Z25         0.0995
      7 C6        -13.4960   26.6180    6.1350 C.ar      1 Z25         0.1806
      8 O2        -13.2260   27.9720    6.1200 O.3       1 Z25        -0.2965
      9 C3        -14.3710   25.9900    5.1530 C.ar      1 Z25         0.1334
     10 C4        -14.9930   26.6730    4.0930 C.2       1 Z25         0.2492
     11 O1        -14.7480   28.0100    3.9190 O.2       1 Z25        -0.3777
     12 N4        -13.2850   24.4970    7.1560 N.ar      1 Z25        -0.2780
     13 N3        -14.1050   23.9170    6.2660 N.ar      1 Z25        -0.3251
     14 C2        -14.6830   24.6070    5.2790 C.ar      1 Z25         0.0518
     15 N2        -15.4970   23.9780    4.3800 N.2       1 Z25        -0.2829
     16 C1        -16.0200   24.6750    3.3550 C.2       1 Z25         0.2439
     17 N5        -16.8770   23.9900    2.4510 N.pl3     1 Z25        -0.2740
     18 N1        -15.8270   26.0160    3.2330 N.am      1 Z25        -0.1720
     19 H1        -13.6919   26.1089    9.6544 H         1 Z25         0.0462
     20 H2        -12.0902   26.4107   10.4095 H         1 Z25         0.0462
     21 H3        -11.3491   25.5184    8.5283 H         1 Z25         0.0529
     22 H4        -11.5521   27.1979    7.9244 H         1 Z25         0.0529
     23 H5        -13.6639   28.3729    5.3783 H         1 Z25         0.2670
     24 H6        -17.0206   22.9746    2.5467 H         1 Z25         0.1941
     25 H7        -17.3544   24.5091    1.7003 H         1 Z25         0.1941
     26 H8        -16.2975   26.5231    2.5108 H         1 Z25         0.2529
@<TRIPOS>BOND
     1    1    2 ar 
     2    2    3 ar 
     3    2    4 1  
     4    4    5 1  
     5    5    6 1  
     6    6    7 ar 
     7    6   12 ar 
     8    7    8 1  
     9    7    9 ar 
    10    9   10 1  
    11    9   14 ar 
    12   10   11 2  
    13   10   18 am 
    14   12   13 ar 
    15   13   14 ar 
    16   14   15 1  
    17   15   16 2  
    18   16   17 1  
    19   16   18 am 
    20    4   19 1  
    21    4   20 1  
    22    5   21 1  
    23    5   22 1  
    24    8   23 1  
    25   17   24 1  
    26   17   25 1  
    27   18   26 1  
@<TRIPOS>SUBSTRUCTURE
     1 Z25         1

