### 
### Created by X-TOOL on Mon Sep 10 21:13:10 2018
### 

@<TRIPOS>MOLECULE
4dbm_ligand
   55    59     1     0     0
SMALL
GAST_HUCK


@<TRIPOS>ATOM
      1 C13       -25.2160   22.1490   -9.3570 C.2       1 0J0         0.0724
      2 C15       -25.4770   22.4260   -6.8170 C.3       1 0J0         0.0994
      3 C17       -25.9870   24.7180   -5.8880 C.3       1 0J0         0.0022
      4 C20       -26.6730   22.8920   -4.6530 C.3       1 0J0         0.0022
      5 C21       -26.4060   21.8900   -5.7140 C.3       1 0J0         0.0306
      6 C24       -27.5150   25.0130   -4.1410 C.3       1 0J0        -0.0386
      7 C28       -21.8110   24.6070  -13.0760 C.2       1 0J0         0.1875
      8 O29       -21.6390   25.7430  -13.4920 O.2       1 0J0        -0.4184
      9 N02       -20.6640   23.7910  -12.7260 N.am      1 0J0        -0.2229
     10 C01       -19.3580   24.3280  -12.8780 C.3       1 0J0         0.0483
     11 C27       -23.2130   24.0450  -12.9240 C.2       1 0J0         0.0206
     12 C09       -23.4360   22.6870  -12.4240 C.2       1 0J0         0.1097
     13 C08       -22.2450   21.8520  -12.0680 C.ar      1 0J0         0.0505
     14 C07       -22.3810   20.4330  -11.5460 C.ar      1 0J0        -0.0559
     15 C06       -21.1740   19.6180  -11.1940 C.ar      1 0J0        -0.0703
     16 C05       -19.8030   20.1840  -11.3530 C.ar      1 0J0        -0.0695
     17 C04       -19.6680   21.6170  -11.8740 C.ar      1 0J0        -0.0318
     18 C03       -20.8640   22.4270  -12.2260 C.ar      1 0J0         0.0937
     19 O10       -24.7740   22.2750  -12.3150 O.3       1 0J0        -0.2998
     20 C11       -25.2380   21.0230  -11.8350 C.3       1 0J0         0.1096
     21 C12       -25.4630   21.0270  -10.3240 C.2       1 0J0         0.0680
     22 N26       -25.9450   19.9420   -9.5310 N.2       1 0J0        -0.2237
     23 N25       -26.0040   20.3620   -8.2070 N.2       1 0J0        -0.1016
     24 N14       -25.5940   21.6070   -8.0490 N.pl3     1 0J0        -0.1774
     25 C19       -25.4610   23.3810   -4.0960 C.2       1 0J0        -0.0459
     26 C18       -24.9980   24.4210   -4.8840 C.2       1 0J0        -0.0459
     27 N22       -27.0500   24.1220   -5.2050 N.4       1 0J0         0.2619
     28 C23       -28.2540   24.0040   -6.0230 C.3       1 0J0        -0.0386
     29 C16       -25.6410   23.9730   -7.1010 C.3       1 0J0         0.0306
     30 H1        -24.8389   23.1462   -9.5789 H         1 0J0         0.0900
     31 H2        -24.4496   22.2931   -6.4473 H         1 0J0         0.0691
     32 H3        -26.1296   25.7887   -6.0960 H         1 0J0         0.0977
     33 H4        -27.3817   22.4971   -3.9102 H         1 0J0         0.0977
     34 H5        -25.9349   21.0084   -5.2548 H         1 0J0         0.0372
     35 H6        -27.3630   21.5981   -6.1711 H         1 0J0         0.0372
     36 H7        -27.8111   25.9793   -4.5753 H         1 0J0         0.0779
     37 H8        -26.7044   25.1706   -3.4143 H         1 0J0         0.0779
     38 H9        -28.3790   24.5588   -3.6338 H         1 0J0         0.0779
     39 H10       -19.4268   25.3562  -13.2629 H         1 0J0         0.0569
     40 H11       -18.7871   23.7090  -13.5857 H         1 0J0         0.0569
     41 H12       -18.8486   24.3348  -11.9031 H         1 0J0         0.0569
     42 H13       -24.0686   24.6632  -13.1918 H         1 0J0         0.0348
     43 H14       -23.3683   20.0020  -11.4259 H         1 0J0         0.0623
     44 H15       -21.2981   18.6080  -10.8204 H         1 0J0         0.0515
     45 H16       -18.9261   19.5964  -11.1063 H         1 0J0         0.0615
     46 H17       -18.6808   22.0498  -11.9886 H         1 0J0         0.0527
     47 H18       -24.4921   20.2523  -12.0792 H         1 0J0         0.0741
     48 H19       -26.1890   20.7838  -12.3333 H         1 0J0         0.0741
     49 H20       -24.9764   23.0008   -3.1979 H         1 0J0         0.0507
     50 H21       -24.0431   24.9306   -4.7643 H         1 0J0         0.0507
     51 H22       -28.0509   23.3474   -6.8818 H         1 0J0         0.0779
     52 H23       -28.5506   24.9996   -6.3848 H         1 0J0         0.0779
     53 H24       -29.0674   23.5761   -5.4187 H         1 0J0         0.0779
     54 H25       -26.4385   24.1153   -7.8452 H         1 0J0         0.0372
     55 H26       -24.6933   24.3637   -7.4999 H         1 0J0         0.0372
@<TRIPOS>BOND
     1   21    1 2  
     2    1   24 1  
     3    2    5 1  
     4   24    2 1  
     5    2   29 1  
     6    3   26 1  
     7    3   27 1  
     8   29    3 1  
     9    5    4 1  
    10    4   25 1  
    11    4   27 1  
    12   27    6 1  
    13    7    8 2  
    14    7    9 am 
    15   11    7 1  
    16    9   10 1  
    17   18    9 1  
    18   12   11 2  
    19   12   13 1  
    20   19   12 1  
    21   13   14 ar 
    22   13   18 ar 
    23   14   15 ar 
    24   15   16 ar 
    25   17   16 ar 
    26   18   17 ar 
    27   20   19 1  
    28   20   21 1  
    29   21   22 1  
    30   22   23 2  
    31   23   24 1  
    32   25   26 2  
    33   27   28 1  
    34    1   30 1  
    35    2   31 1  
    36    3   32 1  
    37    4   33 1  
    38    5   34 1  
    39    5   35 1  
    40    6   36 1  
    41    6   37 1  
    42    6   38 1  
    43   10   39 1  
    44   10   40 1  
    45   10   41 1  
    46   11   42 1  
    47   14   43 1  
    48   15   44 1  
    49   16   45 1  
    50   17   46 1  
    51   20   47 1  
    52   20   48 1  
    53   25   49 1  
    54   26   50 1  
    55   28   51 1  
    56   28   52 1  
    57   28   53 1  
    58   29   54 1  
    59   29   55 1  
@<TRIPOS>SUBSTRUCTURE
     1 0J0         1

