### 
### Created by X-TOOL on Mon Sep 10 21:13:10 2018
### 

@<TRIPOS>MOLECULE
4dbn_ligand
   57    62     1     0     0
SMALL
GAST_HUCK


@<TRIPOS>ATOM
      1 F1         48.4610  -32.9140    9.6660 F         1 0JA        -0.2020
      2 C2         47.6410  -33.9860    9.7350 C.ar      1 0JA         0.1405
      3 C3         47.0020  -34.2890   10.9260 C.ar      1 0JA        -0.0486
      4 C4         46.1620  -35.3840   11.0090 C.ar      1 0JA        -0.0449
      5 C5         45.9420  -36.1670    9.8820 C.ar      1 0JA         0.1011
      6 O6         45.1310  -37.2610    9.9720 O.3       1 0JA        -0.2517
      7 C7         43.7770  -37.2890   10.0880 C.ar      1 0JA         0.1739
      8 C8         42.9300  -36.1960    9.8780 C.ar      1 0JA        -0.0134
      9 C9         41.5670  -36.3620   10.0140 C.ar      1 0JA        -0.0513
     10 C10        41.0350  -37.6370   10.3540 C.ar      1 0JA         0.0237
     11 N11        39.7500  -38.0590   10.5390 N.2       1 0JA        -0.3086
     12 C12        39.5360  -39.2990   10.8620 C.2       1 0JA         0.2125
     13 N13        38.2980  -39.9460   11.0440 N.am      1 0JA        -0.1895
     14 C14        38.1850  -41.2760   11.3690 C.2       1 0JA         0.2207
     15 O15        39.1630  -41.9490   11.5730 O.2       1 0JA        -0.3784
     16 C16        36.8930  -42.0470   11.5200 C.3       1 0JA         0.0575
     17 C17        36.1340  -42.0180   12.8450 C.3       1 0JA        -0.0301
     18 C18        35.5640  -41.3070   11.6150 C.3       1 0JA        -0.0301
     19 S19        41.0940  -40.1030   10.9430 S.3       1 0JA         0.0448
     20 C20        41.9700  -38.6530   10.5360 C.ar      1 0JA         0.1069
     21 N21        43.2730  -38.4580   10.4050 N.ar      1 0JA        -0.2660
     22 C22        46.5990  -35.8730    8.6830 C.ar      1 0JA        -0.0098
     23 C23        47.4460  -34.7640    8.5990 C.ar      1 0JA         0.0922
     24 N24        48.1410  -34.3850    7.4350 N.am      1 0JA        -0.2341
     25 C25        47.8050  -34.6940    6.1620 C.2       1 0JA         0.2386
     26 O26        46.8380  -35.3890    5.9230 O.2       1 0JA        -0.3728
     27 C27        48.6430  -34.2430    5.0290 C.ar      1 0JA         0.0988
     28 C28        50.0310  -34.3910    5.1130 C.ar      1 0JA        -0.0140
     29 C29        50.8470  -34.0020    4.0680 C.ar      1 0JA        -0.0276
     30 C30        50.2940  -33.4620    2.9190 C.ar      1 0JA        -0.0337
     31 C31        48.9180  -33.3120    2.8070 C.ar      1 0JA        -0.0027
     32 C32        48.0910  -33.7000    3.8560 C.ar      1 0JA         0.0891
     33 CL3        46.3770  -33.4980    3.6810 Cl        1 0JA        -0.0354
     34 C34        48.3160  -32.7310    1.5430 C.3       1 0JA         0.0849
     35 C35        48.9200  -33.1160    0.1900 C.3       1 0JA        -0.0529
     36 C36        47.5650  -33.6860    0.6110 C.3       1 0JA        -0.0529
     37 C37        47.7540  -31.3850    1.6720 C.1       1 0JA         0.0563
     38 N38        47.3310  -30.3360    1.7710 N.1       1 0JA        -0.3141
     39 H          47.1622  -33.6609   11.8023 H         1 0JA         0.0539
     40 H          45.6754  -35.6316   11.9524 H         1 0JA         0.0420
     41 H          43.3423  -35.2233    9.6097 H         1 0JA         0.0579
     42 H          40.8973  -35.5157    9.8608 H         1 0JA         0.0630
     43 H          37.4439  -39.4004   10.9289 H         1 0JA         0.2444
     44 H          37.2913  -42.8322   10.8775 H         1 0JA         0.0546
     45 H          36.3290  -41.8067   13.8964 H         1 0JA         0.0294
     46 H          35.8032  -42.7149   13.6151 H         1 0JA         0.0294
     47 H          34.6221  -41.2448   11.0700 H         1 0JA         0.0294
     48 H          35.1496  -40.3337   11.3522 H         1 0JA         0.0294
     49 H          46.4502  -36.5104    7.8114 H         1 0JA         0.0422
     50 H          48.9813  -33.8215    7.5645 H         1 0JA         0.2241
     51 H          50.4741  -34.8179    6.0127 H         1 0JA         0.0901
     52 H          51.9276  -34.1204    4.1482 H         1 0JA         0.0708
     53 H          50.9418  -33.1532    2.0986 H         1 0JA         0.0878
     54 H          49.8689  -33.4745   -0.2089 H         1 0JA         0.0186
     55 H          49.3670  -32.6253   -0.6746 H         1 0JA         0.0186
     56 H          46.5639  -33.8046    0.1965 H         1 0JA         0.0186
     57 H          47.0656  -34.6535    0.6621 H         1 0JA         0.0186
@<TRIPOS>BOND
     1    1    2 1  
     2    2    3 ar 
     3    2   23 ar 
     4    3    4 ar 
     5    4    5 ar 
     6    5    6 1  
     7    5   22 ar 
     8    6    7 1  
     9    7    8 ar 
    10    7   21 ar 
    11    8    9 ar 
    12    9   10 ar 
    13   10   11 1  
    14   10   20 ar 
    15   11   12 2  
    16   12   13 1  
    17   12   19 1  
    18   13   14 am 
    19   14   15 2  
    20   14   16 1  
    21   16   17 1  
    22   16   18 1  
    23   17   18 1  
    24   19   20 1  
    25   20   21 ar 
    26   22   23 ar 
    27   23   24 1  
    28   24   25 am 
    29   25   26 2  
    30   25   27 1  
    31   27   28 ar 
    32   27   32 ar 
    33   28   29 ar 
    34   29   30 ar 
    35   30   31 ar 
    36   31   32 ar 
    37   31   34 1  
    38   32   33 1  
    39   34   35 1  
    40   34   36 1  
    41   34   37 1  
    42   35   36 1  
    43   37   38 3  
    44    3   39 1  
    45    4   40 1  
    46    8   41 1  
    47    9   42 1  
    48   13   43 1  
    49   16   44 1  
    50   17   45 1  
    51   17   46 1  
    52   18   47 1  
    53   18   48 1  
    54   22   49 1  
    55   24   50 1  
    56   28   51 1  
    57   29   52 1  
    58   30   53 1  
    59   35   54 1  
    60   35   55 1  
    61   36   56 1  
    62   36   57 1  
@<TRIPOS>SUBSTRUCTURE
     1 0JA         1

