### 
### Created by X-TOOL on Mon Sep 10 21:13:09 2018
### 

@<TRIPOS>MOLECULE
4dcd_ligand
   60    61     1     0     0
SMALL
GAST_HUCK


@<TRIPOS>ATOM
      1 C7          8.3580    8.9300   32.8330 C.3       1 K36         0.1113
      2 O8          9.5160    9.6110   32.3290 O.3       1 K36        -0.2506
      3 C9          9.7440    9.6310   30.9030 C.2       1 K36         0.3239
      4 O10         8.8820    9.2600   30.1120 O.2       1 K36        -0.3773
      5 C1          7.3630    9.9550   33.3240 C.ar      1 K36        -0.0130
      6 C2          6.7390   10.7680   32.3970 C.ar      1 K36        -0.0578
      7 C3          5.8070   11.7100   32.8180 C.ar      1 K36        -0.0685
      8 C4          5.5330   11.8480   34.1740 C.ar      1 K36        -0.0687
      9 C5          6.1710   11.0450   35.1070 C.ar      1 K36        -0.0685
     10 C6          7.0900   10.0890   34.6820 C.ar      1 K36        -0.0578
     11 N11        10.9600   10.1030   30.5080 N.am      1 K36        -0.2411
     12 C12        11.5580    9.8310   29.2040 C.3       1 K36         0.1329
     13 C17        11.4120    8.4740   28.5740 C.2       1 K36         0.2019
     14 O18        11.7510    7.4950   29.2320 O.2       1 K36        -0.3945
     15 C13        12.8660   10.5580   28.8820 C.3       1 K36        -0.0101
     16 C14        12.9150   11.9880   29.4130 C.3       1 K36        -0.0425
     17 C15        14.3590   12.4210   29.6240 C.3       1 K36        -0.0625
     18 C16        12.2040   12.9390   28.4730 C.3       1 K36        -0.0625
     19 N19        10.9900    8.3640   27.2770 N.am      1 K36        -0.2797
     20 C20        10.8250    7.0390   26.6400 C.3       1 K36         0.0674
     21 C21        11.4550    6.9850   25.2520 C.3       1 K36         0.0673
     22 O22        12.8680    7.1640   25.3480 O.3       1 K36        -0.3927
     23 C24         9.3380    6.7400   26.4790 C.3       1 K36        -0.0079
     24 C25         8.6370    6.6300   27.8090 C.3       1 K36         0.0526
     25 C26         9.1520    5.5270   28.7220 C.3       1 K36        -0.0129
     26 C27         7.9130    5.0260   29.4520 C.3       1 K36         0.0332
     27 N28         6.7920    5.3270   28.5580 N.am      1 K36        -0.2866
     28 C29         7.2240    6.2170   27.6280 C.2       1 K36         0.1792
     29 O30         6.4860    6.5880   26.7230 O.2       1 K36        -0.3968
     30 H1          8.6497    8.2709   33.6640 H         1 K36         0.0776
     31 H2          7.9042    8.3297   32.0307 H         1 K36         0.0776
     32 H3          6.9757   10.6715   31.3436 H         1 K36         0.0557
     33 H4          5.2967   12.3335   32.0928 H         1 K36         0.0599
     34 H5          4.8147   12.5895   34.5045 H         1 K36         0.0559
     35 H6          5.9553   11.1609   36.1630 H         1 K36         0.0599
     36 H7          7.5895    9.4534   35.4042 H         1 K36         0.0557
     37 H8         11.4744   10.6706   31.1509 H         1 K36         0.1899
     38 H9         10.8608   10.3993   28.5708 H         1 K36         0.0799
     39 H10        12.9875   10.5882   27.7892 H         1 K36         0.0315
     40 H11        13.6975    9.9925   29.3279 H         1 K36         0.0315
     41 H12        12.3994   12.0143   30.3843 H         1 K36         0.0298
     42 H13        14.3804   13.4522   30.0064 H         1 K36         0.0232
     43 H14        14.8996   12.3735   28.6672 H         1 K36         0.0232
     44 H15        14.8405   11.7503   30.3509 H         1 K36         0.0232
     45 H16        11.1640   12.6084   28.3345 H         1 K36         0.0232
     46 H17        12.7187   12.9469   27.5009 H         1 K36         0.0232
     47 H18        12.2127   13.9523   28.9008 H         1 K36         0.0232
     48 H19        10.7902    9.1914   26.7520 H         1 K36         0.1855
     49 H20        11.2919    6.2758   27.2799 H         1 K36         0.0580
     50 H21        11.0286    7.7838   24.6274 H         1 K36         0.0580
     51 H22        11.2423    6.0080   24.7935 H         1 K36         0.0580
     52 H23        13.2377    6.4739   25.8860 H         1 K36         0.2095
     53 H24         9.2234    5.7894   25.9375 H         1 K36         0.0315
     54 H25         8.8735    7.5508   25.8987 H         1 K36         0.0315
     55 H26         8.7028    7.6039   28.3162 H         1 K36         0.0539
     56 H27         9.8889    5.9250   29.4351 H         1 K36         0.0312
     57 H28         9.6104    4.7181   28.1341 H         1 K36         0.0312
     58 H29         7.7924    5.5500   30.4116 H         1 K36         0.0521
     59 H30         7.9828    3.9431   29.6318 H         1 K36         0.0521
     60 H31         5.8704    4.9441   28.6216 H         1 K36         0.1851
@<TRIPOS>BOND
     1    1    2 1  
     2    1    5 1  
     3    2    3 1  
     4    3    4 2  
     5    3   11 am 
     6    5    6 ar 
     7    5   10 ar 
     8    6    7 ar 
     9    7    8 ar 
    10    8    9 ar 
    11    9   10 ar 
    12   11   12 1  
    13   12   13 1  
    14   12   15 1  
    15   13   14 2  
    16   13   19 am 
    17   15   16 1  
    18   16   17 1  
    19   16   18 1  
    20   19   20 1  
    21   20   21 1  
    22   20   23 1  
    23   21   22 1  
    24   23   24 1  
    25   24   25 1  
    26   24   28 1  
    27   25   26 1  
    28   26   27 1  
    29   27   28 am 
    30   28   29 2  
    31    1   30 1  
    32    1   31 1  
    33    6   32 1  
    34    7   33 1  
    35    8   34 1  
    36    9   35 1  
    37   10   36 1  
    38   11   37 1  
    39   12   38 1  
    40   15   39 1  
    41   15   40 1  
    42   16   41 1  
    43   17   42 1  
    44   17   43 1  
    45   17   44 1  
    46   18   45 1  
    47   18   46 1  
    48   18   47 1  
    49   19   48 1  
    50   20   49 1  
    51   21   50 1  
    52   21   51 1  
    53   22   52 1  
    54   23   53 1  
    55   23   54 1  
    56   24   55 1  
    57   25   56 1  
    58   25   57 1  
    59   26   58 1  
    60   26   59 1  
    61   27   60 1  
@<TRIPOS>SUBSTRUCTURE
     1 K36         1

