### 
### Created by X-TOOL on Mon Sep 10 21:13:11 2018
### 

@<TRIPOS>MOLECULE
4dce_ligand
   69    72     1     0     0
SMALL
GAST_HUCK


@<TRIPOS>ATOM
      1 C24         5.7780   20.0630   37.4190 C.3       1 0JF         0.0562
      2 O2          6.7920   20.2780   36.4240 O.3       1 0JF        -0.3306
      3 C5          8.0910   19.9970   36.7930 C.ar      1 0JF         0.1026
      4 C6          8.4030   19.1410   37.8670 C.ar      1 0JF        -0.0287
      5 C4          9.1290   20.5870   36.0580 C.ar      1 0JF         0.1351
      6 O3          8.8370   21.4130   35.0050 O.3       1 0JF        -0.3368
      7 C25         8.9520   22.8190   35.3160 C.3       1 0JF         0.0517
      8 C3         10.4600   20.3150   36.3880 C.ar      1 0JF         0.1026
      9 O4         11.4790   20.8840   35.6780 O.3       1 0JF        -0.3306
     10 C26        12.2860   19.9240   35.0050 C.3       1 0JF         0.0562
     11 C2         10.7500   19.4770   37.4630 C.ar      1 0JF        -0.0287
     12 C1          9.7370   18.8850   38.2110 C.ar      1 0JF         0.0377
     13 N5         10.1260   18.0740   39.2170 N.pl3     1 0JF        -0.2549
     14 C16         9.5180   17.8520   40.3880 C.ar      1 0JF         0.1915
     15 N2          8.3640   18.4550   40.6980 N.ar      1 0JF        -0.2390
     16 N1         10.0820   16.9970   41.2680 N.ar      1 0JF        -0.2704
     17 C15         9.5190   16.7260   42.4390 C.ar      1 0JF        -0.0003
     18 C14         8.3260   17.3460   42.7860 C.ar      1 0JF        -0.0061
     19 C13         7.7610   18.2350   41.8740 C.ar      1 0JF         0.1166
     20 N3          6.5550   18.8740   42.1530 N.pl3     1 0JF        -0.2871
     21 C19         5.8990   18.6890   43.4560 C.3       1 0JF         0.0516
     22 C18         5.8290   19.6840   41.1440 C.3       1 0JF         0.0324
     23 C17         4.5050   18.9450   40.8470 C.3       1 0JF        -0.0299
     24 C21         3.7670   18.5090   42.1330 C.3       1 0JF        -0.0294
     25 C20         4.6800   17.8110   43.1630 C.3       1 0JF         0.0693
     26 C22         3.9550   17.5690   44.4730 C.2       1 0JF         0.1828
     27 O1          3.5330   18.5180   45.1350 O.2       1 0JF        -0.3966
     28 N4          3.8510   16.2840   44.8220 N.am      1 0JF        -0.2764
     29 C23         3.1940   15.8620   46.0700 C.3       1 0JF         0.0614
     30 C7          3.0010   14.3550   46.0190 C.ar      1 0JF        -0.0277
     31 C8          1.7090   13.8350   45.9450 C.ar      1 0JF        -0.0649
     32 C9          1.5250   12.4520   45.8880 C.ar      1 0JF        -0.0670
     33 C10         2.6290   11.6060   45.9060 C.ar      1 0JF        -0.0528
     34 C27         2.4250   10.0930   45.8450 C.3       1 0JF        -0.0343
     35 C11         3.9140   12.1350   45.9830 C.ar      1 0JF        -0.0670
     36 C12         4.1060   13.5130   46.0400 C.ar      1 0JF        -0.0649
     37 H           5.7813   19.0150   37.7188 H         1 0JF         0.0572
     38 H           5.9827   20.6909   38.2861 H         1 0JF         0.0572
     39 H           4.8034   20.3205   37.0043 H         1 0JF         0.0572
     40 H           7.5994   18.6734   38.4358 H         1 0JF         0.0346
     41 H           8.2639   23.0686   36.1237 H         1 0JF         0.0564
     42 H           9.9735   23.0388   35.6262 H         1 0JF         0.0564
     43 H           8.7050   23.4067   34.4319 H         1 0JF         0.0564
     44 H          12.7268   19.2456   35.7355 H         1 0JF         0.0572
     45 H          11.6690   19.3577   34.3073 H         1 0JF         0.0572
     46 H          13.0780   20.4361   34.4586 H         1 0JF         0.0572
     47 H          11.7904   19.2815   37.7229 H         1 0JF         0.0346
     48 H          10.9963   17.5642   39.0650 H         1 0JF         0.2147
     49 H           9.9902   16.0211   43.1240 H         1 0JF         0.0846
     50 H           7.8458   17.1433   43.7433 H         1 0JF         0.0570
     51 H           5.6136   19.6408   43.9039 H         1 0JF         0.0553
     52 H           6.5662   18.2253   44.1826 H         1 0JF         0.0553
     53 H           6.4226   19.7955   40.2366 H         1 0JF         0.0525
     54 H           5.6361   20.6889   41.5196 H         1 0JF         0.0525
     55 H           4.7424   18.0476   40.2756 H         1 0JF         0.0287
     56 H           3.8541   19.6285   40.3019 H         1 0JF         0.0287
     57 H           2.9971   17.7945   41.8416 H         1 0JF         0.0294
     58 H           3.3715   19.4090   42.6039 H         1 0JF         0.0294
     59 H           4.9815   16.8549   42.7351 H         1 0JF         0.0558
     60 H           4.2394   15.5718   44.2037 H         1 0JF         0.1876
     61 H           2.2299   16.3600   46.1729 H         1 0JF         0.0670
     62 H           3.8100   16.1321   46.9277 H         1 0JF         0.0670
     63 H           0.8484   14.5039   45.9317 H         1 0JF         0.0540
     64 H           0.5190   12.0365   45.8296 H         1 0JF         0.0540
     65 H           1.8296    9.7732   46.7002 H         1 0JF         0.0378
     66 H           1.9057    9.8346   44.9221 H         1 0JF         0.0378
     67 H           3.3946    9.5957   45.8693 H         1 0JF         0.0378
     68 H           4.7750   11.4668   45.9988 H         1 0JF         0.0540
     69 H           5.1126   13.9268   46.1005 H         1 0JF         0.0540
@<TRIPOS>BOND
     1    1    2 1  
     2    2    3 1  
     3    3    4 ar 
     4    3    5 ar 
     5    4   12 ar 
     6    5    6 1  
     7    5    8 ar 
     8    6    7 1  
     9    8    9 1  
    10    8   11 ar 
    11    9   10 1  
    12   11   12 ar 
    13   12   13 1  
    14   13   14 1  
    15   14   15 ar 
    16   14   16 ar 
    17   15   19 ar 
    18   16   17 ar 
    19   17   18 ar 
    20   18   19 ar 
    21   19   20 1  
    22   20   21 1  
    23   20   22 1  
    24   21   25 1  
    25   22   23 1  
    26   23   24 1  
    27   24   25 1  
    28   25   26 1  
    29   26   27 2  
    30   26   28 am 
    31   28   29 1  
    32   29   30 1  
    33   30   31 ar 
    34   30   36 ar 
    35   31   32 ar 
    36   32   33 ar 
    37   33   34 1  
    38   33   35 ar 
    39   35   36 ar 
    40    1   37 1  
    41    1   38 1  
    42    1   39 1  
    43    4   40 1  
    44    7   41 1  
    45    7   42 1  
    46    7   43 1  
    47   10   44 1  
    48   10   45 1  
    49   10   46 1  
    50   11   47 1  
    51   13   48 1  
    52   17   49 1  
    53   18   50 1  
    54   21   51 1  
    55   21   52 1  
    56   22   53 1  
    57   22   54 1  
    58   23   55 1  
    59   23   56 1  
    60   24   57 1  
    61   24   58 1  
    62   25   59 1  
    63   28   60 1  
    64   29   61 1  
    65   29   62 1  
    66   31   63 1  
    67   32   64 1  
    68   34   65 1  
    69   34   66 1  
    70   34   67 1  
    71   35   68 1  
    72   36   69 1  
@<TRIPOS>SUBSTRUCTURE
     1 0JF         1

