### 
### Created by X-TOOL on Mon Sep 10 21:13:14 2018
### 

@<TRIPOS>MOLECULE
4ddh_ligand
   24    25     1     0     0
SMALL
GAST_HUCK


@<TRIPOS>ATOM
      1 O1         13.7020   10.7090   -0.2550 O.3       1 MS0        -0.2746
      2 C2         14.0050   10.4070   -1.5960 C.ar      1 MS0         0.1112
      3 C3         15.3560   10.3320   -1.6540 C.ar      1 MS0        -0.0121
      4 C4         15.8300   10.5680   -0.3940 C.2       1 MS0        -0.0236
      5 C5         14.8210   10.7670    0.4550 C.2       1 MS0         0.0738
      6 C7         17.2920   10.4820    0.1670 C.3       1 MS0         0.0188
      7 C10        18.3400   11.3560   -0.3500 C.2       1 MS0         0.0408
      8 O11        19.4430   10.7840   -0.4650 O.co2     1 MS0        -0.5673
      9 O12        18.0820   12.5780   -0.5290 O.co2     1 MS0        -0.5673
     10 C14        15.9590   10.0810   -2.8400 C.ar      1 MS0        -0.0751
     11 C16        15.2110    9.8890   -4.0070 C.ar      1 MS0        -0.0448
     12 C18        13.8230    9.9560   -3.9350 C.ar      1 MS0         0.0801
     13 C19        13.2070   10.2490   -2.6910 C.ar      1 MS0        -0.0046
     14 O21        13.1030    9.7450   -5.0770 O.3       1 MS0        -0.3265
     15 C22        11.6750    9.5860   -4.8550 C.3       1 MS0         0.0582
     16 H1         14.9005   10.9434    1.5267 H         1 MS0         0.0879
     17 H2         17.6328    9.4496   -0.0004 H         1 MS0         0.0521
     18 H3         17.2259   10.6757    1.2478 H         1 MS0         0.0521
     19 H4         17.0407   10.0278   -2.8864 H         1 MS0         0.0539
     20 H5         15.7048    9.6913   -4.9516 H         1 MS0         0.0476
     21 H6         12.1301   10.3448   -2.6127 H         1 MS0         0.0466
     22 H7         11.1703    9.4211   -5.8184 H         1 MS0         0.0576
     23 H8         11.2741   10.4945   -4.3818 H         1 MS0         0.0576
     24 H9         11.5002    8.7221   -4.1969 H         1 MS0         0.0576
@<TRIPOS>BOND
     1    1    2 1  
     2    1    5 1  
     3    2    3 ar 
     4    2   13 ar 
     5    3    4 1  
     6    3   10 ar 
     7    4    5 2  
     8    4    6 1  
     9    6    7 1  
    10    7    8 ar 
    11    7    9 ar 
    12   10   11 ar 
    13   11   12 ar 
    14   12   13 ar 
    15   12   14 1  
    16   14   15 1  
    17    5   16 1  
    18    6   17 1  
    19    6   18 1  
    20   10   19 1  
    21   11   20 1  
    22   13   21 1  
    23   15   22 1  
    24   15   23 1  
    25   15   24 1  
@<TRIPOS>SUBSTRUCTURE
     1 MS0         1

