### 
### Created by X-TOOL on Mon Sep 10 21:13:14 2018
### 

@<TRIPOS>MOLECULE
4ddk_ligand
   17    18     1     0     0
SMALL
GAST_HUCK


@<TRIPOS>ATOM
      1 OAA       -15.3860   -0.3440   -0.1040 O.co2     1 0HN        -0.5637
      2 CAI       -15.7330   -0.2650    1.0980 C.2       1 0HN         0.0531
      3 OAB       -16.9060    0.1570    1.3230 O.co2     1 0HN        -0.5637
      4 CAJ       -14.8400   -0.5650    2.1750 C.ar      1 0HN        -0.0099
      5 CAE       -13.4970   -0.9630    2.0130 C.ar      1 0HN        -0.0272
      6 CAL       -12.6960   -1.2190    3.0980 C.ar      1 0HN         0.1269
      7 OAH       -11.3870   -1.6300    3.1160 O.3       1 0HN        -0.2902
      8 CAF       -11.0330   -1.8330    4.5400 C.3       1 0HN         0.1876
      9 OAG       -12.1840   -1.3570    5.3410 O.3       1 0HN        -0.2887
     10 CAK       -13.1700   -1.0910    4.3850 C.ar      1 0HN         0.1266
     11 CAD       -14.4410   -0.6870    4.5850 C.ar      1 0HN        -0.0372
     12 CAC       -15.2870   -0.4210    3.5050 C.ar      1 0HN        -0.0674
     13 H1        -13.0899   -1.0687    1.0139 H         1 0HN         0.0541
     14 H2        -10.1318   -1.2548    4.7920 H         1 0HN         0.0974
     15 H3        -10.8509   -2.8999    4.7362 H         1 0HN         0.0974
     16 H4        -14.8112   -0.5670    5.5967 H         1 0HN         0.0518
     17 H5        -16.3047   -0.0983    3.6927 H         1 0HN         0.0531
@<TRIPOS>BOND
     1    1    2 ar 
     2    2    3 ar 
     3    2    4 1  
     4    4    5 ar 
     5    4   12 ar 
     6    5    6 ar 
     7    6    7 1  
     8    6   10 ar 
     9    7    8 1  
    10    8    9 1  
    11    9   10 1  
    12   10   11 ar 
    13   11   12 ar 
    14    5   13 1  
    15    8   14 1  
    16    8   15 1  
    17   11   16 1  
    18   12   17 1  
@<TRIPOS>SUBSTRUCTURE
     1 0HN         1

