### 
### Created by X-TOOL on Mon Sep 10 21:13:09 2018
### 

@<TRIPOS>MOLECULE
4ddl_ligand
   61    64     1     0     0
SMALL
GAST_HUCK


@<TRIPOS>ATOM
      1 C11        13.9930   85.8360   36.8520 C.3       1 0JQ         0.0635
      2 O2         14.0270   86.5200   38.1130 O.3       1 0JQ        -0.3072
      3 C9         13.1380   87.4590   38.3380 C.ar      1 0JQ         0.1450
      4 C5         12.2280   87.8650   37.4010 C.ar      1 0JQ        -0.0099
      5 C6         13.1810   88.0670   39.5590 C.ar      1 0JQ         0.1457
      6 O1         14.1010   87.6500   40.4190 O.3       1 0JQ        -0.3106
      7 C10        13.9110   88.1760   41.7460 C.3       1 0JQ         0.0619
      8 C3         12.3080   89.0760   39.8570 C.ar      1 0JQ        -0.0104
      9 C1         11.3440   89.4310   38.9490 C.ar      1 0JQ         0.0148
     10 C2         11.3520   88.8840   37.6970 C.ar      1 0JQ         0.0254
     11 N1         10.4740   89.2930   36.8020 N.ar      1 0JQ        -0.2888
     12 N2          9.7030   90.1800   37.0580 N.ar      1 0JQ        -0.2591
     13 C7          9.6660   90.7980   38.2020 C.ar      1 0JQ         0.0421
     14 C4         10.5840   90.5290   39.1750 C.ar      1 0JQ         0.0352
     15 C8         10.5120   91.1180   40.4100 C.ar      1 0JQ         0.0120
     16 C12        10.2510   90.4350   41.5520 C.ar      1 0JQ        -0.0370
     17 C13        10.0980   91.1000   42.7380 C.ar      1 0JQ         0.0076
     18 C16         9.9010   90.3180   44.0250 C.3       1 0JQ        -0.0269
     19 C15        10.3680   92.4530   40.4940 C.ar      1 0JQ         0.0077
     20 N3         10.3120   93.0790   41.6180 N.ar      1 0JQ        -0.2816
     21 C14        10.1100   92.4650   42.7470 C.ar      1 0JQ         0.1254
     22 N4         10.0090   93.2130   43.8970 N.pl3     1 0JQ        -0.2921
     23 C24         9.6660   94.6040   43.8560 C.3       1 0JQ         0.0309
     24 C23         9.4430   95.2150   45.2330 C.3       1 0JQ        -0.0270
     25 C20        10.7570   92.7470   45.0370 C.3       1 0JQ         0.0309
     26 C21        10.4160   93.4030   46.3550 C.3       1 0JQ        -0.0270
     27 C22        10.5700   94.8770   46.1980 C.3       1 0JQ        -0.0090
     28 C18        10.4340   95.6790   47.5010 C.3       1 0JQ         0.0635
     29 C17        11.2050   95.1190   48.6510 C.3       1 0JQ        -0.0361
     30 C19         8.9970   95.8000   47.9260 C.3       1 0JQ        -0.0361
     31 O3         10.8170   96.9940   47.1790 O.3       1 0JQ        -0.3888
     32 H1         14.7962   85.0850   36.8205 H         1 0JQ         0.0586
     33 H2         14.1369   86.5611   36.0375 H         1 0JQ         0.0586
     34 H3         13.0200   85.3374   36.7314 H         1 0JQ         0.0586
     35 H4         12.1971   87.3859   36.4291 H         1 0JQ         0.0460
     36 H5         14.7022   87.7948   42.4083 H         1 0JQ         0.0583
     37 H6         12.9291   87.8604   42.1284 H         1 0JQ         0.0583
     38 H7         13.9566   89.2746   41.7150 H         1 0JQ         0.0583
     39 H8         12.3777   89.5932   40.8071 H         1 0JQ         0.0534
     40 H9          8.8947   91.5374   38.3850 H         1 0JQ         0.1034
     41 H10        10.1630   89.3549   41.5252 H         1 0JQ         0.0668
     42 H11         9.9227   89.2402   43.8061 H         1 0JQ         0.0382
     43 H12         8.9303   90.5823   44.4698 H         1 0JQ         0.0382
     44 H13        10.7074   90.5650   44.7312 H         1 0JQ         0.0382
     45 H14        10.2961   93.0260   39.5766 H         1 0JQ         0.0791
     46 H15         8.7416   94.7177   43.2707 H         1 0JQ         0.0523
     47 H16        10.4828   95.1497   43.3610 H         1 0JQ         0.0523
     48 H17         8.4976   94.8303   45.6430 H         1 0JQ         0.0289
     49 H18         9.3801   96.3084   45.1301 H         1 0JQ         0.0289
     50 H19        11.8240   92.9243   44.8370 H         1 0JQ         0.0523
     51 H20        10.5779   91.6666   45.1405 H         1 0JQ         0.0523
     52 H21        11.0969   93.0394   47.1386 H         1 0JQ         0.0289
     53 H22         9.3783   93.1649   46.6315 H         1 0JQ         0.0289
     54 H23        11.5485   95.1072   45.7514 H         1 0JQ         0.0330
     55 H24        11.0516   95.7514   49.5379 H         1 0JQ         0.0257
     56 H25        12.2753   95.0954   48.3982 H         1 0JQ         0.0257
     57 H26        10.8559   94.0979   48.8640 H         1 0JQ         0.0257
     58 H27         8.4028   96.2111   47.0966 H         1 0JQ         0.0257
     59 H28         8.9269   96.4707   48.7950 H         1 0JQ         0.0257
     60 H29         8.6099   94.8067   48.1972 H         1 0JQ         0.0257
     61 H30        10.2993   97.3026   46.4447 H         1 0JQ         0.2101
@<TRIPOS>BOND
     1    1    2 1  
     2    2    3 1  
     3    3    4 ar 
     4    3    5 ar 
     5    4   10 ar 
     6    5    6 1  
     7    5    8 ar 
     8    6    7 1  
     9    8    9 ar 
    10    9   10 ar 
    11    9   14 ar 
    12   10   11 ar 
    13   11   12 ar 
    14   12   13 ar 
    15   13   14 ar 
    16   14   15 1  
    17   15   16 ar 
    18   15   19 ar 
    19   16   17 ar 
    20   17   18 1  
    21   17   21 ar 
    22   19   20 ar 
    23   20   21 ar 
    24   21   22 1  
    25   22   23 1  
    26   22   25 1  
    27   23   24 1  
    28   24   27 1  
    29   25   26 1  
    30   26   27 1  
    31   27   28 1  
    32   28   29 1  
    33   28   30 1  
    34   28   31 1  
    35    1   32 1  
    36    1   33 1  
    37    1   34 1  
    38    4   35 1  
    39    7   36 1  
    40    7   37 1  
    41    7   38 1  
    42    8   39 1  
    43   13   40 1  
    44   16   41 1  
    45   18   42 1  
    46   18   43 1  
    47   18   44 1  
    48   19   45 1  
    49   23   46 1  
    50   23   47 1  
    51   24   48 1  
    52   24   49 1  
    53   25   50 1  
    54   25   51 1  
    55   26   52 1  
    56   26   53 1  
    57   27   54 1  
    58   29   55 1  
    59   29   56 1  
    60   29   57 1  
    61   30   58 1  
    62   30   59 1  
    63   30   60 1  
    64   31   61 1  
@<TRIPOS>SUBSTRUCTURE
     1 0JQ         1

