### 
### Created by X-TOOL on Mon Sep 10 21:13:13 2018
### 

@<TRIPOS>MOLECULE
4ddm_ligand
   15    16     1     0     0
SMALL
GAST_HUCK


@<TRIPOS>ATOM
      1 OAA        15.4630   11.4810    2.0480 O.co2     1 0HO        -0.5606
      2 CAI        15.1360   11.7620    3.2270 C.2       1 0HO         0.0630
      3 OAB        15.2630   12.9170    3.6320 O.co2     1 0HO        -0.5606
      4 CAJ        14.7450   10.7480    4.1030 C.ar      1 0HO         0.0121
      5 CAE        14.4470   11.0470    5.4150 C.ar      1 0HO        -0.0220
      6 CAL        14.1300   10.1160    6.2960 C.ar      1 0HO         0.0935
      7 NAG        13.8090   10.3290    7.5720 N.2       1 0HO        -0.1883
      8 SAH        13.5130    8.8480    8.2560 S.3       1 0HO         0.1391
      9 NAF        13.7650    7.9700    6.9130 N.2       1 0HO        -0.1874
     10 CAK        14.0920    8.8160    5.9140 C.ar      1 0HO         0.0927
     11 CAD        14.4050    8.4840    4.6680 C.ar      1 0HO        -0.0326
     12 CAC        14.7420    9.4220    3.7010 C.ar      1 0HO        -0.0457
     13 H1         14.4738   12.0824    5.7347 H         1 0HO         0.0671
     14 H2         14.3973    7.4355    4.3931 H         1 0HO         0.0644
     15 H3         14.9894    9.1324    2.6861 H         1 0HO         0.0652
@<TRIPOS>BOND
     1    1    2 ar 
     2    2    3 ar 
     3    2    4 1  
     4    4    5 ar 
     5    4   12 ar 
     6    5    6 ar 
     7    6    7 2  
     8    6   10 ar 
     9    7    8 1  
    10    8    9 1  
    11    9   10 2  
    12   10   11 ar 
    13   11   12 ar 
    14    5   13 1  
    15   11   14 1  
    16   12   15 1  
@<TRIPOS>SUBSTRUCTURE
     1 0HO         1

