### 
### Created by X-TOOL on Fri Sep 26 17:34:54 2014
### 

@<TRIPOS>MOLECULE
4dds_ligand
   39    42     1     0     0
SMALL
GAST_HUCK


@<TRIPOS>ATOM
      1 O26        -9.2330   55.6610   13.5100 O.2       1 MOL        -0.3729
      2 C13        -8.7990   55.8140   12.3560 C.2       1 MOL         0.2332
      3 N12        -7.7420   55.1140   11.9120 N.am      1 MOL        -0.2332
      4 C8         -6.9370   54.2790   12.7340 C.ar      1 MOL         0.0663
      5 C7         -5.5800   54.1940   12.3660 C.ar      1 MOL        -0.0321
      6 C9         -7.4130   53.5870   13.8670 C.ar      1 MOL        -0.0410
      7 C10        -6.4720   52.8850   14.6180 C.ar      1 MOL        -0.0745
      8 C11        -5.1060   52.8230   14.2610 C.ar      1 MOL        -0.0672
      9 C6         -4.6530   53.4540   13.1030 C.ar      1 MOL        -0.0043
     10 C5         -3.2170   53.4210   12.6940 C.2       1 MOL         0.1452
     11 N4         -2.1730   53.0750   13.4960 N.2       1 MOL        -0.1437
     12 N3         -0.9840   53.1370   12.7530 N.pl3     1 MOL        -0.1036
     13 N2         -1.3510   53.4880   11.4480 N.2       1 MOL        -0.0518
     14 N1         -2.7300   53.6020   11.4300 N.2       1 MOL        -0.1756
     15 C14        -9.5620   56.7340   11.4250 C.ar      1 MOL         0.0606
     16 C19        -9.1970   56.9220   10.1020 C.ar      1 MOL        -0.0381
     17 C18        -9.9310   57.7660    9.2680 C.ar      1 MOL        -0.0518
     18 C17       -11.0320   58.4690    9.7450 C.ar      1 MOL        -0.0421
     19 C16       -11.3930   58.3110   11.0700 C.ar      1 MOL         0.0277
     20 C15       -10.6620   57.4550   11.9070 C.ar      1 MOL        -0.0257
     21 C20       -12.6070   59.0070   11.6010 C.ar      1 MOL         0.1294
     22 N25       -13.1660   60.0330   10.9160 N.ar      1 MOL        -0.2588
     23 C24       -14.2560   60.6510   11.3520 C.ar      1 MOL         0.0278
     24 C23       -14.8090   60.2420   12.5420 C.ar      1 MOL        -0.0098
     25 C22       -14.2490   59.1930   13.2380 C.ar      1 MOL         0.0278
     26 N21       -13.1520   58.5890   12.7630 N.ar      1 MOL        -0.2588
     27 H1         -7.5067   55.1847   10.9427 H         1 MOL         0.2251
     28 H2         -5.2438   54.7210   11.4804 H         1 MOL         0.0504
     29 H3         -8.4617   53.6005   14.1409 H         1 MOL         0.0505
     30 H4         -6.8008   52.3661   15.5111 H         1 MOL         0.0579
     31 H5         -4.4076   52.2828   14.8899 H         1 MOL         0.0498
     32 H6         -0.0303   52.9595   13.0991 H         1 MOL         0.2946
     33 H7         -8.3285   56.4059    9.7090 H         1 MOL         0.0697
     34 H8         -9.6380   57.8757    8.2301 H         1 MOL         0.0638
     35 H9        -11.5947   59.1264    9.0922 H         1 MOL         0.0692
     36 H10       -10.9536   57.3495   12.9457 H         1 MOL         0.0712
     37 H11       -14.7001   61.4597   10.7830 H         1 MOL         0.0938
     38 H12       -15.6860   60.7449   12.9331 H         1 MOL         0.0769
     39 H13       -14.6950   58.8575   14.1673 H         1 MOL         0.0938
@<TRIPOS>BOND
     1    1    2 2  
     2    2    3 am 
     3    2   15 1  
     4    3    4 1  
     5    4    5 ar 
     6    4    6 ar 
     7    5    9 ar 
     8    6    7 ar 
     9    7    8 ar 
    10    8    9 ar 
    11    9   10 1  
    12   10   11 2  
    13   10   14 1  
    14   11   12 1  
    15   12   13 1  
    16   13   14 2  
    17   15   16 ar 
    18   15   20 ar 
    19   16   17 ar 
    20   17   18 ar 
    21   18   19 ar 
    22   19   20 ar 
    23   19   21 1  
    24   21   22 ar 
    25   21   26 ar 
    26   22   23 ar 
    27   23   24 ar 
    28   24   25 ar 
    29   25   26 ar 
    30    3   27 1  
    31    5   28 1  
    32    6   29 1  
    33    7   30 1  
    34    8   31 1  
    35   12   32 1  
    36   16   33 1  
    37   17   34 1  
    38   18   35 1  
    39   20   36 1  
    40   23   37 1  
    41   24   38 1  
    42   25   39 1  
@<TRIPOS>SUBSTRUCTURE
     1 MOL         1

