### 
### Created by X-TOOL on Fri Sep 26 17:34:54 2014
### 

@<TRIPOS>MOLECULE
4ddy_ligand
   34    36     1     0     0
SMALL
GAST_HUCK


@<TRIPOS>ATOM
      1 F24       -11.6650   60.6230   12.0830 F         1 DN6        -0.2197
      2 C7        -12.3940   59.5840   11.6020 C.3       1 DN6         0.3783
      3 F22       -13.2820   59.8910   10.6590 F         1 DN6        -0.2197
      4 F23       -13.0950   59.0460   12.5880 F         1 DN6        -0.2197
      5 C6        -11.4100   58.5750   11.0490 C.ar      1 DN6         0.0540
      6 C1        -11.1870   58.5210    9.6860 C.ar      1 DN6        -0.0277
      7 C5        -10.6660   57.7330   11.8940 C.ar      1 DN6        -0.0107
      8 C4         -9.7500   56.7960   11.3880 C.ar      1 DN6         0.0853
      9 C3         -9.5550   56.7830    9.9860 C.ar      1 DN6        -0.0141
     10 C2        -10.2940   57.6200    9.1320 C.ar      1 DN6        -0.0272
     11 C8         -8.9580   55.9070   12.3460 C.2       1 DN6         0.2394
     12 O21        -9.3930   55.8160   13.5050 O.2       1 DN6        -0.3722
     13 N9         -7.8410   55.2870   11.8990 N.am      1 DN6        -0.2327
     14 C10        -6.9980   54.5020   12.7140 C.ar      1 DN6         0.0663
     15 C15        -7.4730   53.7920   13.8030 C.ar      1 DN6        -0.0410
     16 C14        -6.5480   53.0840   14.5770 C.ar      1 DN6        -0.0745
     17 C13        -5.2130   53.0540   14.2180 C.ar      1 DN6        -0.0672
     18 C12        -4.7610   53.7190   13.1030 C.ar      1 DN6        -0.0043
     19 C11        -5.6600   54.4710   12.3580 C.ar      1 DN6        -0.0321
     20 C16        -3.4010   53.6620   12.7650 C.2       1 DN6         0.1452
     21 N20        -2.8540   54.2250   11.6950 N.2       1 DN6        -0.1437
     22 N19        -1.4790   54.0080   11.6210 N.pl3     1 DN6        -0.1036
     23 N18        -1.1950   53.2680   12.7760 N.2       1 DN6        -0.0518
     24 N17        -2.3690   53.0960   13.4750 N.2       1 DN6        -0.1756
     25 H1        -11.7246   59.2009    9.0349 H         1 DN6         0.0883
     26 H2        -10.8031   57.8091   12.9666 H         1 DN6         0.0912
     27 H3         -8.8180   56.1114    9.5607 H         1 DN6         0.0903
     28 H4        -10.1666   57.5608    8.0571 H         1 DN6         0.0708
     29 H5         -7.5989   55.3914   10.9344 H         1 DN6         0.2252
     30 H6         -8.5289   53.7849   14.0483 H         1 DN6         0.0505
     31 H7         -6.8796   52.5557   15.4636 H         1 DN6         0.0579
     32 H8         -4.5104   52.4962   14.8266 H         1 DN6         0.0498
     33 H9         -5.3145   55.0335   11.4982 H         1 DN6         0.0504
     34 H10        -0.8250   54.3190   10.8886 H         1 DN6         0.2946
@<TRIPOS>BOND
     1    1    2 1  
     2    2    3 1  
     3    2    4 1  
     4    2    5 1  
     5    5    6 ar 
     6    5    7 ar 
     7    6   10 ar 
     8    7    8 ar 
     9    8    9 ar 
    10    8   11 1  
    11    9   10 ar 
    12   11   12 2  
    13   11   13 am 
    14   13   14 1  
    15   14   15 ar 
    16   14   19 ar 
    17   15   16 ar 
    18   16   17 ar 
    19   17   18 ar 
    20   18   19 ar 
    21   18   20 1  
    22   20   21 2  
    23   20   24 1  
    24   21   22 1  
    25   22   23 1  
    26   23   24 2  
    27    6   25 1  
    28    7   26 1  
    29    9   27 1  
    30   10   28 1  
    31   13   29 1  
    32   15   30 1  
    33   16   31 1  
    34   17   32 1  
    35   19   33 1  
    36   22   34 1  
@<TRIPOS>SUBSTRUCTURE
     1 DN6         1

