### 
### Created by X-TOOL on Mon Sep 10 21:13:08 2018
### 

@<TRIPOS>MOLECULE
4de0_ligand
   34    37     1     0     0
SMALL
GAST_HUCK


@<TRIPOS>ATOM
      1 O14        -9.1470   55.4140   13.7360 O.2       1 0JB        -0.3781
      2 C13        -8.7480   55.4880   12.5700 C.2       1 0JB         0.2267
      3 C15        -9.4750   56.3480   11.5940 C.ar      1 0JB         0.0780
      4 C20        -9.1390   56.3710   10.2410 C.ar      1 0JB         0.1039
      5 N21        -8.2370   55.6640    9.4730 N.pl3     1 0JB        -0.2472
      6 C22        -8.3690   56.1060    8.2130 C.2       1 0JB         0.1045
      7 N23        -9.3720   57.0080    8.1210 N.2       1 0JB        -0.3047
      8 C19        -9.8570   57.2290    9.3730 C.ar      1 0JB         0.0394
      9 C18       -10.8600   58.0700    9.8600 C.ar      1 0JB        -0.0560
     10 C17       -11.1520   58.0240   11.2230 C.ar      1 0JB        -0.0693
     11 C16       -10.4630   57.1860   12.0650 C.ar      1 0JB        -0.0530
     12 N12        -7.6610   54.8670   12.1230 N.am      1 0JB        -0.2349
     13 C8         -6.7920   54.0590   12.8850 C.ar      1 0JB         0.0660
     14 C7         -5.4480   53.9970   12.5080 C.ar      1 0JB        -0.0321
     15 C9         -7.2520   53.3060   13.9800 C.ar      1 0JB        -0.0411
     16 C10        -6.3210   52.5660   14.7040 C.ar      1 0JB        -0.0745
     17 C11        -4.9760   52.5130   14.3840 C.ar      1 0JB        -0.0672
     18 C6         -4.5590   53.2480   13.2730 C.ar      1 0JB        -0.0043
     19 C2         -3.1510   53.2120   12.8680 C.2       1 0JB         0.1452
     20 N3         -2.1460   52.8870   13.6680 N.2       1 0JB        -0.1756
     21 N4         -0.9980   52.9330   12.9520 N.2       1 0JB        -0.0518
     22 N5         -1.2920   53.3310   11.6900 N.pl3     1 0JB        -0.1036
     23 N1         -2.6780   53.4730   11.6370 N.2       1 0JB        -0.1437
     24 H1         -7.5870   54.9365    9.8034 H         1 0JB         0.2358
     25 H2         -7.7513   55.7818    7.3768 H         1 0JB         0.1353
     26 H3        -11.3964   58.7396    9.1974 H         1 0JB         0.0599
     27 H4        -11.9341   58.6589   11.6235 H         1 0JB         0.0539
     28 H5        -10.7011   57.1835   13.1225 H         1 0JB         0.0605
     29 H6         -7.4385   54.9838   11.1551 H         1 0JB         0.2248
     30 H7         -5.1012   54.5271   11.6283 H         1 0JB         0.0503
     31 H8         -8.3012   53.3018   14.2525 H         1 0JB         0.0505
     32 H9         -6.6678   52.0024   15.5626 H         1 0JB         0.0579
     33 H10        -4.2773   51.9269   14.9699 H         1 0JB         0.0497
     34 H11        -0.6245   53.4957   10.9230 H         1 0JB         0.2946
@<TRIPOS>BOND
     1    1    2 2  
     2    2    3 1  
     3    2   12 am 
     4    3    4 ar 
     5    3   11 ar 
     6    4    5 1  
     7    4    8 ar 
     8    5    6 1  
     9    6    7 2  
    10    7    8 1  
    11    8    9 ar 
    12    9   10 ar 
    13   10   11 ar 
    14   12   13 1  
    15   13   14 ar 
    16   13   15 ar 
    17   14   18 ar 
    18   15   16 ar 
    19   16   17 ar 
    20   17   18 ar 
    21   18   19 1  
    22   19   20 1  
    23   19   23 2  
    24   20   21 2  
    25   21   22 1  
    26   22   23 1  
    27    5   24 1  
    28    6   25 1  
    29    9   26 1  
    30   10   27 1  
    31   11   28 1  
    32   12   29 1  
    33   14   30 1  
    34   15   31 1  
    35   16   32 1  
    36   17   33 1  
    37   22   34 1  
@<TRIPOS>SUBSTRUCTURE
     1 0JB         1

