### 
### Created by X-TOOL on Mon Sep 10 21:13:08 2018
### 

@<TRIPOS>MOLECULE
4de1_ligand
   34    37     1     0     0
SMALL
GAST_HUCK


@<TRIPOS>ATOM
      1 O14        -9.2120   55.4320   13.8030 O.2       1 0J6        -0.3730
      2 C13        -8.8880   55.5960   12.6160 C.2       1 0J6         0.2323
      3 C15        -9.6930   56.5100   11.7420 C.ar      1 0J6         0.0570
      4 C20       -10.7160   57.2500   12.3480 C.ar      1 0J6        -0.0265
      5 C19       -11.4270   58.1590   11.5830 C.ar      1 0J6         0.0384
      6 C23       -12.5210   59.0220   11.9410 C.2       1 0J6         0.1104
      7 N22       -12.8350   59.6840   10.8070 N.pl3     1 0J6        -0.2442
      8 N21       -11.9970   59.2600    9.7730 N.2       1 0J6        -0.3319
      9 C18       -11.1310   58.3200   10.2380 C.ar      1 0J6        -0.0092
     10 C17       -10.1190   57.5960    9.6180 C.ar      1 0J6        -0.0531
     11 C16        -9.3780   56.7000   10.3770 C.ar      1 0J6        -0.0414
     12 N12        -7.8040   54.9990   12.1030 N.am      1 0J6        -0.2325
     13 C8         -6.9440   54.1610   12.8240 C.ar      1 0J6         0.0706
     14 C7         -5.6020   54.1490   12.4580 C.ar      1 0J6        -0.0238
     15 C9         -7.4000   53.3290   13.8610 C.ar      1 0J6        -0.0372
     16 C10        -6.4710   52.5690   14.5680 C.ar      1 0J6        -0.0702
     17 C11        -5.1160   52.5580   14.2430 C.ar      1 0J6        -0.0591
     18 C6         -4.7140   53.3440   13.1770 C.ar      1 0J6         0.0268
     19 C2         -3.2930   53.3440   12.8090 C.2       1 0J6         0.1822
     20 N3         -2.8080   53.6280   11.5880 N.pl3     1 0J6        -0.1510
     21 N4         -1.4420   53.4520   11.6620 N.2       1 0J6        -0.0636
     22 N5         -1.1290   53.0620   12.9220 N.2       1 0J6        -0.1383
     23 N1         -2.2780   53.0180   13.6300 N.2       1 0J6        -0.2073
     24 H1        -10.9473   57.1134   13.3982 H         1 0J6         0.0680
     25 H2        -12.9941   59.1202   12.9169 H         1 0J6         0.1370
     26 H3        -13.5776   60.3922   10.7181 H         1 0J6         0.2935
     27 H4         -9.9123   57.7284    8.5622 H         1 0J6         0.0630
     28 H5         -8.5615   56.1486    9.9249 H         1 0J6         0.0669
     29 H6         -7.5944   55.1629   11.1390 H         1 0J6         0.2252
     30 H7         -5.2510   54.7535   11.6295 H         1 0J6         0.0543
     31 H8         -8.4548   53.2797   14.1060 H         1 0J6         0.0536
     32 H9         -6.8142   51.9650   15.4001 H         1 0J6         0.0588
     33 H10        -4.4063   51.9588   14.8018 H         1 0J6         0.0535
     34 H11        -3.3490   53.9192   10.7613 H         1 0J6         0.2708
@<TRIPOS>BOND
     1    1    2 2  
     2    2    3 1  
     3    2   12 am 
     4    3    4 ar 
     5    3   11 ar 
     6    4    5 ar 
     7    5    6 2  
     8    5    9 ar 
     9    6    7 1  
    10    7    8 1  
    11    8    9 2  
    12    9   10 ar 
    13   10   11 ar 
    14   12   13 1  
    15   13   14 ar 
    16   13   15 ar 
    17   14   18 ar 
    18   15   16 ar 
    19   16   17 ar 
    20   17   18 ar 
    21   18   19 1  
    22   19   20 1  
    23   19   23 2  
    24   20   21 1  
    25   21   22 2  
    26   22   23 1  
    27    4   24 1  
    28    6   25 1  
    29    7   26 1  
    30   10   27 1  
    31   11   28 1  
    32   12   29 1  
    33   14   30 1  
    34   15   31 1  
    35   16   32 1  
    36   17   33 1  
    37   20   34 1  
@<TRIPOS>SUBSTRUCTURE
     1 0J6         1

