### 
### Created by X-TOOL on Mon Sep 10 21:13:08 2018
### 

@<TRIPOS>MOLECULE
4de2_ligand
   43    45     1     0     0
SMALL
GAST_HUCK


@<TRIPOS>ATOM
      1 O14        -9.2570   55.8220   13.5960 O.2       1 DN3        -0.3730
      2 C13        -8.8590   55.9810   12.4460 C.2       1 DN3         0.2307
      3 C15        -9.6340   56.8840   11.5140 C.ar      1 DN3         0.0495
      4 C16        -9.2810   56.9990   10.1710 C.ar      1 DN3        -0.0484
      5 C17        -9.9640   57.9060    9.3610 C.ar      1 DN3        -0.0627
      6 C18       -11.0130   58.6660    9.8650 C.ar      1 DN3        -0.0510
      7 C19       -11.2930   58.6230   11.2310 C.ar      1 DN3         0.0068
      8 C21       -12.4100   59.4660   11.8250 C.3       1 DN3         0.0024
      9 N22       -13.6880   58.9840   11.2650 N.4       1 DN3         0.2429
     10 C23       -13.9840   57.6630   11.8460 C.3       1 DN3        -0.0419
     11 C24       -14.7930   59.9020   11.5810 C.3       1 DN3        -0.0419
     12 C20       -10.6200   57.7150   12.0380 C.ar      1 DN3        -0.0351
     13 N12        -7.7600   55.3740   11.9800 N.am      1 DN3        -0.2334
     14 C10        -6.9040   54.5610   12.7580 C.ar      1 DN3         0.0663
     15 C11        -5.5580   54.5190   12.4080 C.ar      1 DN3        -0.0321
     16 C6         -4.6570   53.7620   13.1500 C.ar      1 DN3        -0.0043
     17 C7         -5.0900   53.0350   14.2540 C.ar      1 DN3        -0.0672
     18 C8         -6.4250   53.0920   14.6240 C.ar      1 DN3        -0.0745
     19 C9         -7.3410   53.8320   13.8640 C.ar      1 DN3        -0.0410
     20 C2         -3.2280   53.7180   12.7620 C.2       1 DN3         0.1452
     21 N1         -2.7510   53.9830   11.5290 N.2       1 DN3        -0.1437
     22 N5         -1.3720   53.8130   11.5380 N.pl3     1 DN3        -0.1036
     23 N4         -1.0230   53.4450   12.8380 N.2       1 DN3        -0.0518
     24 N3         -2.2040   53.3760   13.5800 N.2       1 DN3        -0.1756
     25 H1         -8.4840   56.3900    9.7601 H         1 DN3         0.0611
     26 H2         -9.6725   58.0199    8.3232 H         1 DN3         0.0611
     27 H3        -11.6074   59.2857    9.2034 H         1 DN3         0.0594
     28 H4        -12.2613   60.5234   11.5609 H         1 DN3         0.0980
     29 H5        -12.4175   59.3590   12.9197 H         1 DN3         0.0980
     30 H6        -13.6019   58.9034   10.2639 H         1 DN3         0.2042
     31 H7        -14.9347   57.2881   11.4390 H         1 DN3         0.0778
     32 H8        -14.0633   57.7528   12.9394 H         1 DN3         0.0778
     33 H9        -13.1751   56.9617   11.5933 H         1 DN3         0.0778
     34 H10       -14.5814   60.8922   11.1511 H         1 DN3         0.0778
     35 H11       -14.8954   59.9905   12.6726 H         1 DN3         0.0778
     36 H12       -15.7285   59.5099   11.1555 H         1 DN3         0.0778
     37 H13       -10.8663   57.6525   13.0918 H         1 DN3         0.0609
     38 H14        -7.5290   55.5047   11.0159 H         1 DN3         0.2251
     39 H15        -5.2083   55.0811   11.5496 H         1 DN3         0.0504
     40 H16        -4.3906   52.4299   14.8195 H         1 DN3         0.0498
     41 H17        -6.7624   52.5609   15.5067 H         1 DN3         0.0579
     42 H18        -8.3903   53.8378   14.1360 H         1 DN3         0.0505
     43 H19        -0.7319   53.9349   10.7403 H         1 DN3         0.2946
@<TRIPOS>BOND
     1    1    2 2  
     2    2    3 1  
     3    2   13 am 
     4    3    4 ar 
     5    3   12 ar 
     6    4    5 ar 
     7    5    6 ar 
     8    6    7 ar 
     9    7    8 1  
    10    7   12 ar 
    11    8    9 1  
    12    9   10 1  
    13    9   11 1  
    14   13   14 1  
    15   14   15 ar 
    16   14   19 ar 
    17   15   16 ar 
    18   16   17 ar 
    19   16   20 1  
    20   17   18 ar 
    21   18   19 ar 
    22   20   21 2  
    23   20   24 1  
    24   21   22 1  
    25   22   23 1  
    26   23   24 2  
    27    4   25 1  
    28    5   26 1  
    29    6   27 1  
    30    8   28 1  
    31    8   29 1  
    32    9   30 1  
    33   10   31 1  
    34   10   32 1  
    35   10   33 1  
    36   11   34 1  
    37   11   35 1  
    38   11   36 1  
    39   12   37 1  
    40   13   38 1  
    41   15   39 1  
    42   17   40 1  
    43   18   41 1  
    44   19   42 1  
    45   22   43 1  
@<TRIPOS>SUBSTRUCTURE
     1 DN3         1

