### 
### Created by X-TOOL on Mon Sep 10 21:13:12 2018
### 

@<TRIPOS>MOLECULE
4de5_ligand
   20    21     1     0     0
SMALL
GAST_HUCK


@<TRIPOS>ATOM
      1 OAA        15.2280   12.9710    3.6940 O.co2     1 0JD        -0.5660
      2 CAJ        15.3800   11.8060    3.3390 C.2       1 0JD         0.0708
      3 OAB        15.8230   11.4450    2.2320 O.co2     1 0JD        -0.5660
      4 CAM        15.0580   10.7040    4.3430 C.3       1 0JD         0.1576
      5 OAI        14.2590   11.1700    5.4440 O.3       1 0JD        -0.3018
      6 CAL        14.0760   10.1990    6.3820 C.ar      1 0JD         0.1225
      7 CAF        13.8250   10.5260    7.7170 C.ar      1 0JD        -0.0413
      8 CAD        13.6270    9.5360    8.6710 C.ar      1 0JD        -0.0819
      9 CAC        13.6890    8.2210    8.2310 C.ar      1 0JD        -0.0819
     10 CAE        13.9110    7.8690    6.9060 C.ar      1 0JD        -0.0414
     11 CAK        14.1070    8.8650    5.9650 C.ar      1 0JD         0.1202
     12 OAH        14.3430    8.5640    4.6360 O.3       1 0JD        -0.3171
     13 CAG        14.2560    9.6310    3.7000 C.3       1 0JD         0.1097
     14 H1         16.0035   10.2903    4.7236 H         1 0JD         0.0844
     15 H2         13.7842   11.5681    8.0127 H         1 0JD         0.0509
     16 H3         13.4333    9.7788    9.7096 H         1 0JD         0.0495
     17 H4         13.5574    7.4284    8.9587 H         1 0JD         0.0495
     18 H5         13.9306    6.8258    6.6120 H         1 0JD         0.0509
     19 H6         14.6869    9.3424    2.7300 H         1 0JD         0.0658
     20 H7         13.2124    9.9483    3.5578 H         1 0JD         0.0658
@<TRIPOS>BOND
     1    1    2 ar 
     2    2    3 ar 
     3    2    4 1  
     4    4    5 1  
     5    4   13 1  
     6    5    6 1  
     7    6    7 ar 
     8    6   11 ar 
     9    7    8 ar 
    10    8    9 ar 
    11    9   10 ar 
    12   10   11 ar 
    13   11   12 1  
    14   12   13 1  
    15    4   14 1  
    16    7   15 1  
    17    8   16 1  
    18    9   17 1  
    19   10   18 1  
    20   13   19 1  
    21   13   20 1  
@<TRIPOS>SUBSTRUCTURE
     1 0JD         1

