### 
### Created by X-TOOL on Mon Sep 10 21:13:11 2018
### 

@<TRIPOS>MOLECULE
4de7_ligand
   28    29     1     0     0
SMALL
GAST_HUCK


@<TRIPOS>ATOM
      1 N1         14.9640  -13.4290   23.5530 N.am      1 UDP        -0.1592
      2 C2         15.6200  -14.4670   24.1900 C.2       1 UDP         0.3328
      3 N3         14.8950  -15.4770   24.7910 N.am      1 UDP        -0.1865
      4 C4         13.5170  -15.4470   24.7600 C.2       1 UDP         0.1822
      5 C5         12.8680  -14.3960   24.1220 C.2       1 UDP         0.0062
      6 C6         13.6120  -13.3010   23.6970 C.2       1 UDP         0.0591
      7 O2         16.8490  -14.4970   24.2210 O.2       1 UDP        -0.3815
      8 O4         12.8710  -16.3470   25.2940 O.2       1 UDP        -0.4124
      9 C1'        15.7410  -12.3440   22.9220 C.3       1 UDP         0.2058
     10 C2'        15.7950  -12.4810   21.4080 C.3       1 UDP         0.1386
     11 O2'        17.1330  -12.4330   20.9810 O.3       1 UDP        -0.3836
     12 C3'        15.0710  -11.2720   20.8590 C.3       1 UDP         0.1121
     13 C4'        14.8200  -10.3690   22.0540 C.3       1 UDP         0.0878
     14 O4'        15.1290  -11.1040   23.2210 O.3       1 UDP        -0.3392
     15 O3'        15.9220  -10.5990   19.9610 O.3       1 UDP        -0.3865
     16 C5'        13.3780   -9.8770   22.1070 C.3       1 UDP        -0.0360
     17 H1         15.3691  -16.2295   25.2483 H         1 UDP         0.2259
     18 H2         11.7920  -14.4299   23.9574 H         1 UDP         0.0258
     19 H3         13.1224  -12.3524   23.4815 H         1 UDP         0.1178
     20 H4         16.7653  -12.3599   23.3225 H         1 UDP         0.0997
     21 H5         15.3180  -13.4156   21.0780 H         1 UDP         0.0676
     22 H6         17.5168  -11.6030   21.2384 H         1 UDP         0.2101
     23 H7         14.1302  -11.5577   20.3657 H         1 UDP         0.0647
     24 H8         15.4843   -9.4948   21.9875 H         1 UDP         0.0621
     25 H9         16.7432  -10.3984   20.3946 H         1 UDP         0.2100
     26 H10        13.2438   -9.2290   22.9856 H         1 UDP         0.0255
     27 H11        12.6988  -10.7392   22.1802 H         1 UDP         0.0255
     28 H12        13.1509   -9.3078   21.1935 H         1 UDP         0.0255
@<TRIPOS>BOND
     1    1    2 am 
     2    1    6 1  
     3    1    9 1  
     4    2    3 am 
     5    2    7 2  
     6    3    4 am 
     7    4    5 1  
     8    4    8 2  
     9    5    6 2  
    10    9   10 1  
    11    9   14 1  
    12   10   11 1  
    13   10   12 1  
    14   12   13 1  
    15   12   15 1  
    16   13   14 1  
    17   13   16 1  
    18    3   17 1  
    19    5   18 1  
    20    6   19 1  
    21    9   20 1  
    22   10   21 1  
    23   11   22 1  
    24   12   23 1  
    25   13   24 1  
    26   15   25 1  
    27   16   26 1  
    28   16   27 1  
    29   16   28 1  
@<TRIPOS>SUBSTRUCTURE
     1 UDP         1

