### 
### Created by X-TOOL on Mon Sep 10 21:13:11 2018
### 

@<TRIPOS>MOLECULE
4dea_ligand
   38    40     1     0     0
SMALL
GAST_HUCK


@<TRIPOS>ATOM
      1 C01        -6.9390  -29.5820    1.1840 C.2       1 NHI         0.0553
      2 N01        -3.1330  -33.1080    6.9960 N.pl3     1 NHI        -0.2427
      3 O01        -5.9230  -29.6110    0.1760 O.co2     1 NHI        -0.5638
      4 N02        -4.3330  -31.1150    6.7660 N.ar      1 NHI        -0.2339
      5 O02        -8.1120  -29.6800    0.8740 O.co2     1 NHI        -0.5638
      6 N03        -3.6480  -31.9870    8.9050 N.ar      1 NHI        -0.2684
      7 N04        -5.5280  -29.1120    6.7070 N.pl3     1 NHI        -0.2542
      8 C05        -3.0710  -33.0350    3.2810 C.ar      1 NHI        -0.0571
      9 C06        -1.9160  -33.8280    3.0360 C.ar      1 NHI        -0.0016
     10 C07        -1.1890  -34.3720    4.1520 C.ar      1 NHI        -0.0571
     11 C08        -1.6160  -34.1120    5.4860 C.ar      1 NHI        -0.0343
     12 C09        -2.7680  -33.3140    5.7400 C.ar      1 NHI         0.0684
     13 C10        -3.4890  -32.7870    4.6110 C.ar      1 NHI        -0.0343
     14 C11        -1.4980  -34.0640    1.7410 C.2       1 NHI         0.0553
     15 C12        -3.7120  -32.0550    7.5420 C.ar      1 NHI         0.1962
     16 C13        -4.9180  -30.0440    7.4050 C.ar      1 NHI         0.1350
     17 C14        -4.8950  -29.8910    8.7940 C.ar      1 NHI        -0.0013
     18 C15        -4.2400  -30.9050    9.5000 C.ar      1 NHI         0.0015
     19 C16        -5.8360  -29.2110    5.4380 C.ar      1 NHI         0.0671
     20 C17        -7.2010  -29.1900    5.0300 C.ar      1 NHI        -0.0344
     21 C18        -7.5430  -29.3070    3.6520 C.ar      1 NHI        -0.0571
     22 C19        -6.5170  -29.4460    2.6710 C.ar      1 NHI        -0.0016
     23 C20        -5.1610  -29.4610    3.0720 C.ar      1 NHI        -0.0571
     24 C21        -4.8190  -29.3430    4.4380 C.ar      1 NHI        -0.0344
     25 O25        -2.2840  -34.0780    0.8180 O.co2     1 NHI        -0.5638
     26 O26        -0.2130  -34.2620    1.4840 O.co2     1 NHI        -0.5638
     27 H1         -2.9358  -33.8848    7.6430 H         1 NHI         0.2187
     28 H2         -5.7822  -28.2405    7.1935 H         1 NHI         0.2171
     29 H3         -3.6308  -32.6208    2.4503 H         1 NHI         0.0622
     30 H4         -0.3111  -34.9833    3.9767 H         1 NHI         0.0622
     31 H5         -1.0575  -34.5264    6.3175 H         1 NHI         0.0545
     32 H6         -4.3740  -32.1853    4.7833 H         1 NHI         0.0545
     33 H7         -5.3538  -29.0436    9.2905 H         1 NHI         0.0586
     34 H8         -4.1985  -30.8302   10.5806 H         1 NHI         0.0849
     35 H9         -7.9838  -29.0844    5.7724 H         1 NHI         0.0545
     36 H10        -8.5836  -29.2904    3.3489 H         1 NHI         0.0622
     37 H11        -4.3798  -29.5636    2.3276 H         1 NHI         0.0622
     38 H12        -3.7757  -29.3525    4.7323 H         1 NHI         0.0545
@<TRIPOS>BOND
     1    1    3 ar 
     2    1    5 ar 
     3   22    1 1  
     4    2   12 1  
     5   15    2 1  
     6    4   15 ar 
     7   16    4 ar 
     8   15    6 ar 
     9   18    6 ar 
    10    7   16 1  
    11   19    7 1  
    12    8    9 ar 
    13   13    8 ar 
    14   10    9 ar 
    15    9   14 1  
    16   11   10 ar 
    17   12   11 ar 
    18   12   13 ar 
    19   14   25 ar 
    20   14   26 ar 
    21   16   17 ar 
    22   17   18 ar 
    23   20   19 ar 
    24   19   24 ar 
    25   21   20 ar 
    26   21   22 ar 
    27   22   23 ar 
    28   23   24 ar 
    29    2   27 1  
    30    7   28 1  
    31    8   29 1  
    32   10   30 1  
    33   11   31 1  
    34   13   32 1  
    35   17   33 1  
    36   18   34 1  
    37   20   35 1  
    38   21   36 1  
    39   23   37 1  
    40   24   38 1  
@<TRIPOS>SUBSTRUCTURE
     1 NHI         1

