### 
### Created by X-TOOL on Mon Sep 10 21:13:11 2018
### 

@<TRIPOS>MOLECULE
4deb_ligand
   41    43     1     0     0
SMALL
GAST_HUCK


@<TRIPOS>ATOM
      1 N01        -2.8300  -32.8940    6.7300 N.pl3     1 NHJ        -0.2416
      2 N02        -3.8160  -30.8470    6.3360 N.ar      1 NHJ        -0.2341
      3 N03        -3.6850  -31.8290    8.5330 N.ar      1 NHJ        -0.2684
      4 N04        -4.8000  -28.8050    6.0810 N.pl3     1 NHJ        -0.2503
      5 N05        -1.8240  -33.6930    0.4960 N.am      1 NHJ        -0.3018
      6 C06        -1.4210  -34.0600    5.2980 C.ar      1 NHJ        -0.0321
      7 C07        -1.0090  -34.4330    4.0010 C.ar      1 NHJ        -0.0514
      8 C08        -1.6730  -33.9280    2.8640 C.ar      1 NHJ         0.0376
      9 C09        -2.7600  -33.0370    3.0450 C.ar      1 NHJ        -0.0514
     10 C10        -3.1710  -32.6670    4.3460 C.ar      1 NHJ        -0.0321
     11 C11        -2.4980  -33.1790    5.4940 C.ar      1 NHJ         0.0705
     12 C12        -3.4500  -31.8440    7.1890 C.ar      1 NHJ         0.1966
     13 C13        -4.4610  -29.7690    6.8760 C.ar      1 NHJ         0.1346
     14 C14        -4.7530  -29.6500    8.2440 C.ar      1 NHJ        -0.0015
     15 C15        -4.3340  -30.7270    9.0260 C.ar      1 NHJ         0.0015
     16 C16        -5.7620  -28.8360    5.2290 C.ar      1 NHJ         0.0934
     17 C17        -5.5480  -29.2580    3.8700 C.ar      1 NHJ        -0.0086
     18 C18        -6.6370  -29.2670    2.9430 C.ar      1 NHJ        -0.0398
     19 C19        -7.9390  -28.8510    3.3700 C.ar      1 NHJ        -0.0417
     20 C20        -8.1420  -28.4260    4.7340 C.ar      1 NHJ         0.0378
     21 C21        -7.0500  -28.4260    5.6430 C.ar      1 NHJ        -0.0089
     22 C22        -9.4970  -27.9630    5.2470 C.3       1 NHJ         0.3738
     23 C23        -1.2760  -34.2990    1.5980 C.2       1 NHJ         0.1938
     24 O24        -0.4490  -35.1850    1.4340 O.2       1 NHJ        -0.3904
     25 F25        -9.3080  -26.8420    6.0810 F         1 NHJ        -0.2206
     26 F26       -10.3290  -27.5920    4.1840 F         1 NHJ        -0.2206
     27 F27       -10.1030  -28.9950    5.9780 F         1 NHJ        -0.2206
     28 H          -2.5668  -33.5897    7.4279 H         1 NHJ         0.2194
     29 H          -4.2553  -27.9444    6.1356 H         1 NHJ         0.2164
     30 H          -1.5402  -33.9834   -0.4397 H         1 NHJ         0.1805
     31 H          -2.5153  -32.9521    0.6123 H         1 NHJ         0.1805
     32 H          -0.8944  -34.4625    6.1633 H         1 NHJ         0.0550
     33 H          -0.1700  -35.1176    3.8768 H         1 NHJ         0.0640
     34 H          -3.2819  -32.6349    2.1766 H         1 NHJ         0.0640
     35 H          -4.0106  -31.9836    4.4728 H         1 NHJ         0.0550
     36 H          -5.2666  -28.7844    8.6624 H         1 NHJ         0.0585
     37 H          -4.5355  -30.6896   10.0966 H         1 NHJ         0.0849
     38 H          -4.5552  -29.5710    3.5469 H         1 NHJ         0.0789
     39 H          -6.4764  -29.5896    1.9143 H         1 NHJ         0.0673
     40 H          -8.7728  -28.8554    2.6680 H         1 NHJ         0.0768
     41 H          -7.2074  -28.1057    6.6729 H         1 NHJ         0.0752
@<TRIPOS>BOND
     1   11    1 1  
     2    1   12 1  
     3   12    2 ar 
     4    2   13 ar 
     5   12    3 ar 
     6    3   15 ar 
     7   13    4 1  
     8    4   16 1  
     9   23    5 am 
    10    7    6 ar 
    11    6   11 ar 
    12    8    7 ar 
    13    8    9 ar 
    14    8   23 1  
    15    9   10 ar 
    16   10   11 ar 
    17   13   14 ar 
    18   14   15 ar 
    19   16   17 ar 
    20   16   21 ar 
    21   17   18 ar 
    22   18   19 ar 
    23   19   20 ar 
    24   20   21 ar 
    25   20   22 1  
    26   22   25 1  
    27   22   26 1  
    28   22   27 1  
    29   23   24 2  
    30    1   28 1  
    31    4   29 1  
    32    5   30 1  
    33    5   31 1  
    34    6   32 1  
    35    7   33 1  
    36    9   34 1  
    37   10   35 1  
    38   14   36 1  
    39   15   37 1  
    40   17   38 1  
    41   18   39 1  
    42   19   40 1  
    43   21   41 1  
@<TRIPOS>SUBSTRUCTURE
     1 NHJ         1

