### 
### Created by X-TOOL on Mon Sep 10 21:13:11 2018
### 

@<TRIPOS>MOLECULE
4ded_ligand
   42    44     1     0     0
SMALL
GAST_HUCK


@<TRIPOS>ATOM
      1 N01        -3.0620  -32.8350    6.8240 N.pl3     1 NHU        -0.2415
      2 N02        -3.7940  -30.6670    6.5190 N.ar      1 NHU        -0.2335
      3 N03        -3.4210  -31.6380    8.6900 N.ar      1 NHU        -0.2681
      4 N04        -4.5370  -28.4380    6.4130 N.pl3     1 NHU        -0.2514
      5 C05        -0.7470  -34.0730    4.2970 C.ar      1 NHU        -0.0514
      6 N05        -7.2560  -25.7670    5.7640 N.am      1 NHU        -0.3021
      7 C06        -1.3420  -33.5730    3.0920 C.ar      1 NHU         0.0376
      8 N06        -0.6230  -32.7370    0.8990 N.am      1 NHU        -0.3018
      9 C07        -2.5330  -32.8090    3.1730 C.ar      1 NHU        -0.0514
     10 C08        -3.1240  -32.5500    4.4390 C.ar      1 NHU        -0.0321
     11 C09        -2.5310  -33.0470    5.6490 C.ar      1 NHU         0.0705
     12 C10        -1.3400  -33.8110    5.5630 C.ar      1 NHU        -0.0321
     13 C11        -0.7710  -33.8240    1.8670 C.2       1 NHU         0.1938
     14 C12        -3.4270  -31.6990    7.3370 C.ar      1 NHU         0.1969
     15 C13        -4.1810  -29.4860    7.1310 C.ar      1 NHU         0.1360
     16 C14        -4.2060  -29.3330    8.5200 C.ar      1 NHU        -0.0010
     17 C15        -3.8120  -30.4540    9.2480 C.ar      1 NHU         0.0017
     18 C16        -4.9690  -28.4320    5.1660 C.ar      1 NHU         0.0851
     19 C17        -4.1990  -29.0240    4.1030 C.ar      1 NHU        -0.0320
     20 C18        -4.6680  -29.0110    2.7620 C.ar      1 NHU        -0.0669
     21 C19        -5.9100  -28.4050    2.4500 C.ar      1 NHU        -0.0675
     22 C20        -6.6930  -27.8060    3.4780 C.ar      1 NHU        -0.0512
     23 C21        -6.2430  -27.8090    4.8380 C.ar      1 NHU         0.0727
     24 C22        -7.0280  -27.2160    5.8010 C.2       1 NHU         0.1959
     25 O23        -7.5470  -27.8770    6.6760 O.2       1 NHU        -0.3914
     26 O25        -0.3850  -34.9370    1.5690 O.2       1 NHU        -0.3904
     27 H          -3.2070  -33.6591    7.4073 H         1 NHU         0.2194
     28 H          -4.4709  -27.5303    6.8735 H         1 NHU         0.2184
     29 H           0.1697  -34.6602    4.2422 H         1 NHU         0.0640
     30 H          -7.8458  -25.3254    6.4693 H         1 NHU         0.1804
     31 H          -6.8247  -25.2014    5.0329 H         1 NHU         0.1804
     32 H          -0.2006  -32.9189   -0.0114 H         1 NHU         0.1805
     33 H          -0.9422  -31.7973    1.1346 H         1 NHU         0.1805
     34 H          -2.9950  -32.4206    2.2654 H         1 NHU         0.0640
     35 H          -4.0420  -31.9648    4.4927 H         1 NHU         0.0550
     36 H          -0.8770  -34.1990    6.4703 H         1 NHU         0.0550
     37 H          -4.5119  -28.4032    8.9996 H         1 NHU         0.0588
     38 H          -3.8161  -30.3812   10.3356 H         1 NHU         0.0850
     39 H          -3.2403  -29.4899    4.3310 H         1 NHU         0.0550
     40 H          -4.0716  -29.4678    1.9723 H         1 NHU         0.0623
     41 H          -6.2674  -28.3971    1.4203 H         1 NHU         0.0533
     42 H          -7.6458  -27.3399    3.2269 H         1 NHU         0.0639
@<TRIPOS>BOND
     1    1   11 1  
     2   14    1 1  
     3    2   14 ar 
     4   15    2 ar 
     5   14    3 ar 
     6   17    3 ar 
     7    4   15 1  
     8   18    4 1  
     9    5    7 ar 
    10   12    5 ar 
    11   24    6 am 
    12    9    7 ar 
    13    7   13 1  
    14   13    8 am 
    15   10    9 ar 
    16   11   10 ar 
    17   11   12 ar 
    18   13   26 2  
    19   15   16 ar 
    20   16   17 ar 
    21   18   19 ar 
    22   23   18 ar 
    23   19   20 ar 
    24   21   20 ar 
    25   22   21 ar 
    26   23   22 ar 
    27   23   24 1  
    28   24   25 2  
    29    1   27 1  
    30    4   28 1  
    31    5   29 1  
    32    6   30 1  
    33    6   31 1  
    34    8   32 1  
    35    8   33 1  
    36    9   34 1  
    37   10   35 1  
    38   12   36 1  
    39   16   37 1  
    40   17   38 1  
    41   19   39 1  
    42   20   40 1  
    43   21   41 1  
    44   22   42 1  
@<TRIPOS>SUBSTRUCTURE
     1 NHU         1

