### 
### Created by X-TOOL on Mon Sep 10 21:13:11 2018
### 

@<TRIPOS>MOLECULE
4deg_ligand
   45    49     1     0     0
SMALL
GAST_HUCK


@<TRIPOS>ATOM
      1 C7         14.0840   11.3520   60.3370 C.3       1 0JJ        -0.0127
      2 C5         15.3310   11.3790   59.4520 C.2       1 0JJ         0.0145
      3 C6         16.0790   12.4930   59.3000 C.2       1 0JJ        -0.0129
      4 N2         15.7410   10.2850   58.7950 N.2       1 0JJ        -0.2817
      5 S1         17.1070   10.7170   57.9590 S.3       1 0JJ         0.0015
      6 C4         17.1360   12.3230   58.4940 C.2       1 0JJ         0.0826
      7 C3         18.1040   13.2370   58.0870 C.2       1 0JJ         0.1255
      8 C1         18.1340   14.5230   58.6330 C.2       1 0JJ        -0.0120
      9 C2         19.1030   15.4120   58.1880 C.2       1 0JJ         0.0074
     10 N1         18.9980   12.8780   57.1400 N.2       1 0JJ        -0.1177
     11 N3         19.8710   13.6580   56.7320 N.pl3     1 0JJ        -0.0914
     12 C8         19.9880   14.9600   57.2140 C.2       1 0JJ         0.1811
     13 N4         21.0150   15.5230   56.5780 N.2       1 0JJ        -0.2771
     14 N5         21.5370   14.7360   55.7710 N.2       1 0JJ        -0.2650
     15 C9         20.8970   13.5640   55.7960 C.2       1 0JJ         0.1960
     16 C10        21.1820   12.2970   54.9790 C.3       1 0JJ         0.1123
     17 N6         21.1230   11.0950   55.8350 N.pl3     1 0JJ        -0.2901
     18 C11        22.1260   10.7110   56.6400 C.ar      1 0JJ         0.0851
     19 C12        23.3650   11.3590   56.6590 C.ar      1 0JJ        -0.0154
     20 C13        24.3600   10.9030   57.5270 C.ar      1 0JJ        -0.0098
     21 N7         24.1480    9.8630   58.3260 N.ar      1 0JJ        -0.3189
     22 C15        22.9710    9.2100   58.3310 C.ar      1 0JJ         0.0458
     23 C16        22.7660    8.1230   59.1830 C.ar      1 0JJ        -0.0009
     24 C14        21.9360    9.6240   57.4880 C.ar      1 0JJ         0.0899
     25 N8         20.7580    8.9810   57.4960 N.ar      1 0JJ        -0.2889
     26 C18        20.5420    7.9440   58.2950 C.ar      1 0JJ         0.0474
     27 C17        21.5290    7.4750   59.1650 C.ar      1 0JJ         0.1230
     28 O1         21.2300    6.3920   59.9540 O.3       1 0JJ        -0.3118
     29 C19        22.0430    6.1810   61.1190 C.3       1 0JJ         0.0617
     30 H1         13.9270   12.3467   60.7797 H         1 0JJ         0.0448
     31 H2         14.2193   10.6111   61.1387 H         1 0JJ         0.0448
     32 H3         13.2088   11.0789   59.7292 H         1 0JJ         0.0448
     33 H4         15.8455   13.4392   59.7860 H         1 0JJ         0.0536
     34 H5         17.4122   14.8216   59.3918 H         1 0JJ         0.0728
     35 H6         19.1680   16.4237   58.5857 H         1 0JJ         0.0746
     36 H7         22.1849   12.3733   54.5337 H         1 0JJ         0.0761
     37 H8         20.4317   12.2073   54.1796 H         1 0JJ         0.0761
     38 H9         20.2677   10.5215   55.8131 H         1 0JJ         0.1886
     39 H10        23.5512   12.2053   56.0077 H         1 0JJ         0.0546
     40 H11        25.3202   11.4056   57.5490 H         1 0JJ         0.0814
     41 H12        23.5540    7.7876   59.8475 H         1 0JJ         0.0633
     42 H13        19.5776    7.4495   58.2721 H         1 0JJ         0.0827
     43 H14        21.6932    5.2851   61.6528 H         1 0JJ         0.0581
     44 H15        21.9678    7.0555   61.7820 H         1 0JJ         0.0581
     45 H16        23.0907    6.0407   60.8145 H         1 0JJ         0.0581
@<TRIPOS>BOND
     1    1    2 1  
     2    2    3 1  
     3    2    4 2  
     4    3    6 2  
     5    4    5 1  
     6    5    6 1  
     7    6    7 1  
     8    7    8 1  
     9    7   10 2  
    10    8    9 2  
    11    9   12 1  
    12   10   11 1  
    13   11   12 1  
    14   11   15 1  
    15   12   13 2  
    16   13   14 1  
    17   14   15 2  
    18   15   16 1  
    19   16   17 1  
    20   17   18 1  
    21   18   19 ar 
    22   18   24 ar 
    23   19   20 ar 
    24   20   21 ar 
    25   21   22 ar 
    26   22   23 ar 
    27   22   24 ar 
    28   23   27 ar 
    29   24   25 ar 
    30   25   26 ar 
    31   26   27 ar 
    32   27   28 1  
    33   28   29 1  
    34    1   30 1  
    35    1   31 1  
    36    1   32 1  
    37    3   33 1  
    38    8   34 1  
    39    9   35 1  
    40   16   36 1  
    41   16   37 1  
    42   17   38 1  
    43   19   39 1  
    44   20   40 1  
    45   23   41 1  
    46   26   42 1  
    47   29   43 1  
    48   29   44 1  
    49   29   45 1  
@<TRIPOS>SUBSTRUCTURE
     1 0JJ         1

