### 
### Created by X-TOOL on Mon Sep 10 21:13:11 2018
### 

@<TRIPOS>MOLECULE
4deh_ligand
   44    48     1     0     0
SMALL
GAST_HUCK


@<TRIPOS>ATOM
      1 C18        21.0440    9.7350   56.7690 C.ar      1 0JK        -0.0439
      2 C17        21.7510    8.8790   57.6030 C.ar      1 0JK        -0.0006
      3 C21        21.2070    7.6500   57.9670 C.ar      1 0JK        -0.0381
      4 C20        21.9340    6.8190   58.8130 C.ar      1 0JK        -0.0341
      5 C19        23.1820    7.2300   59.2630 C.ar      1 0JK         0.0084
      6 N5         23.6800    8.4120   58.8940 N.ar      1 0JK        -0.2983
      7 C16        23.0120    9.2400   58.0830 C.ar      1 0JK         0.0424
      8 C15        23.5730   10.4670   57.7300 C.ar      1 0JK        -0.0417
      9 C14        22.8650   11.3230   56.8830 C.ar      1 0JK        -0.0484
     10 C13        21.6000   10.9620   56.4080 C.ar      1 0JK        -0.0040
     11 C12        20.8220   11.8950   55.4710 C.3       1 0JK         0.1118
     12 N4         20.4710   13.1480   56.1550 N.pl3     1 0JK        -0.1500
     13 C10        19.5040   13.2720   57.0580 C.2       1 0JK         0.1871
     14 C11        18.5540   12.4340   57.6540 C.2       1 0JK         0.2559
     15 O1         18.3090   11.3240   57.1760 O.2       1 0JK        -0.3775
     16 N3         21.0320   14.2370   55.9620 N.2       1 0JK        -0.0883
     17 N2         20.5330   15.1320   56.6620 N.2       1 0JK        -0.2121
     18 C9         19.5520   14.6100   57.3960 C.2       1 0JK         0.0662
     19 C8         18.6580   15.0920   58.3480 C.3       1 0JK         0.0140
     20 C7         18.1640   14.2600   59.3540 C.3       1 0JK         0.0633
     21 N1         17.8420   12.9030   58.7960 N.am      1 0JK        -0.2175
     22 C4         16.8420   12.0920   59.4020 C.ar      1 0JK         0.0686
     23 C3         17.1040   10.7640   59.7290 C.ar      1 0JK        -0.0411
     24 C2         16.1150    9.9720   60.3110 C.ar      1 0JK        -0.0755
     25 C1         14.8510   10.5010   60.5860 C.ar      1 0JK        -0.0772
     26 C6         14.5820   11.8310   60.2620 C.ar      1 0JK        -0.0755
     27 C5         15.5760   12.6190   59.6760 C.ar      1 0JK        -0.0411
     28 H1         20.0649    9.4510   56.4004 H         1 0JK         0.0563
     29 H2         20.2342    7.3462   57.5976 H         1 0JK         0.0752
     30 H3         21.5305    5.8602   59.1180 H         1 0JK         0.0687
     31 H4         23.7561    6.5857   59.9191 H         1 0JK         0.0846
     32 H5         24.5475   10.7533   58.1086 H         1 0JK         0.0640
     33 H6         23.2987   12.2729   56.5921 H         1 0JK         0.0622
     34 H7         19.8999   11.3916   55.1450 H         1 0JK         0.0818
     35 H8         21.4440   12.1253   54.5934 H         1 0JK         0.0818
     36 H9         17.7843   15.4677   57.7953 H         1 0JK         0.0433
     37 H10        19.1603   15.9300   58.8533 H         1 0JK         0.0433
     38 H11        17.2510   14.7045   59.7770 H         1 0JK         0.0606
     39 H12        18.9219   14.1569   60.1445 H         1 0JK         0.0606
     40 H13        18.0830   10.3433   59.5298 H         1 0JK         0.0502
     41 H14        16.3284    8.9370   60.5523 H         1 0JK         0.0577
     42 H15        14.0875    9.8843   61.0463 H         1 0JK         0.0488
     43 H16        13.6039   12.2522   60.4644 H         1 0JK         0.0577
     44 H17        15.3628   13.6531   59.4304 H         1 0JK         0.0502
@<TRIPOS>BOND
     1    1    2 ar 
     2    1   10 ar 
     3    2    3 ar 
     4    2    7 ar 
     5    3    4 ar 
     6    4    5 ar 
     7    5    6 ar 
     8    6    7 ar 
     9    7    8 ar 
    10    8    9 ar 
    11    9   10 ar 
    12   10   11 1  
    13   11   12 1  
    14   12   13 1  
    15   12   16 1  
    16   13   14 1  
    17   13   18 2  
    18   14   15 2  
    19   14   21 am 
    20   16   17 2  
    21   17   18 1  
    22   18   19 1  
    23   19   20 1  
    24   20   21 1  
    25   21   22 1  
    26   22   23 ar 
    27   22   27 ar 
    28   23   24 ar 
    29   24   25 ar 
    30   25   26 ar 
    31   26   27 ar 
    32    1   28 1  
    33    3   29 1  
    34    4   30 1  
    35    5   31 1  
    36    8   32 1  
    37    9   33 1  
    38   11   34 1  
    39   11   35 1  
    40   19   36 1  
    41   19   37 1  
    42   20   38 1  
    43   20   39 1  
    44   23   40 1  
    45   24   41 1  
    46   25   42 1  
    47   26   43 1  
    48   27   44 1  
@<TRIPOS>SUBSTRUCTURE
     1 0JK         1

