### 
### Created by X-TOOL on Mon Sep 10 21:13:11 2018
### 

@<TRIPOS>MOLECULE
4dei_ligand
   55    59     1     0     0
SMALL
GAST_HUCK


@<TRIPOS>ATOM
      1 CBF        28.3430   31.0880   60.9540 C.3       1 0JL        -0.0196
      2 CBE        27.1360   31.2780   60.0330 C.2       1 0JL        -0.0149
      3 CBB        26.2790   30.2700   59.7760 C.2       1 0JL        -0.0053
      4 NBD        26.8790   32.4560   59.4460 N.2       1 0JL        -0.3131
      5 S          25.5220   32.2440   58.5510 S.3       1 0JL         0.0240
      6 CBA        25.2840   30.6250   58.9590 C.2       1 0JL         0.1819
      7 NAZ        24.2530   29.7840   58.4940 N.am      1 0JL        -0.1397
      8 CAT        23.3240   30.2490   57.5350 C.2       1 0JL         0.2876
      9 CAS        22.3180   29.3940   57.0760 C.2       1 0JL         0.1921
     10 OBG        23.3940   31.4020   57.1160 O.2       1 0JL        -0.3828
     11 CAY        24.1480   28.4530   58.9550 C.2       1 0JL         0.0745
     12 CAX        23.1390   27.6130   58.4820 C.2       1 0JL        -0.0361
     13 CAW        22.2270   28.0960   57.5420 C.2       1 0JL         0.0633
     14 NAV        21.1790   27.5690   56.9010 N.2       1 0JL        -0.2139
     15 NAU        20.6840   28.4240   56.1490 N.2       1 0JL        -0.0826
     16 NAR        21.3120   29.4910   56.2100 N.pl3     1 0JL        -0.1436
     17 CAP        20.9920   30.7180   55.4480 C.3       1 0JL         0.1194
     18 CAQ        20.3170   30.4010   54.1060 C.3       1 0JL        -0.0213
     19 CAO        20.1110   31.6020   56.3390 C.ar      1 0JL        -0.0054
     20 CAI        20.6620   32.7610   56.8760 C.ar      1 0JL        -0.0498
     21 CAH        19.8920   33.5700   57.6990 C.ar      1 0JL        -0.0115
     22 CAG        20.4400   34.7290   58.2300 C.ar      1 0JL        -0.0130
     23 CAN        18.7920   31.2510   56.6380 C.ar      1 0JL        -0.0517
     24 CAM        18.0190   32.0680   57.4620 C.ar      1 0JL        -0.0461
     25 CAL        18.5720   33.2300   57.9950 C.ar      1 0JL         0.0355
     26 NAK        17.8350   34.0220   58.7920 N.ar      1 0JL        -0.3008
     27 CAJ        18.3360   35.1360   59.3140 C.ar      1 0JL         0.0421
     28 CAF        19.6520   35.5200   59.0570 C.ar      1 0JL         0.1189
     29 OAE        20.1750   36.6610   59.5870 O.3       1 0JL        -0.3092
     30 CAD        20.4470   36.4990   60.9980 C.3       1 0JL         0.0950
     31 CAC        20.1730   37.8080   61.7110 C.3       1 0JL         0.0752
     32 OAB        21.3920   38.5560   61.7820 O.3       1 0JL        -0.3803
     33 CAA        21.1090   39.9610   61.6620 C.3       1 0JL         0.0366
     34 H1         28.3626   30.0522   61.3238 H         1 0JL         0.0440
     35 H2         28.2669   31.7800   61.8057 H         1 0JL         0.0440
     36 H3         29.2672   31.2951   60.3947 H         1 0JL         0.0440
     37 H4         26.3868   29.2692   60.1917 H         1 0JL         0.0286
     38 H5         24.8619   28.0784   59.6871 H         1 0JL         0.1075
     39 H6         23.0637   26.5885   58.8434 H         1 0JL         0.0347
     40 H7         21.9283   31.2548   55.2354 H         1 0JL         0.0850
     41 H8         20.0978   31.3392   53.5752 H         1 0JL         0.0284
     42 H9         19.3796   29.8546   54.2870 H         1 0JL         0.0284
     43 H10        20.9899   29.7822   53.4942 H         1 0JL         0.0284
     44 H11        21.6879   33.0307   56.6525 H         1 0JL         0.0529
     45 H12        21.4619   35.0115   58.0042 H         1 0JL         0.0624
     46 H13        18.3686   30.3411   56.2283 H         1 0JL         0.0591
     47 H14        16.9929   31.8002   57.6867 H         1 0JL         0.0633
     48 H15        17.7131   35.7556   59.9489 H         1 0JL         0.0818
     49 H16        21.5006   36.2163   61.1397 H         1 0JL         0.0639
     50 H17        19.7977   35.7125   61.4101 H         1 0JL         0.0639
     51 H18        19.8032   37.6058   62.7270 H         1 0JL         0.0587
     52 H19        19.4183   38.3822   61.1536 H         1 0JL         0.0587
     53 H20        22.0486   40.5303   61.7172 H         1 0JL         0.0524
     54 H21        20.4432   40.2722   62.4804 H         1 0JL         0.0524
     55 H22        20.6189   40.1552   60.6966 H         1 0JL         0.0524
@<TRIPOS>BOND
     1    1    2 1  
     2    2    3 1  
     3    2    4 2  
     4    3    6 2  
     5    4    5 1  
     6    5    6 1  
     7    6    7 1  
     8    7    8 am 
     9    7   11 1  
    10    8    9 1  
    11    8   10 2  
    12    9   13 2  
    13    9   16 1  
    14   11   12 2  
    15   12   13 1  
    16   13   14 1  
    17   14   15 2  
    18   15   16 1  
    19   16   17 1  
    20   17   18 1  
    21   17   19 1  
    22   19   20 ar 
    23   19   23 ar 
    24   20   21 ar 
    25   21   22 ar 
    26   21   25 ar 
    27   22   28 ar 
    28   23   24 ar 
    29   24   25 ar 
    30   25   26 ar 
    31   26   27 ar 
    32   27   28 ar 
    33   28   29 1  
    34   29   30 1  
    35   30   31 1  
    36   31   32 1  
    37   32   33 1  
    38    1   34 1  
    39    1   35 1  
    40    1   36 1  
    41    3   37 1  
    42   11   38 1  
    43   12   39 1  
    44   17   40 1  
    45   18   41 1  
    46   18   42 1  
    47   18   43 1  
    48   20   44 1  
    49   22   45 1  
    50   23   46 1  
    51   24   47 1  
    52   27   48 1  
    53   30   49 1  
    54   30   50 1  
    55   31   51 1  
    56   31   52 1  
    57   33   53 1  
    58   33   54 1  
    59   33   55 1  
@<TRIPOS>SUBSTRUCTURE
     1 0JL         1

