### 
### Created by X-TOOL on Mon Sep 10 21:13:10 2018
### 

@<TRIPOS>MOLECULE
4der_ligand
   30    32     1     0     0
SMALL
GAST_HUCK


@<TRIPOS>ATOM
      1 CAG        21.3330   43.7480   40.2840 C.ar      1 AGI        -0.0519
      2 CAE        21.3530   43.7550   41.6360 C.ar      1 AGI        -0.0265
      3 CAM        21.5660   42.5640   42.2960 C.ar      1 AGI         0.0943
      4 OAB        21.5830   42.5640   43.6220 O.3       1 AGI        -0.3288
      5 CAF        21.7630   41.3710   41.6380 C.ar      1 AGI        -0.0265
      6 CAH        21.7480   41.3740   40.2870 C.ar      1 AGI        -0.0519
      7 CAP        21.5350   42.5590   39.6120 C.ar      1 AGI         0.0209
      8 CAQ        21.5140   42.5330   38.2550 C.2       1 AGI         0.1357
      9 OAL        22.5040   43.1280   37.5660 O.3       1 AGI        -0.2431
     10 CAJ        20.4750   41.8780   37.6310 C.2       1 AGI         0.0025
     11 CAR        20.4370   41.7810   36.2740 C.2       1 AGI         0.0968
     12 OAA        19.5170   41.1780   35.7260 O.2       1 AGI        -0.4276
     13 CAT        21.4160   42.4240   35.5700 C.ar      1 AGI         0.0767
     14 CAS        22.4160   43.0940   36.2330 C.ar      1 AGI         0.1290
     15 CAK        23.3890   43.7610   35.5380 C.ar      1 AGI        -0.0033
     16 CAN        23.3350   43.7410   34.1650 C.ar      1 AGI         0.0775
     17 OAC        24.2980   44.3760   33.5140 O.3       1 AGI        -0.3351
     18 CAI        22.3280   43.0680   33.4920 C.ar      1 AGI        -0.0086
     19 CAO        21.3640   42.4100   34.2050 C.ar      1 AGI         0.0935
     20 OAD        20.3590   41.7390   33.6180 O.3       1 AGI        -0.3326
     21 H1         21.1603   44.6659   39.7338 H         1 AGI         0.0640
     22 H2         21.2049   44.6761   42.1880 H         1 AGI         0.0561
     23 H3         20.7464   42.8743   43.9483 H         1 AGI         0.2508
     24 H4         21.9260   40.4523   42.1899 H         1 AGI         0.0561
     25 H5         21.9021   40.4526   39.7372 H         1 AGI         0.0640
     26 H6         19.6789   41.4349   38.2275 H         1 AGI         0.0374
     27 H7         24.1802   44.2903   36.0566 H         1 AGI         0.0401
     28 H8         24.1545   44.2928   32.5786 H         1 AGI         0.2494
     29 H9         22.3044   43.0630   32.4083 H         1 AGI         0.0403
     30 H10        19.8025   41.3562   34.2861 H         1 AGI         0.2503
@<TRIPOS>BOND
     1    1    2 ar 
     2    1    7 ar 
     3    2    3 ar 
     4    3    4 1  
     5    3    5 ar 
     6    5    6 ar 
     7    6    7 ar 
     8    7    8 1  
     9    8    9 1  
    10    8   10 2  
    11    9   14 1  
    12   10   11 1  
    13   11   12 2  
    14   11   13 1  
    15   13   14 ar 
    16   13   19 ar 
    17   14   15 ar 
    18   15   16 ar 
    19   16   17 1  
    20   16   18 ar 
    21   18   19 ar 
    22   19   20 1  
    23    1   21 1  
    24    2   22 1  
    25    4   23 1  
    26    5   24 1  
    27    6   25 1  
    28   10   26 1  
    29   15   27 1  
    30   17   28 1  
    31   18   29 1  
    32   20   30 1  
@<TRIPOS>SUBSTRUCTURE
     1 AGI         1

