### 
### Created by X-TOOL on Mon Sep 10 21:13:10 2018
### 

@<TRIPOS>MOLECULE
4des_ligand
   29    31     1     0     0
SMALL
GAST_HUCK


@<TRIPOS>ATOM
      1 C2         21.8840    0.1560   -7.2380 C.2       1 57D         0.1434
      2 C3         22.9660   -0.7120   -7.1510 C.2       1 57D         0.0085
      3 C4         23.3460   -1.2150   -5.9190 C.2       1 57D         0.1012
      4 C5         22.6290   -0.8350   -4.7970 C.ar      1 57D         0.0778
      5 C6         22.9890   -1.3260   -3.5470 C.ar      1 57D         0.0936
      6 C7         22.2730   -0.9470   -2.4180 C.ar      1 57D        -0.0085
      7 C8         21.1960   -0.0780   -2.5430 C.ar      1 57D         0.0776
      8 C9         20.8390    0.4110   -3.7940 C.ar      1 57D        -0.0032
      9 C10        21.5520    0.0360   -4.9270 C.ar      1 57D         0.1294
     10 O1         21.1680    0.5390   -6.1380 O.3       1 57D        -0.2412
     11 O4         24.3010   -1.9840   -5.8230 O.2       1 57D        -0.4247
     12 O5         24.0440   -2.1760   -3.4290 O.3       1 57D        -0.3325
     13 O7         20.4920    0.2950   -1.4400 O.3       1 57D        -0.3350
     14 C2'        21.2970    2.0130   -8.6530 C.ar      1 57D        -0.0449
     15 C3'        20.9300    2.5080   -9.8990 C.ar      1 57D        -0.0570
     16 C4'        20.7820    1.6410  -10.9760 C.ar      1 57D        -0.0581
     17 C5'        21.0020    0.2790  -10.8060 C.ar      1 57D        -0.0570
     18 C6'        21.3690   -0.2160   -9.5600 C.ar      1 57D        -0.0449
     19 C1'        21.5170    0.6510   -8.4840 C.ar      1 57D         0.0307
     20 H1         23.5128   -0.9953   -8.0491 H         1 57D         0.0422
     21 H2         22.5538   -1.3281   -1.4428 H         1 57D         0.0403
     22 H3         19.9987    1.0895   -3.8869 H         1 57D         0.0401
     23 H4         24.4208   -2.3323   -4.2870 H         1 57D         0.2503
     24 H5         20.8625   -0.1246   -0.6723 H         1 57D         0.2494
     25 H6         21.4116    2.6890   -7.8134 H         1 57D         0.0661
     26 H7         20.7591    3.5703  -10.0311 H         1 57D         0.0628
     27 H8         20.4953    2.0270  -11.9475 H         1 57D         0.0648
     28 H9         20.8873   -0.3973  -11.6454 H         1 57D         0.0628
     29 H10        21.5398   -1.2783   -9.4276 H         1 57D         0.0661
@<TRIPOS>BOND
     1    1    2 2  
     2    1   10 1  
     3   19    1 1  
     4    2    3 1  
     5    3    4 1  
     6    3   11 2  
     7    4    5 ar 
     8    9    4 ar 
     9    5    6 ar 
    10    5   12 1  
    11    7    6 ar 
    12    8    7 ar 
    13    7   13 1  
    14    9    8 ar 
    15   10    9 1  
    16   14   15 ar 
    17   14   19 ar 
    18   15   16 ar 
    19   16   17 ar 
    20   17   18 ar 
    21   18   19 ar 
    22    2   20 1  
    23    6   21 1  
    24    8   22 1  
    25   12   23 1  
    26   13   24 1  
    27   14   25 1  
    28   15   26 1  
    29   16   27 1  
    30   17   28 1  
    31   18   29 1  
@<TRIPOS>SUBSTRUCTURE
     1 57D         1

