### 
### Created by X-TOOL on Mon Sep 10 21:13:11 2018
### 

@<TRIPOS>MOLECULE
4det_ligand
   31    33     1     0     0
SMALL
GAST_HUCK


@<TRIPOS>ATOM
      1 C1         20.2590    0.8850   -0.9340 C.ar      1 KMP        -0.0094
      2 C2         21.3550    0.1910   -1.3570 C.ar      1 KMP         0.0929
      3 C3         21.5750    0.0290   -2.6890 C.ar      1 KMP         0.0812
      4 C4         20.7170    0.5640   -3.5840 C.ar      1 KMP         0.1206
      5 C5         19.6110    1.2410   -3.2020 C.ar      1 KMP        -0.0055
      6 C6         19.3820    1.4000   -1.8780 C.ar      1 KMP         0.0766
      7 C7         22.6680   -0.6480   -3.0960 C.2       1 KMP         0.1452
      8 C8         22.8520   -0.6970   -4.4320 C.2       1 KMP         0.1601
      9 C9         21.9180   -0.1370   -5.2940 C.2       1 KMP         0.1558
     10 C10        21.8840   -0.1200   -6.6620 C.ar      1 KMP         0.0038
     11 C11        21.4210   -1.2060   -7.3660 C.ar      1 KMP        -0.0611
     12 C12        21.3530   -1.1570   -8.7130 C.ar      1 KMP        -0.0332
     13 C13        21.6760   -0.0110   -9.3520 C.ar      1 KMP         0.0878
     14 C14        22.0720    1.0900   -8.6780 C.ar      1 KMP        -0.0332
     15 C15        22.1690    1.0410   -7.3310 C.ar      1 KMP        -0.0611
     16 O1         20.8420    0.4480   -4.8660 O.3       1 KMP        -0.2589
     17 O2         23.4960   -1.1170   -2.3150 O.2       1 KMP        -0.4153
     18 O3         21.6010    0.0300  -10.6570 O.3       1 KMP        -0.3329
     19 O4         23.9360   -1.3480   -4.8070 O.3       1 KMP        -0.3401
     20 O5         18.2890    2.0740   -1.5510 O.3       1 KMP        -0.3353
     21 O6         22.2280   -0.3430   -0.5530 O.3       1 KMP        -0.3327
     22 H1         20.0760    1.0319    0.1243 H         1 KMP         0.0396
     23 H2         18.9253    1.6460   -3.9374 H         1 KMP         0.0393
     24 H3         21.1106   -2.1013   -6.8396 H         1 KMP         0.0584
     25 H4         21.0421   -2.0289   -9.2771 H         1 KMP         0.0544
     26 H5         22.3095    2.0032   -9.2116 H         1 KMP         0.0544
     27 H6         22.4731    1.9226   -6.7785 H         1 KMP         0.0584
     28 H7         20.9812    0.7016  -10.9165 H         1 KMP         0.2486
     29 H8         24.4141   -1.6344   -4.0376 H         1 KMP         0.2420
     30 H9         18.2228    2.1280   -0.6049 H         1 KMP         0.2494
     31 H10        23.0840    0.0328   -0.7220 H         1 KMP         0.2504
@<TRIPOS>BOND
     1    2    1 ar 
     2    1    6 ar 
     3    2    3 ar 
     4    2   21 1  
     5    3    4 ar 
     6    3    7 1  
     7    4    5 ar 
     8    4   16 1  
     9    5    6 ar 
    10    6   20 1  
    11    7    8 1  
    12    7   17 2  
    13    8    9 2  
    14    8   19 1  
    15    9   10 1  
    16    9   16 1  
    17   10   11 ar 
    18   10   15 ar 
    19   11   12 ar 
    20   12   13 ar 
    21   13   14 ar 
    22   13   18 1  
    23   14   15 ar 
    24    1   22 1  
    25    5   23 1  
    26   11   24 1  
    27   12   25 1  
    28   14   26 1  
    29   15   27 1  
    30   18   28 1  
    31   19   29 1  
    32   20   30 1  
    33   21   31 1  
@<TRIPOS>SUBSTRUCTURE
     1 KMP         1

