### 
### Created by X-TOOL on Mon Sep 10 21:13:10 2018
### 

@<TRIPOS>MOLECULE
4deu_ligand
   32    34     1     0     0
SMALL
GAST_HUCK


@<TRIPOS>ATOM
      1 C1         20.8430   41.9850   37.6050 C.ar      1 NAR        -0.0092
      2 C2         20.9420   42.0050   36.2720 C.ar      1 NAR         0.0765
      3 C3         21.9860   42.6280   35.6500 C.ar      1 NAR        -0.0097
      4 C4         22.9510   43.2380   36.4080 C.ar      1 NAR         0.0925
      5 C5         22.8850   43.2270   37.7440 C.ar      1 NAR         0.0787
      6 C6         21.8250   42.5930   38.3440 C.ar      1 NAR         0.0990
      7 C7         23.8440   43.7720   38.6060 C.2       1 NAR         0.1187
      8 C8         23.7880   43.3480   40.0740 C.3       1 NAR         0.0562
      9 C9         22.7970   42.1410   40.1750 C.3       1 NAR         0.1258
     10 O1         21.7150   42.6000   39.6610 O.3       1 NAR        -0.3013
     11 O2         24.7880   44.4600   38.2560 O.2       1 NAR        -0.3966
     12 C10        22.2000   41.6800   41.5160 C.ar      1 NAR        -0.0181
     13 C11        21.7220   42.6140   42.3560 C.ar      1 NAR        -0.0658
     14 C12        21.1600   42.1210   43.5310 C.ar      1 NAR        -0.0397
     15 C13        21.0040   40.7720   43.8510 C.ar      1 NAR         0.0805
     16 C14        21.4520   39.7780   43.0220 C.ar      1 NAR        -0.0397
     17 C15        22.0310   40.1730   41.7990 C.ar      1 NAR        -0.0658
     18 O3         20.4310   40.4820   45.0250 O.3       1 NAR        -0.3376
     19 O4         19.9810   41.3970   35.5760 O.3       1 NAR        -0.3349
     20 O5         23.9760   43.8550   35.8400 O.3       1 NAR        -0.3326
     21 H1         20.0048   41.4988   38.0910 H         1 NAR         0.0390
     22 H2         22.0507   42.6399   34.5680 H         1 NAR         0.0390
     23 H3         23.4279   44.1829   40.6930 H         1 NAR         0.0528
     24 H4         24.7881   43.0429   40.4157 H         1 NAR         0.0528
     25 H5         23.2231   41.2818   39.6362 H         1 NAR         0.0822
     26 H6         21.7704   43.6741   42.1349 H         1 NAR         0.0531
     27 H7         20.8146   42.8467   44.2584 H         1 NAR         0.0525
     28 H8         21.3650   38.7325   43.2947 H         1 NAR         0.0525
     29 H9         22.3505   39.4339   41.0732 H         1 NAR         0.0531
     30 H10        19.6573   39.9513   44.8760 H         1 NAR         0.2458
     31 H11        19.3454   41.0237   36.1753 H         1 NAR         0.2497
     32 H12        24.7861   43.4480   36.1239 H         1 NAR         0.2506
@<TRIPOS>BOND
     1    1    2 ar 
     2    1    6 ar 
     3    2    3 ar 
     4    2   19 1  
     5    3    4 ar 
     6    4    5 ar 
     7    4   20 1  
     8    5    6 ar 
     9    5    7 1  
    10    6   10 1  
    11    7    8 1  
    12    7   11 2  
    13    8    9 1  
    14    9   10 1  
    15    9   12 1  
    16   12   13 ar 
    17   12   17 ar 
    18   13   14 ar 
    19   14   15 ar 
    20   15   16 ar 
    21   15   18 1  
    22   16   17 ar 
    23    1   21 1  
    24    3   22 1  
    25    8   23 1  
    26    8   24 1  
    27    9   25 1  
    28   13   26 1  
    29   14   27 1  
    30   16   28 1  
    31   17   29 1  
    32   18   30 1  
    33   19   31 1  
    34   20   32 1  
@<TRIPOS>SUBSTRUCTURE
     1 NAR         1

