### 
### Created by X-TOOL on Mon Sep 10 21:13:11 2018
### 

@<TRIPOS>MOLECULE
4dfb_ligand
   73    75     1     0     0
SMALL
GAST_HUCK


@<TRIPOS>ATOM
      1 C1          2.6330   59.6750   42.2150 C.3       1 KAN         0.1887
      2 C2          1.8000   58.7240   43.0750 C.3       1 KAN         0.1341
      3 C3          1.9270   59.1400   44.5370 C.3       1 KAN         0.1142
      4 C4          3.4070   59.1030   44.9040 C.3       1 KAN         0.1147
      5 C5          4.1870   60.0600   44.0130 C.3       1 KAN         0.1294
      6 C6          5.6850   60.0210   44.3120 C.3       1 KAN        -0.0058
      7 C7          2.5480   64.5370   39.8250 C.3       1 KAN         0.0104
      8 C8          3.5440   63.3990   39.5770 C.3       1 KAN         0.1325
      9 C9          2.9470   62.1220   40.2180 C.3       1 KAN         0.1181
     10 C10         2.6350   62.2250   41.7320 C.3       1 KAN         0.1325
     11 C11         1.6640   63.3870   41.9290 C.3       1 KAN         0.0104
     12 C12         2.2610   64.6500   41.3210 C.3       1 KAN         0.0381
     13 C13         4.9320   62.4540   37.6410 C.3       1 KAN         0.1915
     14 C14         5.0750   62.7220   36.1350 C.3       1 KAN         0.1506
     15 C15         3.8410   62.2840   35.3700 C.3       1 KAN         0.0360
     16 C16         3.6640   60.8000   35.6230 C.3       1 KAN         0.1283
     17 C17         3.4920   60.5480   37.1030 C.3       1 KAN         0.1159
     18 C18         3.3950   59.0430   37.3360 C.3       1 KAN         0.0731
     19 N1          6.3880   60.9550   43.4240 N.4       1 KAN         0.2204
     20 N2          1.4330   63.5990   43.3650 N.4       1 KAN         0.2228
     21 N3          3.1080   65.8000   39.3280 N.4       1 KAN         0.2228
     22 N4          4.0270   62.5270   33.9360 N.4       1 KAN         0.2246
     23 O5          4.0150   59.6580   42.6390 O.3       1 KAN        -0.3375
     24 O6          0.4430   58.7210   42.6160 O.3       1 KAN        -0.3841
     25 O7          1.1900   58.2350   45.3650 O.3       1 KAN        -0.3864
     26 O8          3.5720   59.4740   46.2740 O.3       1 KAN        -0.3864
     27 O9          2.0570   61.0030   42.3300 O.3       1 KAN        -0.3372
     28 O10         3.9200   61.0930   40.0550 O.3       1 KAN        -0.3862
     29 O11         3.8360   63.2900   38.1250 O.3       1 KAN        -0.3371
     30 O12         4.6720   61.0290   37.8100 O.3       1 KAN        -0.3403
     31 O13         5.3560   64.1150   35.9750 O.3       1 KAN        -0.3812
     32 O14         2.5170   60.3210   34.9140 O.3       1 KAN        -0.3834
     33 O15         4.5810   58.4170   36.8360 O.3       1 KAN        -0.3924
     34 H           2.6168   59.3615   41.1712 H         1 KAN         0.0938
     35 H           2.1659   57.7009   42.9883 H         1 KAN         0.0671
     36 H           1.5258   60.1423   44.6872 H         1 KAN         0.0648
     37 H           3.7866   58.0919   44.7567 H         1 KAN         0.0648
     38 H           3.8109   61.0661   44.1985 H         1 KAN         0.0678
     39 H           6.0614   59.0114   44.1473 H         1 KAN         0.0840
     40 H           5.8552   60.3093   45.3493 H         1 KAN         0.0840
     41 H           1.6182   64.3258   39.2969 H         1 KAN         0.0878
     42 H           4.5135   63.5787   40.0416 H         1 KAN         0.0681
     43 H           1.9934   61.9357   39.7240 H         1 KAN         0.0649
     44 H           3.5857   62.3773   42.2430 H         1 KAN         0.0681
     45 H           0.7172   63.1561   41.4408 H         1 KAN         0.0878
     46 H           1.5327   65.4502   41.4530 H         1 KAN         0.0377
     47 H           3.2116   64.8340   41.8216 H         1 KAN         0.0377
     48 H           5.8270   62.7009   38.2121 H         1 KAN         0.0939
     49 H           5.8920   62.1344   35.7164 H         1 KAN         0.0702
     50 H           2.9638   62.8425   35.6965 H         1 KAN         0.0904
     51 H           4.5495   60.2705   35.2715 H         1 KAN         0.0678
     52 H           2.5965   61.0576   37.4587 H         1 KAN         0.0648
     53 H           2.5228   58.6460   36.8167 H         1 KAN         0.0584
     54 H           3.2947   58.8418   38.4026 H         1 KAN         0.0584
     55 H           7.3875   60.9270   43.6257 H         1 KAN         0.1995
     56 H           6.2281   60.6851   42.4534 H         1 KAN         0.1995
     57 H           6.0352   61.8996   43.5781 H         1 KAN         0.1995
     58 H           0.7842   64.3756   43.4928 H         1 KAN         0.1998
     59 H           1.0364   62.7524   43.7730 H         1 KAN         0.1998
     60 H           2.3187   63.8156   43.8223 H         1 KAN         0.1998
     61 H           2.4424   66.5547   39.4948 H         1 KAN         0.1998
     62 H           3.9802   65.9999   39.8177 H         1 KAN         0.1998
     63 H           3.2891   65.7198   38.3274 H         1 KAN         0.1998
     64 H           3.1924   62.2293   33.4309 H         1 KAN         0.1999
     65 H           4.1842   63.5225   33.7786 H         1 KAN         0.1999
     66 H           4.8334   61.9976   33.6045 H         1 KAN         0.1999
     67 H           0.0747   59.6031   42.7040 H         1 KAN         0.2101
     68 H           1.2927   58.4890   46.2851 H         1 KAN         0.2100
     69 H           3.0781   58.8672   46.8304 H         1 KAN         0.2100
     70 H           4.1363   61.0032   39.1240 H         1 KAN         0.2100
     71 H           6.1428   64.3412   36.4764 H         1 KAN         0.2103
     72 H           2.6318   60.4836   33.9749 H         1 KAN         0.2102
     73 H           5.3459   58.7681   37.2979 H         1 KAN         0.2095
@<TRIPOS>BOND
     1    1    2 1  
     2    1   23 1  
     3   27    1 1  
     4    2    3 1  
     5    2   24 1  
     6    3    4 1  
     7    3   25 1  
     8    5    4 1  
     9    4   26 1  
    10    5    6 1  
    11   23    5 1  
    12    6   19 1  
    13    8    7 1  
    14    7   12 1  
    15    7   21 1  
    16    8    9 1  
    17   29    8 1  
    18    9   10 1  
    19    9   28 1  
    20   10   11 1  
    21   10   27 1  
    22   12   11 1  
    23   11   20 1  
    24   13   14 1  
    25   13   29 1  
    26   13   30 1  
    27   14   15 1  
    28   14   31 1  
    29   15   16 1  
    30   15   22 1  
    31   16   17 1  
    32   16   32 1  
    33   17   18 1  
    34   17   30 1  
    35   18   33 1  
    36    1   34 1  
    37    2   35 1  
    38    3   36 1  
    39    4   37 1  
    40    5   38 1  
    41    6   39 1  
    42    6   40 1  
    43    7   41 1  
    44    8   42 1  
    45    9   43 1  
    46   10   44 1  
    47   11   45 1  
    48   12   46 1  
    49   12   47 1  
    50   13   48 1  
    51   14   49 1  
    52   15   50 1  
    53   16   51 1  
    54   17   52 1  
    55   18   53 1  
    56   18   54 1  
    57   19   55 1  
    58   19   56 1  
    59   19   57 1  
    60   20   58 1  
    61   20   59 1  
    62   20   60 1  
    63   21   61 1  
    64   21   62 1  
    65   21   63 1  
    66   22   64 1  
    67   22   65 1  
    68   22   66 1  
    69   24   67 1  
    70   25   68 1  
    71   26   69 1  
    72   28   70 1  
    73   31   71 1  
    74   32   72 1  
    75   33   73 1  
@<TRIPOS>SUBSTRUCTURE
     1 KAN         1

