### 
### Created by X-TOOL on Mon Sep 10 21:13:10 2018
### 

@<TRIPOS>MOLECULE
4dff_ligand
   37    40     1     0     0
SMALL
GAST_HUCK


@<TRIPOS>ATOM
      1 C17         7.6610   38.3340   56.9970 C.ar      1 0JP        -0.0382
      2 C2          8.5750   38.4720   59.6520 C.ar      1 0JP        -0.0371
      3 C11         9.0860   37.6610   53.9350 C.2       1 0JP        -0.0163
      4 C7         10.9440   41.4910   55.7050 C.2       1 0JP         0.1001
      5 C13         8.8250   37.8760   51.7520 C.2       1 0JP         0.0688
      6 C16         8.8130   39.0780   57.3080 C.ar      1 0JP        -0.0092
      7 C3          9.2650   39.1380   58.6570 C.ar      1 0JP        -0.0474
      8 C18         6.9280   37.6800   57.9970 C.ar      1 0JP         0.1131
      9 C1          7.3870   37.7360   59.3260 C.ar      1 0JP         0.1150
     10 C9          9.8200   39.8730   54.9180 C.2       1 0JP         0.0426
     11 C15         9.5700   39.8290   56.2970 C.2       1 0JP         0.0835
     12 C10         9.4020   38.9920   53.8240 C.2       1 0JP         0.0439
     13 C4         10.4670   39.9810   59.0020 C.3       1 0JP         0.0033
     14 C5         10.3410   41.2740   58.1860 C.3       1 0JP         0.0669
     15 C22         5.1430   36.7830   56.5400 C.3       1 0JP         0.0555
     16 C21         6.7640   36.9990   61.5960 C.3       1 0JP         0.0574
     17 N12         8.7410   36.9940   52.7650 N.2       1 0JP        -0.3200
     18 N8         10.6920   40.8910   54.5900 N.2       1 0JP        -0.3162
     19 N6         10.3050   40.8940   56.7580 N.pl3     1 0JP        -0.2407
     20 O19         5.7960   36.8900   57.8120 O.3       1 0JP        -0.3291
     21 O20         6.6220   36.9730   60.1660 O.3       1 0JP        -0.3252
     22 S14         9.3290   39.4860   52.1660 S.3       1 0JP        -0.0105
     23 H1          7.3340   38.2650   55.9658 H         1 0JP         0.0481
     24 H2          8.9301   38.5054   60.6757 H         1 0JP         0.0456
     25 H3          9.1047   37.1502   54.8966 H         1 0JP         0.0505
     26 H4         11.5866   42.3654   55.7966 H         1 0JP         0.1248
     27 H5          8.5894   37.5951   50.7266 H         1 0JP         0.1113
     28 H6         11.3927   39.4509   58.7334 H         1 0JP         0.0440
     29 H7         10.4745   40.2099   60.0779 H         1 0JP         0.0440
     30 H8         11.2051   41.9265   58.3797 H         1 0JP         0.0641
     31 H9          9.4149   41.8015   58.4581 H         1 0JP         0.0641
     32 H10         4.2772   36.1102   56.6278 H         1 0JP         0.0570
     33 H11         5.8480   36.3785   55.7988 H         1 0JP         0.0570
     34 H12         4.8028   37.7781   56.2176 H         1 0JP         0.0570
     35 H13         6.0419   36.3036   62.0488 H         1 0JP         0.0574
     36 H14         6.5731   38.0175   61.9650 H         1 0JP         0.0574
     37 H15         7.7856   36.6957   61.8686 H         1 0JP         0.0574
@<TRIPOS>BOND
     1    6    1 ar 
     2    1    8 ar 
     3    7    2 ar 
     4    2    9 ar 
     5   12    3 2  
     6    3   17 1  
     7   18    4 2  
     8    4   19 1  
     9   17    5 2  
    10    5   22 1  
    11    6    7 ar 
    12   11    6 1  
    13    7   13 1  
    14    8    9 ar 
    15    8   20 1  
    16    9   21 1  
    17   10   11 2  
    18   10   12 1  
    19   10   18 1  
    20   11   19 1  
    21   12   22 1  
    22   13   14 1  
    23   14   19 1  
    24   20   15 1  
    25   21   16 1  
    26    1   23 1  
    27    2   24 1  
    28    3   25 1  
    29    4   26 1  
    30    5   27 1  
    31   13   28 1  
    32   13   29 1  
    33   14   30 1  
    34   14   31 1  
    35   15   32 1  
    36   15   33 1  
    37   15   34 1  
    38   16   35 1  
    39   16   36 1  
    40   16   37 1  
@<TRIPOS>SUBSTRUCTURE
     1 0JP         1

