### 
### Created by X-TOOL on Mon Sep 10 21:13:08 2018
### 

@<TRIPOS>MOLECULE
4dfg_ligand
   87    90     1     0     0
SMALL
GAST_HUCK


@<TRIPOS>ATOM
      1 O39        21.7390   28.7370   14.6620 O.3       1 0JV        -0.3212
      2 C40        23.1270   28.6950   14.9510 C.3       1 0JV         0.0594
      3 C2         21.1290   27.5880   15.0170 C.ar      1 0JV         0.0908
      4 C3         19.7560   27.5880   14.8290 C.ar      1 0JV        -0.0313
      5 C4         18.9840   26.4890   15.1430 C.ar      1 0JV        -0.0440
      6 C5         19.5770   25.3480   15.6580 C.ar      1 0JV         0.0971
      7 C6         20.9390   25.3780   15.8330 C.ar      1 0JV        -0.0440
      8 C7         21.7550   26.4530   15.5340 C.ar      1 0JV        -0.0313
      9 S8         18.5850   23.9560   16.0530 S.o2      1 0JV         0.0657
     10 O9         17.4870   23.8930   15.0680 O.2       1 0JV        -0.1515
     11 O10        19.4120   22.7420   16.2230 O.2       1 0JV        -0.1515
     12 N11        17.8860   24.2420   17.5220 N.am      1 0JV        -0.2325
     13 C12        18.8140   24.5560   18.5890 C.3       1 0JV         0.0319
     14 C13        18.5060   23.7990   19.8870 C.3       1 0JV        -0.0296
     15 C14        18.6340   22.2740   19.7260 C.3       1 0JV        -0.0612
     16 C15        19.4960   24.2770   20.9670 C.3       1 0JV        -0.0612
     17 C16        16.6160   24.9500   17.5440 C.3       1 0JV         0.0578
     18 C17        15.4730   24.0460   18.0270 C.3       1 0JV         0.0967
     19 O18        14.2820   24.7560   18.3770 O.3       1 0JV        -0.3877
     20 C19        15.0810   22.9170   17.0770 C.3       1 0JV         0.0807
     21 N20        14.2300   21.9550   17.7620 N.am      1 0JV        -0.2550
     22 C21        14.4710   20.6680   18.0080 C.2       1 0JV         0.3202
     23 O22        15.5700   20.1490   17.7550 O.2       1 0JV        -0.3775
     24 O23        13.4190   20.0090   18.5840 O.3       1 0JV        -0.2605
     25 C24        13.7360   18.6140   18.8670 C.3       1 0JV         0.0909
     26 C25        12.6440   18.1820   19.8600 C.3       1 0JV         0.0044
     27 C26        11.4070   17.8420   19.0390 C.3       1 0JV         0.0665
     28 O27        10.7000   19.0050   18.6320 O.3       1 0JV        -0.3738
     29 C28        10.5770   19.0640   17.2130 C.3       1 0JV         0.0713
     30 C29        10.9300   17.6640   16.7330 C.3       1 0JV         0.0725
     31 C30        11.9650   17.2370   17.7780 C.3       1 0JV         0.0131
     32 C31        13.3810   17.7730   17.6370 C.3       1 0JV        -0.0148
     33 N41        11.4700   17.5390   15.3920 N.am      1 0JV        -0.2569
     34 C42        10.7650   17.8050   14.2760 C.2       1 0JV         0.3195
     35 O43         9.6390   18.3350   14.2550 O.2       1 0JV        -0.3775
     36 O44        11.2700   17.5620   13.0320 O.3       1 0JV        -0.2673
     37 C45        10.2470   17.8350   12.0450 C.3       1 0JV         0.0663
     38 C32        14.4220   23.4340   15.7920 C.3       1 0JV         0.0064
     39 C33        12.8290   21.7170   14.8710 C.ar      1 0JV        -0.0603
     40 C34        12.4920   20.6260   14.0800 C.ar      1 0JV        -0.0686
     41 C35        13.4770   20.0390   13.3010 C.ar      1 0JV        -0.0687
     42 C36        14.7670   20.5260   13.3080 C.ar      1 0JV        -0.0686
     43 C37        15.1070   21.6280   14.1080 C.ar      1 0JV        -0.0603
     44 C38        14.1260   22.2220   14.8910 C.ar      1 0JV        -0.0408
     45 H1         23.5931   29.6448   14.6501 H         1 0JV         0.0577
     46 H2         23.5921   27.8666   14.3966 H         1 0JV         0.0577
     47 H3         23.2723   28.5411   16.0304 H         1 0JV         0.0577
     48 H4         19.2773   28.4729   14.4255 H         1 0JV         0.0542
     49 H5         17.9117   26.5182   14.9865 H         1 0JV         0.0608
     50 H6         21.4107   24.4896   16.2370 H         1 0JV         0.0608
     51 H7         22.8266   26.4162   15.6930 H         1 0JV         0.0542
     52 H8         18.7640   25.6360   18.7918 H         1 0JV         0.0480
     53 H9         19.8299   24.2913   18.2605 H         1 0JV         0.0480
     54 H10        17.4782   24.0345   20.2001 H         1 0JV         0.0311
     55 H11        18.4031   21.7836   20.6832 H         1 0JV         0.0233
     56 H12        19.6611   22.0221   19.4234 H         1 0JV         0.0233
     57 H13        17.9292   21.9261   18.9564 H         1 0JV         0.0233
     58 H14        19.4095   25.3670   21.0870 H         1 0JV         0.0233
     59 H15        20.5219   24.0219   20.6628 H         1 0JV         0.0233
     60 H16        19.2633   23.7834   21.9221 H         1 0JV         0.0233
     61 H17        16.3866   25.3032   16.5278 H         1 0JV         0.0504
     62 H18        16.6997   25.8123   18.2218 H         1 0JV         0.0504
     63 H19        15.8444   23.5693   18.9462 H         1 0JV         0.0634
     64 H20        13.9640   25.2319   17.6188 H         1 0JV         0.2100
     65 H21        16.0045   22.3966   16.7832 H         1 0JV         0.0604
     66 H22        13.3524   22.3048   18.0898 H         1 0JV         0.1873
     67 H23        14.7664   18.4659   19.2223 H         1 0JV         0.0648
     68 H24        12.4209   19.0029   20.5574 H         1 0JV         0.0319
     69 H25        12.9759   17.2995   20.4266 H         1 0JV         0.0319
     70 H26        10.7454   17.1509   19.5818 H         1 0JV         0.0600
     71 H27        11.2744   19.8044   16.7942 H         1 0JV         0.0583
     72 H28         9.5482   19.3247   16.9238 H         1 0JV         0.0583
     73 H29        10.0363   17.0252   16.7899 H         1 0JV         0.0582
     74 H30        12.0054   16.1390   17.8299 H         1 0JV         0.0350
     75 H31        14.0844   16.9315   17.5532 H         1 0JV         0.0298
     76 H32        13.4478   18.3980   16.7343 H         1 0JV         0.0298
     77 H33        12.4185   17.2386   15.2910 H         1 0JV         0.1871
     78 H34        10.6472   17.6412   11.0389 H         1 0JV         0.0575
     79 H35         9.9370   18.8878   12.1197 H         1 0JV         0.0575
     80 H36         9.3794   17.1835   12.2262 H         1 0JV         0.0575
     81 H37        15.1030   24.1263   15.2752 H         1 0JV         0.0449
     82 H38        13.4849   23.9556   16.0364 H         1 0JV         0.0449
     83 H39        12.0672   22.1842   15.4846 H         1 0JV         0.0557
     84 H40        11.4786   20.2412   14.0720 H         1 0JV         0.0599
     85 H41        13.2301   19.1865   12.6786 H         1 0JV         0.0559
     86 H42        15.5237   20.0545   12.6914 H         1 0JV         0.0599
     87 H43        16.1214   22.0101   14.1145 H         1 0JV         0.0557
@<TRIPOS>BOND
     1    1    2 1  
     2    3    1 1  
     3    4    3 ar 
     4    8    3 ar 
     5    5    4 ar 
     6    6    5 ar 
     7    6    7 ar 
     8    9    6 1  
     9    7    8 ar 
    10    9   10 2  
    11    9   11 2  
    12   12    9 am 
    13   12   13 1  
    14   17   12 1  
    15   13   14 1  
    16   14   15 1  
    17   14   16 1  
    18   18   17 1  
    19   18   19 1  
    20   20   18 1  
    21   20   21 1  
    22   38   20 1  
    23   21   22 am 
    24   22   23 2  
    25   22   24 1  
    26   24   25 1  
    27   25   26 1  
    28   25   32 1  
    29   26   27 1  
    30   27   28 1  
    31   31   27 1  
    32   28   29 1  
    33   30   29 1  
    34   31   30 1  
    35   30   33 1  
    36   32   31 1  
    37   33   34 am 
    38   34   35 2  
    39   34   36 1  
    40   36   37 1  
    41   44   38 1  
    42   39   40 ar 
    43   39   44 ar 
    44   40   41 ar 
    45   41   42 ar 
    46   42   43 ar 
    47   43   44 ar 
    48    2   45 1  
    49    2   46 1  
    50    2   47 1  
    51    4   48 1  
    52    5   49 1  
    53    7   50 1  
    54    8   51 1  
    55   13   52 1  
    56   13   53 1  
    57   14   54 1  
    58   15   55 1  
    59   15   56 1  
    60   15   57 1  
    61   16   58 1  
    62   16   59 1  
    63   16   60 1  
    64   17   61 1  
    65   17   62 1  
    66   18   63 1  
    67   19   64 1  
    68   20   65 1  
    69   21   66 1  
    70   25   67 1  
    71   26   68 1  
    72   26   69 1  
    73   27   70 1  
    74   29   71 1  
    75   29   72 1  
    76   30   73 1  
    77   31   74 1  
    78   32   75 1  
    79   32   76 1  
    80   33   77 1  
    81   37   78 1  
    82   37   79 1  
    83   37   80 1  
    84   38   81 1  
    85   38   82 1  
    86   39   83 1  
    87   40   84 1  
    88   41   85 1  
    89   42   86 1  
    90   43   87 1  
@<TRIPOS>SUBSTRUCTURE
     1 0JV         1

