### 
### Created by X-TOOL on Mon Sep 10 21:13:10 2018
### 

@<TRIPOS>MOLECULE
4dfl_ligand
   53    55     1     0     0
SMALL
GAST_HUCK


@<TRIPOS>ATOM
      1 C1          0.6800   -1.0190   14.5190 C.ar      1 0K0        -0.0165
      2 C2          0.1780   -0.2040   13.5150 C.ar      1 0K0        -0.0366
      3 C3         -0.1410   -1.9360   15.1640 C.ar      1 0K0        -0.0693
      4 C4         -1.1500   -0.3160   13.1280 C.ar      1 0K0         0.0631
      5 C5         -1.4630   -2.0350   14.7880 C.ar      1 0K0        -0.0761
      6 C6         -1.9670   -1.2290   13.7860 C.ar      1 0K0        -0.0446
      7 C7          2.0800   -0.8490   14.8630 C.ar      1 0K0         0.0698
      8 C8          2.7550   -1.6360   15.7810 C.ar      1 0K0         0.0377
      9 N10         4.0770   -1.3830   16.0350 N.ar      1 0K0        -0.2532
     10 C11         4.0730    0.4120   14.4360 C.ar      1 0K0         0.1690
     11 C12         4.7410   -0.3550   15.3710 C.ar      1 0K0         0.1611
     12 O14         5.7620    1.9600   13.9340 O.2       1 0K0        -0.3826
     13 C16         4.1950    3.3130   11.9700 C.3       1 0K0         0.0336
     14 C17         2.9890    4.2530   12.0310 C.3       1 0K0        -0.0113
     15 C18         2.8270    4.8460   13.4450 C.3       1 0K0        -0.0077
     16 C19         3.1330    5.4050   11.0290 C.3       1 0K0        -0.0077
     17 C21         1.8000    6.1630   11.0190 C.3       1 0K0        -0.0334
     18 N22         1.4660    6.6540   12.3710 N.4       1 0K0         0.2270
     19 O26         0.4130    1.6000   11.2630 O.2       1 0K0        -0.1502
     20 C27        -1.3290    3.1870   12.5510 C.3       1 0K0         0.0788
     21 O28        -1.6070    2.0940   10.1510 O.2       1 0K0        -0.1502
     22 S25        -1.0030    1.8100   11.4370 S.o2      1 0K0         0.0572
     23 N24        -1.7250    0.5080   12.1270 N.am      1 0K0        -0.1917
     24 N9          2.7420    0.1530   14.2040 N.ar      1 0K0        -0.2606
     25 N23         6.0840   -0.1510   15.6830 N.pl3     1 0K0        -0.3111
     26 C13         4.6450    1.5490   13.6920 C.2       1 0K0         0.2246
     27 N15         3.8220    2.1360   12.7660 N.am      1 0K0        -0.2848
     28 C20         1.5450    5.6930   13.4980 C.3       1 0K0        -0.0334
     29 H           0.8271    0.5249   13.0297 H         1 0K0         0.0488
     30 H           0.2558   -2.5692   15.9576 H         1 0K0         0.0487
     31 H          -2.1150   -2.7538   15.2844 H         1 0K0         0.0575
     32 H          -3.0178   -1.3095   13.5076 H         1 0K0         0.0490
     33 H           2.2402   -2.4474   16.2955 H         1 0K0         0.0923
     34 H           5.0921    3.7911   12.3635 H         1 0K0         0.0522
     35 H           4.4337    3.0387   10.9425 H         1 0K0         0.0522
     36 H           2.1088    3.6622   11.7774 H         1 0K0         0.0324
     37 H           3.6878    5.4726   13.6783 H         1 0K0         0.0320
     38 H           2.7606    4.0381   14.1737 H         1 0K0         0.0320
     39 H           3.3662    5.0235   10.0349 H         1 0K0         0.0320
     40 H           3.9497    6.0665   11.3180 H         1 0K0         0.0320
     41 H           1.0131    5.4860   10.6865 H         1 0K0         0.0814
     42 H           1.8859    7.0164   10.3464 H         1 0K0         0.0814
     43 H           0.4869    6.9358   12.3230 H         1 0K0         0.2013
     44 H           2.1601    7.3722   12.5779 H         1 0K0         0.2013
     45 H          -0.8869    2.9772   13.5250 H         1 0K0         0.0487
     46 H          -0.8911    4.0966   12.1401 H         1 0K0         0.0487
     47 H          -2.4057    3.3176   12.6598 H         1 0K0         0.0487
     48 H          -2.6652    0.2717   11.8098 H         1 0K0         0.2156
     49 H           6.5427   -0.7441   16.3745 H         1 0K0         0.1819
     50 H           6.6081    0.5914   15.2198 H         1 0K0         0.1819
     51 H           2.8967    1.7319   12.6213 H         1 0K0         0.1845
     52 H           1.5495    6.2597   14.4291 H         1 0K0         0.0814
     53 H           0.6896    5.0205   13.4327 H         1 0K0         0.0814
@<TRIPOS>BOND
     1    1    2 ar 
     2    1    3 ar 
     3    7    1 1  
     4    2    4 ar 
     5    3    5 ar 
     6    4    6 ar 
     7    4   23 1  
     8    5    6 ar 
     9    7    8 ar 
    10   24    7 ar 
    11    9    8 ar 
    12   11    9 ar 
    13   10   11 ar 
    14   10   24 ar 
    15   26   10 1  
    16   11   25 1  
    17   26   12 2  
    18   13   14 1  
    19   27   13 1  
    20   14   15 1  
    21   14   16 1  
    22   15   28 1  
    23   16   17 1  
    24   17   18 1  
    25   28   18 1  
    26   22   19 2  
    27   22   20 1  
    28   22   21 2  
    29   23   22 am 
    30   26   27 am 
    31    2   29 1  
    32    3   30 1  
    33    5   31 1  
    34    6   32 1  
    35    8   33 1  
    36   13   34 1  
    37   13   35 1  
    38   14   36 1  
    39   15   37 1  
    40   15   38 1  
    41   16   39 1  
    42   16   40 1  
    43   17   41 1  
    44   17   42 1  
    45   18   43 1  
    46   18   44 1  
    47   20   45 1  
    48   20   46 1  
    49   20   47 1  
    50   23   48 1  
    51   25   49 1  
    52   25   50 1  
    53   27   51 1  
    54   28   52 1  
    55   28   53 1  
@<TRIPOS>SUBSTRUCTURE
     1 0K0         1

