### 
### Created by X-TOOL on Mon Sep 10 21:13:11 2018
### 

@<TRIPOS>MOLECULE
4dfn_ligand
   61    66     1     0     0
SMALL
GAST_HUCK


@<TRIPOS>ATOM
      1 C1          0.7110   -1.1710   14.4680 C.ar      1 0K1        -0.0055
      2 C2         -0.0170   -0.2230   13.7530 C.ar      1 0K1        -0.0528
      3 C3          0.0500   -2.3280   14.8850 C.ar      1 0K1        -0.0572
      4 C4         -1.3630   -0.4290   13.4370 C.ar      1 0K1        -0.0341
      5 C5         -1.2850   -2.5360   14.5780 C.ar      1 0K1        -0.0656
      6 C6         -1.9960   -1.5910   13.8590 C.ar      1 0K1        -0.0616
      7 C7          4.8310   -0.2720   15.3800 C.ar      1 0K1         0.1611
      8 C8          4.1200    0.5070   14.4820 C.ar      1 0K1         0.1690
      9 N10         2.7940    0.1920   14.2170 N.ar      1 0K1        -0.2605
     10 C11         2.8950   -1.6720   15.6890 C.ar      1 0K1         0.0379
     11 C12         2.1560   -0.8990   14.7960 C.ar      1 0K1         0.0727
     12 N13         6.1690    0.0200   15.6840 N.pl3     1 0K1        -0.3112
     13 C17        -2.1220    0.5950   12.6830 C.2       1 0K1         0.0014
     14 C18        -1.6260    1.6600   11.9790 C.2       1 0K1         0.0640
     15 C19        -3.4860    0.7130   12.5600 C.2       1 0K1         0.0061
     16 C23         4.1350    3.6590   12.1810 C.3       1 0K1         0.0474
     17 C24         3.6870    4.8710   13.0200 C.3       1 0K1        -0.0149
     18 C27         3.3290    3.6560   10.8480 C.3       1 0K1        -0.0149
     19 C30         1.3770    4.7410   12.0270 C.3       1 0K1         0.0670
     20 C31         3.1420    6.1690   10.9290 C.3       1 0K1        -0.0378
     21 C32         1.6360    6.0570   11.2630 C.3       1 0K1        -0.0211
     22 O15         5.8460    2.0550   14.0550 O.2       1 0K1        -0.3826
     23 C14         4.7170    1.7030   13.8300 C.2       1 0K1         0.2248
     24 N16         3.9080    2.4270   12.9790 N.am      1 0K1        -0.2815
     25 C29         3.6130    4.9690   10.0870 C.3       1 0K1        -0.0451
     26 O33        -0.0010    4.5960   12.3520 O.3       1 0K1        -0.3885
     27 C28         1.8170    3.5830   11.1060 C.3       1 0K1        -0.0190
     28 C25         2.1860    4.7650   13.3350 C.3       1 0K1        -0.0190
     29 C26         3.9230    6.1780   12.2420 C.3       1 0K1        -0.0451
     30 N9          4.2150   -1.3560   15.9790 N.ar      1 0K1        -0.2532
     31 N21        -3.7580    1.7910   11.7990 N.2       1 0K1        -0.2135
     32 N20        -2.6720    2.3350   11.4750 N.pl3     1 0K1        -0.2057
     33 C22        -2.5610    3.5420   10.6510 C.3       1 0K1         0.0615
     34 H1          0.4695    0.6922   13.4355 H         1 0K1         0.0585
     35 H2          0.5891   -3.0743   15.4572 H         1 0K1         0.0588
     36 H3         -1.7763   -3.4458   14.9034 H         1 0K1         0.0606
     37 H4         -3.0417   -1.7569   13.6264 H         1 0K1         0.0580
     38 H5          2.4334   -2.5307   16.1631 H         1 0K1         0.0922
     39 H6          6.6851   -0.5682   16.3538 H         1 0K1         0.1819
     40 H7          6.6353    0.8226   15.2375 H         1 0K1         0.1819
     41 H8         -0.5746    1.9134   11.8512 H         1 0K1         0.1040
     42 H9         -4.2238    0.0462   13.0038 H         1 0K1         0.0675
     43 H10         5.2072    3.7430   11.9501 H         1 0K1         0.0561
     44 H11         4.2606    4.8929   13.9583 H         1 0K1         0.0324
     45 H12         3.6391    2.7940   10.2391 H         1 0K1         0.0324
     46 H13         3.3271    7.1007   10.3744 H         1 0K1         0.0302
     47 H14         1.3344    6.9101   11.8886 H         1 0K1         0.0296
     48 H15         1.0521    6.0613   10.3308 H         1 0K1         0.0296
     49 H16         2.9880    2.0479   12.8799 H         1 0K1         0.1848
     50 H17         3.0731    4.9604    9.1287 H         1 0K1         0.0271
     51 H18         4.6932    5.0561    9.8985 H         1 0K1         0.0271
     52 H19        -0.2744    5.3231   12.8990 H         1 0K1         0.2102
     53 H20         1.5765    2.6239   11.5880 H         1 0K1         0.0296
     54 H21         1.2810    3.6567   10.1483 H         1 0K1         0.0296
     55 H22         1.8779    5.6315   13.9385 H         1 0K1         0.0296
     56 H23         1.9960    3.8395   13.8983 H         1 0K1         0.0296
     57 H24         4.9963    6.2804   12.0238 H         1 0K1         0.0271
     58 H25         3.5906    7.0289   12.8548 H         1 0K1         0.0271
     59 H26        -3.5668    3.8899   10.3730 H         1 0K1         0.0607
     60 H27        -1.9876    3.3130    9.7406 H         1 0K1         0.0607
     61 H28        -2.0453    4.3289   11.2209 H         1 0K1         0.0607
@<TRIPOS>BOND
     1    1    2 ar 
     2    1    3 ar 
     3   11    1 1  
     4    2    4 ar 
     5    3    5 ar 
     6    4    6 ar 
     7    4   13 1  
     8    5    6 ar 
     9    8    7 ar 
    10    7   12 1  
    11    7   30 ar 
    12    8    9 ar 
    13   23    8 1  
    14    9   11 ar 
    15   11   10 ar 
    16   30   10 ar 
    17   13   14 2  
    18   13   15 1  
    19   14   32 1  
    20   15   31 2  
    21   16   17 1  
    22   16   18 1  
    23   24   16 1  
    24   17   28 1  
    25   17   29 1  
    26   18   25 1  
    27   18   27 1  
    28   19   21 1  
    29   19   26 1  
    30   27   19 1  
    31   28   19 1  
    32   20   21 1  
    33   25   20 1  
    34   29   20 1  
    35   23   22 2  
    36   23   24 am 
    37   31   32 1  
    38   32   33 1  
    39    2   34 1  
    40    3   35 1  
    41    5   36 1  
    42    6   37 1  
    43   10   38 1  
    44   12   39 1  
    45   12   40 1  
    46   14   41 1  
    47   15   42 1  
    48   16   43 1  
    49   17   44 1  
    50   18   45 1  
    51   20   46 1  
    52   21   47 1  
    53   21   48 1  
    54   24   49 1  
    55   25   50 1  
    56   25   51 1  
    57   26   52 1  
    58   27   53 1  
    59   27   54 1  
    60   28   55 1  
    61   28   56 1  
    62   29   57 1  
    63   29   58 1  
    64   33   59 1  
    65   33   60 1  
    66   33   61 1  
@<TRIPOS>SUBSTRUCTURE
     1 0K1         1

