### 
### Created by X-TOOL on Mon Sep 10 21:13:11 2018
### 

@<TRIPOS>MOLECULE
4dfu_ligand
   32    34     1     0     0
SMALL
GAST_HUCK


@<TRIPOS>ATOM
      1 C1         -4.8260   24.5190  -29.3880 C.ar      1 QUE        -0.0094
      2 C2         -4.7970   25.8050  -29.9150 C.ar      1 QUE         0.0929
      3 C3         -5.4160   26.0650  -31.1390 C.ar      1 QUE         0.0812
      4 C4         -5.9110   25.0020  -31.8690 C.ar      1 QUE         0.1206
      5 C5         -6.0090   23.7270  -31.3340 C.ar      1 QUE        -0.0055
      6 C6         -5.4260   23.4820  -30.1000 C.ar      1 QUE         0.0766
      7 C9         -5.3480   27.3400  -31.7240 C.2       1 QUE         0.1453
      8 C10        -5.7730   27.5840  -33.0330 C.2       1 QUE         0.1600
      9 C11        -6.2330   26.4810  -33.7400 C.2       1 QUE         0.1531
     10 C14        -6.6490   26.3630  -35.0640 C.ar      1 QUE        -0.0055
     11 C15        -7.0100   25.1010  -35.5360 C.ar      1 QUE        -0.0720
     12 C16        -7.4680   24.9310  -36.8450 C.ar      1 QUE        -0.0408
     13 C17        -7.6260   26.0420  -37.6700 C.ar      1 QUE         0.1166
     14 C18        -7.3080   27.3130  -37.1930 C.ar      1 QUE         0.1158
     15 C19        -6.8350   27.4780  -35.8880 C.ar      1 QUE        -0.0332
     16 O12        -6.5090   25.4110  -32.9780 O.3       1 QUE        -0.2591
     17 O13        -4.8970   28.2580  -31.0600 O.2       1 QUE        -0.4153
     18 O23        -7.4660   28.3960  -38.0110 O.3       1 QUE        -0.3371
     19 O24        -8.0940   25.8970  -38.9430 O.3       1 QUE        -0.3363
     20 O27        -5.6690   28.8200  -33.5720 O.3       1 QUE        -0.3400
     21 O29        -5.4250   22.2210  -29.5840 O.3       1 QUE        -0.3353
     22 O30        -4.2070   26.8060  -29.2110 O.3       1 QUE        -0.3327
     23 H          -4.3778   24.3209  -28.4143 H         1 QUE         0.0396
     24 H          -6.5321   22.9356  -31.8708 H         1 QUE         0.0393
     25 H          -6.9339   24.2371  -34.8757 H         1 QUE         0.0495
     26 H          -7.7005   23.9338  -37.2187 H         1 QUE         0.0514
     27 H          -6.6109   28.4763  -35.5122 H         1 QUE         0.0495
     28 H          -6.6198   28.8344  -38.1267 H         1 QUE         0.2442
     29 H          -8.2643   24.9683  -39.1163 H         1 QUE         0.2450
     30 H          -5.3314   29.4288  -32.9109 H         1 QUE         0.2421
     31 H          -4.9589   21.6321  -30.1820 H         1 QUE         0.2494
     32 H          -4.8621   27.4742  -28.9967 H         1 QUE         0.2504
@<TRIPOS>BOND
     1    1    2 ar 
     2    1    6 ar 
     3    2    3 ar 
     4    2   22 1  
     5    3    4 ar 
     6    3    7 1  
     7    4    5 ar 
     8    4   16 1  
     9    5    6 ar 
    10    6   21 1  
    11    7    8 1  
    12    7   17 2  
    13    8    9 2  
    14    8   20 1  
    15    9   10 1  
    16    9   16 1  
    17   10   11 ar 
    18   10   15 ar 
    19   11   12 ar 
    20   12   13 ar 
    21   13   14 ar 
    22   13   19 1  
    23   14   15 ar 
    24   14   18 1  
    25    1   23 1  
    26    5   24 1  
    27   11   25 1  
    28   12   26 1  
    29   15   27 1  
    30   18   28 1  
    31   19   29 1  
    32   20   30 1  
    33   21   31 1  
    34   22   32 1  
@<TRIPOS>SUBSTRUCTURE
     1 QUE         1

