### 
### Created by X-TOOL on Mon Sep 10 21:13:09 2018
### 

@<TRIPOS>MOLECULE
4dgb_ligand
   81    83     1     0     0
SMALL
GAST_HUCK


@<TRIPOS>ATOM
      1 N          10.7800    7.8380   19.6210 N.4       1 PRO         0.2461
      2 CA         12.2280    7.9670   19.3940 C.3       1 PRO         0.0669
      3 C          12.8270    7.1180   18.2600 C.2       1 PRO         0.2266
      4 O          13.8470    7.5190   17.7040 O.2       1 PRO        -0.3907
      5 CB         12.8490    7.5650   20.7450 C.3       1 PRO         0.0127
      6 CG         11.7050    7.1010   21.6160 C.3       1 PRO        -0.0053
      7 CD         10.4590    7.7100   21.0520 C.3       1 PRO        -0.0313
      8 N          12.2340    5.9670   17.9300 N.am      1 GLY        -0.2637
      9 CA         12.7640    5.1060   16.8500 C.3       1 GLY         0.1204
     10 C          13.8780    4.1850   17.3350 C.2       1 GLY         0.2032
     11 O          14.3890    4.3920   18.4400 O.2       1 GLY        -0.3945
     12 N          14.2710    3.1660   16.5180 N.am      1 PRO        -0.2501
     13 CA         15.3210    2.2630   17.0050 C.3       1 PRO         0.1338
     14 C          16.5340    3.0310   17.5150 C.2       1 PRO         0.2041
     15 O          16.8910    4.0730   16.9520 O.2       1 PRO        -0.3944
     16 CB         15.6820    1.4140   15.7680 C.3       1 PRO        -0.0104
     17 CG         15.0980    2.1500   14.5950 C.3       1 PRO        -0.0281
     18 CD         13.8620    2.8060   15.1490 C.3       1 PRO         0.0369
     19 N          17.1380    2.5260   18.5860 N.am      1 LEU        -0.2637
     20 CA         18.2760    3.1910   19.2050 C.3       1 LEU         0.1314
     21 C          19.4930    3.1150   18.2830 C.2       1 LEU         0.2064
     22 O          19.6990    2.1050   17.6160 O.2       1 LEU        -0.3942
     23 CB         18.6170    2.5480   20.5520 C.3       1 LEU        -0.0101
     24 CG         17.5450    2.5610   21.6450 C.3       1 LEU        -0.0425
     25 CD1        18.0070    1.6850   22.8070 C.3       1 LEU        -0.0625
     26 CD2        17.2420    3.9920   22.0940 C.3       1 LEU        -0.0625
     27 N          20.3060    4.1830   18.2510 N.am      1 PRO        -0.2498
     28 CA         21.5020    4.2140   17.3870 C.3       1 PRO         0.1337
     29 C          22.6970    3.4110   17.9210 C.2       1 PRO         0.2035
     30 O          23.7030    3.2920   17.2200 O.2       1 PRO        -0.3944
     31 CB         21.8400    5.7010   17.3270 C.3       1 PRO        -0.0104
     32 CG         21.3590    6.2370   18.6370 C.3       1 PRO        -0.0281
     33 CD         20.1020    5.4710   18.9470 C.3       1 PRO         0.0369
     34 N          22.5860    2.8700   19.1380 N.am      1 ALA        -0.2697
     35 CA         23.6370    2.0200   19.7230 C.3       1 ALA         0.0916
     36 C          23.0390    1.0060   20.7030 C.2       1 ALA         0.0598
     37 O          21.8990    1.1740   21.1500 O.co2     1 ALA        -0.5666
     38 CB         24.7070    2.8840   20.4240 C.3       1 ALA        -0.0300
     39 OXT        23.6710   -0.0050   21.0530 O.co2     1 ALA        -0.5666
     40 H1         10.4458    7.0192   19.1374 H         1 PRO         0.2035
     41 H2         10.3184    8.6561   19.2552 H         1 PRO         0.2035
     42 H3         12.4570    9.0200   19.1735 H         1 PRO         0.1099
     43 H4         13.3520    8.4283   21.2050 H         1 PRO         0.0347
     44 H5         13.5746    6.7505   20.6034 H         1 PRO         0.0347
     45 H6         11.8563    7.4386   22.6519 H         1 PRO         0.0320
     46 H7         11.6335    6.0035   21.5947 H         1 PRO         0.0320
     47 H8          9.5911    7.0521   21.2065 H         1 PRO         0.0814
     48 H9         10.2589    8.6931   21.5031 H         1 PRO         0.0814
     49 H10        11.4131    5.6810   18.4244 H         1 GLY         0.1882
     50 H11        13.1597    5.7475   16.0488 H         1 GLY         0.0763
     51 H12        11.9432    4.4897   16.4546 H         1 GLY         0.0763
     52 H13        14.9346    1.6245   17.8131 H         1 PRO         0.0802
     53 H14        15.2424    0.4089   15.8493 H         1 PRO         0.0313
     54 H15        16.7738    1.3294   15.6645 H         1 PRO         0.0313
     55 H16        14.8394    1.4515   13.7856 H         1 PRO         0.0287
     56 H17        15.8038    2.9042   14.2170 H         1 PRO         0.0287
     57 H18        13.5932    3.7002   14.5674 H         1 PRO         0.0524
     58 H19        13.0130    2.1067   15.1598 H         1 PRO         0.0524
     59 H20        16.8027    1.6685   18.9762 H         1 LEU         0.1883
     60 H21        18.0189    4.2475   19.3714 H         1 LEU         0.0800
     61 H22        19.4979    3.0720   20.9513 H         1 LEU         0.0315
     62 H23        18.8731    1.4961   20.3572 H         1 LEU         0.0315
     63 H24        16.6200    2.1309   21.2334 H         1 LEU         0.0298
     64 H25        17.2412    1.6896   23.5966 H         1 LEU         0.0232
     65 H26        18.9517    2.0788   23.2101 H         1 LEU         0.0232
     66 H27        18.1609    0.6555   22.4515 H         1 LEU         0.0232
     67 H28        16.9137    4.5861   21.2284 H         1 LEU         0.0232
     68 H29        18.1493    4.4412   22.5242 H         1 LEU         0.0232
     69 H30        16.4451    3.9775   22.8521 H         1 LEU         0.0232
     70 H31        21.2488    3.8332   16.3866 H         1 PRO         0.0802
     71 H32        21.3167    6.1870   16.4904 H         1 PRO         0.0313
     72 H33        22.9243    5.8510   17.2181 H         1 PRO         0.0313
     73 H34        21.1437    7.3127   18.5566 H         1 PRO         0.0287
     74 H35        22.1132    6.0715   19.4204 H         1 PRO         0.0287
     75 H36        19.9905    5.3196   20.0308 H         1 PRO         0.0524
     76 H37        19.2162    5.9935   18.5567 H         1 PRO         0.0524
     77 H38        21.7590    3.0489   19.6710 H         1 ALA         0.1875
     78 H39        24.1227    1.4643   18.9074 H         1 ALA         0.0723
     79 H40        25.4815    2.2315   20.8535 H         1 ALA         0.0270
     80 H41        24.2363    3.4713   21.2262 H         1 ALA         0.0270
     81 H42        25.1659    3.5648   19.6919 H         1 ALA         0.0270
@<TRIPOS>BOND
     1    1    2 1  
     2    1    7 1  
     3    2    3 1  
     4    2    5 1  
     5    3    4 2  
     6    3    8 am 
     7    5    6 1  
     8    6    7 1  
     9    8    9 1  
    10    9   10 1  
    11   10   11 2  
    12   10   12 am 
    13   12   13 1  
    14   12   18 1  
    15   13   14 1  
    16   13   16 1  
    17   14   15 2  
    18   14   19 am 
    19   16   17 1  
    20   17   18 1  
    21   19   20 1  
    22   20   21 1  
    23   20   23 1  
    24   21   22 2  
    25   21   27 am 
    26   23   24 1  
    27   24   25 1  
    28   24   26 1  
    29   27   28 1  
    30   27   33 1  
    31   28   29 1  
    32   28   31 1  
    33   29   30 2  
    34   29   34 am 
    35   31   32 1  
    36   32   33 1  
    37   34   35 1  
    38   35   36 1  
    39   35   38 1  
    40   36   37 ar 
    41   36   39 ar 
    42    1   40 1  
    43    1   41 1  
    44    2   42 1  
    45    5   43 1  
    46    5   44 1  
    47    6   45 1  
    48    6   46 1  
    49    7   47 1  
    50    7   48 1  
    51    8   49 1  
    52    9   50 1  
    53    9   51 1  
    54   13   52 1  
    55   16   53 1  
    56   16   54 1  
    57   17   55 1  
    58   17   56 1  
    59   18   57 1  
    60   18   58 1  
    61   19   59 1  
    62   20   60 1  
    63   23   61 1  
    64   23   62 1  
    65   24   63 1  
    66   25   64 1  
    67   25   65 1  
    68   25   66 1  
    69   26   67 1  
    70   26   68 1  
    71   26   69 1  
    72   28   70 1  
    73   31   71 1  
    74   31   72 1  
    75   32   73 1  
    76   32   74 1  
    77   33   75 1  
    78   33   76 1  
    79   34   77 1  
    80   35   78 1  
    81   38   79 1  
    82   38   80 1  
    83   38   81 1  
@<TRIPOS>SUBSTRUCTURE
     1 PRO         1

