### 
### Created by X-TOOL on Mon Sep 10 21:13:11 2018
### 

@<TRIPOS>MOLECULE
4dgg_ligand
   54    58     1     0     0
SMALL
GAST_HUCK


@<TRIPOS>ATOM
      1 CAA        -8.1100  -40.8200    5.1400 C.3       1 I76        -0.0338
      2 CBE        -8.8210  -39.5710    4.5810 C.3       1 I76         0.0755
      3 CAB        -8.4360  -39.2830    3.1190 C.3       1 I76        -0.0338
      4 NBF        -8.4960  -38.4330    5.4500 N.pl3     1 I76        -0.1810
      5 NAS        -7.3660  -38.2020    5.8820 N.2       1 I76        -0.1941
      6 C4         -9.4140  -37.5650    5.8630 C.ar      1 I76         0.1635
      7 N3        -10.7440  -37.4630    5.6360 N.ar      1 I76        -0.2675
      8 C2        -11.4210  -36.4690    6.1940 C.ar      1 I76         0.0565
      9 N1        -10.8230  -35.5560    6.9680 N.ar      1 I76        -0.2656
     10 C6         -9.5020  -35.6020    7.2380 C.ar      1 I76         0.1274
     11 NAC        -8.9700  -34.6570    8.0160 N.pl3     1 I76        -0.3126
     12 C5         -8.7410  -36.6480    6.6750 C.ar      1 I76         0.0869
     13 CAZ        -7.4080  -37.1160    6.6540 C.2       1 I76         0.0707
     14 CAY        -6.2700  -36.6150    7.2870 C.ar      1 I76        -0.0104
     15 CAO        -6.1880  -36.3770    8.6640 C.ar      1 I76        -0.0505
     16 CAI        -5.1350  -36.4380    6.5050 C.ar      1 I76        -0.0571
     17 CAK        -3.9380  -35.9830    7.0410 C.ar      1 I76        -0.0594
     18 CBA        -3.8540  -35.7230    8.3950 C.ar      1 I76        -0.0285
     19 CAN        -2.6400  -35.2680    8.9080 C.ar      1 I76        -0.0286
     20 CBB        -4.9780  -35.9170    9.2140 C.ar      1 I76        -0.0244
     21 CAJ        -4.8700  -35.6500   10.5780 C.ar      1 I76        -0.0563
     22 CAH        -3.6510  -35.1910   11.0960 C.ar      1 I76        -0.0271
     23 CAW        -2.5330  -35.0070   10.2720 C.ar      1 I76         0.0953
     24 OAT        -1.3590  -34.5210   10.7850 O.3       1 I76        -0.3046
     25 CAP        -0.2380  -35.3960   11.0100 C.3       1 I76         0.1047
     26 CAV         0.5850  -35.0880   12.0910 C.ar      1 I76        -0.0123
     27 CAM         0.2310  -34.0210   12.9060 C.ar      1 I76        -0.0439
     28 CAU         1.0170  -33.6880   14.0010 C.ar      1 I76         0.0339
     29 CLD         0.5320  -32.3620   15.0010 Cl        1 I76        -0.0725
     30 CAF         2.1690  -34.4170   14.2890 C.ar      1 I76        -0.0548
     31 CAE         2.5320  -35.4850   13.4690 C.ar      1 I76        -0.0680
     32 CAG         1.7370  -35.8240   12.3730 C.ar      1 I76        -0.0576
     33 H          -7.0334  -40.6498    5.1496 H         1 I76         0.0259
     34 H          -8.4581  -41.0108    6.1552 H         1 I76         0.0259
     35 H          -8.3377  -41.6791    4.5089 H         1 I76         0.0259
     36 H          -9.8967  -39.7466    4.5759 H         1 I76         0.0655
     37 H          -8.9824  -38.4083    2.7663 H         1 I76         0.0259
     38 H          -7.3645  -39.0928    3.0575 H         1 I76         0.0259
     39 H          -8.6894  -40.1447    2.5014 H         1 I76         0.0259
     40 H         -12.4939  -36.3935    6.0174 H         1 I76         0.1030
     41 H          -7.9720  -34.6716    8.2262 H         1 I76         0.1842
     42 H          -9.5614  -33.9202    8.4004 H         1 I76         0.1842
     43 H          -7.0538  -36.5466    9.3040 H         1 I76         0.0618
     44 H          -5.1861  -36.6630    5.4397 H         1 I76         0.0611
     45 H          -3.0708  -35.8320    6.3981 H         1 I76         0.0592
     46 H          -1.7846  -35.1183    8.2493 H         1 I76         0.0499
     47 H          -5.7263  -35.7969   11.2362 H         1 I76         0.0618
     48 H          -3.5714  -34.9729   12.1610 H         1 I76         0.0590
     49 H           0.3889  -35.3173   10.1218 H         1 I76         0.0780
     50 H          -0.6602  -36.3782   11.2227 H         1 I76         0.0780
     51 H          -0.6665  -33.4432   12.6855 H         1 I76         0.0563
     52 H           2.7830  -34.1540   15.1504 H         1 I76         0.0565
     53 H           3.4361  -36.0547   13.6839 H         1 I76         0.0599
     54 H           2.0159  -36.6640   11.7369 H         1 I76         0.0559
@<TRIPOS>BOND
     1    1    2 1  
     2    2    3 1  
     3    2    4 1  
     4    4    5 1  
     5    4    6 1  
     6    5   13 2  
     7    6    7 ar 
     8    6   12 ar 
     9    7    8 ar 
    10    8    9 ar 
    11    9   10 ar 
    12   10   11 1  
    13   10   12 ar 
    14   12   13 1  
    15   13   14 1  
    16   14   15 ar 
    17   14   16 ar 
    18   15   20 ar 
    19   16   17 ar 
    20   17   18 ar 
    21   18   19 ar 
    22   18   20 ar 
    23   19   23 ar 
    24   20   21 ar 
    25   21   22 ar 
    26   22   23 ar 
    27   23   24 1  
    28   24   25 1  
    29   25   26 1  
    30   26   27 ar 
    31   26   32 ar 
    32   27   28 ar 
    33   28   29 1  
    34   28   30 ar 
    35   30   31 ar 
    36   31   32 ar 
    37    1   33 1  
    38    1   34 1  
    39    1   35 1  
    40    2   36 1  
    41    3   37 1  
    42    3   38 1  
    43    3   39 1  
    44    8   40 1  
    45   11   41 1  
    46   11   42 1  
    47   15   43 1  
    48   16   44 1  
    49   17   45 1  
    50   19   46 1  
    51   21   47 1  
    52   22   48 1  
    53   25   49 1  
    54   25   50 1  
    55   27   51 1  
    56   30   52 1  
    57   31   53 1  
    58   32   54 1  
@<TRIPOS>SUBSTRUCTURE
     1 I76         1

