### 
### Created by X-TOOL on Mon Sep 10 21:13:11 2018
### 

@<TRIPOS>MOLECULE
4dgm_ligand
   30    32     1     0     0
SMALL
GAST_HUCK


@<TRIPOS>ATOM
      1 CAG        22.4350    8.7470   16.2250 C.ar      1 AGI        -0.0519
      2 CAE        23.0090    8.4750   14.9890 C.ar      1 AGI        -0.0265
      3 CAM        23.8300    7.3580   14.8570 C.ar      1 AGI         0.0943
      4 OAB        24.3540    7.1430   13.6440 O.3       1 AGI        -0.3288
      5 CAF        24.1560    6.5310   15.9420 C.ar      1 AGI        -0.0265
      6 CAH        23.5850    6.7990   17.1760 C.ar      1 AGI        -0.0519
      7 CAP        22.7540    7.9170   17.2850 C.ar      1 AGI         0.0209
      8 CAQ        22.0970    8.1410   18.5790 C.2       1 AGI         0.1357
      9 OAL        22.3050    7.1490   19.4640 O.3       1 AGI        -0.2431
     10 CAJ        21.1960    9.1870   18.8090 C.2       1 AGI         0.0025
     11 CAR        20.5660    9.2340   20.0440 C.2       1 AGI         0.0968
     12 OAA        19.8050   10.1800   20.3150 O.2       1 AGI        -0.4276
     13 CAT        20.8620    8.1760   21.0560 C.ar      1 AGI         0.0767
     14 CAS        21.7160    7.1530   20.6940 C.ar      1 AGI         0.1290
     15 CAK        21.9980    6.1030   21.5730 C.ar      1 AGI        -0.0033
     16 CAN        21.4150    6.0860   22.8330 C.ar      1 AGI         0.0775
     17 OAC        21.6790    5.0730   23.7160 O.3       1 AGI        -0.3351
     18 CAI        20.5550    7.0980   23.1980 C.ar      1 AGI        -0.0086
     19 CAO        20.2790    8.1360   22.3260 C.ar      1 AGI         0.0935
     20 OAD        19.4350    9.0870   22.7710 O.3       1 AGI        -0.3326
     21 H1         21.7581    9.5837   16.3547 H         1 AGI         0.0640
     22 H2         22.8205    9.1226   14.1404 H         1 AGI         0.0561
     23 H3         23.6529    7.0271   13.0134 H         1 AGI         0.2508
     24 H4         24.8403    5.6995   15.8179 H         1 AGI         0.0561
     25 H5         23.7772    6.1606   18.0307 H         1 AGI         0.0640
     26 H6         20.9966    9.9374   18.0455 H         1 AGI         0.0374
     27 H7         22.6685    5.3061   21.2723 H         1 AGI         0.0401
     28 H8         22.6105    5.0508   23.9014 H         1 AGI         0.2494
     29 H9         20.0903    7.0810   24.1772 H         1 AGI         0.0403
     30 H10        19.3176    9.7455   22.0964 H         1 AGI         0.2503
@<TRIPOS>BOND
     1    1    2 ar 
     2    1    7 ar 
     3    2    3 ar 
     4    3    4 1  
     5    3    5 ar 
     6    5    6 ar 
     7    6    7 ar 
     8    7    8 1  
     9    8    9 1  
    10    8   10 2  
    11    9   14 1  
    12   10   11 1  
    13   11   12 2  
    14   11   13 1  
    15   13   14 ar 
    16   13   19 ar 
    17   14   15 ar 
    18   15   16 ar 
    19   16   17 1  
    20   16   18 ar 
    21   18   19 ar 
    22   19   20 1  
    23    1   21 1  
    24    2   22 1  
    25    4   23 1  
    26    5   24 1  
    27    6   25 1  
    28   10   26 1  
    29   15   27 1  
    30   17   28 1  
    31   18   29 1  
    32   20   30 1  
@<TRIPOS>SUBSTRUCTURE
     1 AGI         1

