### 
### Created by X-TOOL on Mon Sep 10 21:13:10 2018
### 

@<TRIPOS>MOLECULE
4dgn_ligand
   31    33     1     0     0
SMALL
GAST_HUCK


@<TRIPOS>ATOM
      1 C1         22.0320    6.1610   21.4750 C.ar      1 LU2        -0.0033
      2 O1         21.7400    5.1570   23.6370 O.3       1 LU2        -0.3351
      3 C2         21.4640    6.1600   22.7530 C.ar      1 LU2         0.0775
      4 O2         19.4520    9.1480   22.6590 O.3       1 LU2        -0.3326
      5 C3         20.6010    7.1740   23.1280 C.ar      1 LU2        -0.0086
      6 O3         19.7350   10.2230   20.2790 O.2       1 LU2        -0.4275
      7 C4         20.2870    8.1850   22.2350 C.ar      1 LU2         0.0935
      8 O4         22.2710    7.2150   19.3280 O.3       1 LU2        -0.2433
      9 C5         20.8580    8.2300   20.9580 C.ar      1 LU2         0.0767
     10 O5         24.8460    5.4670   15.8420 O.3       1 LU2        -0.3356
     11 C6         21.7280    7.2070   20.5930 C.ar      1 LU2         0.1290
     12 O6         24.3840    7.1870   13.6790 O.3       1 LU2        -0.3321
     13 C7         20.5150    9.2920   19.9610 C.2       1 LU2         0.0969
     14 C8         21.1090    9.2730   18.6940 C.2       1 LU2         0.0024
     15 C9         21.9920    8.2330   18.4590 C.2       1 LU2         0.1329
     16 C10        22.6490    8.0010   17.2010 C.ar      1 LU2         0.0117
     17 C11        23.4460    6.8450   17.1660 C.ar      1 LU2        -0.0240
     18 C12        24.0510    6.5640   15.9470 C.ar      1 LU2         0.1223
     19 C13        23.8190    7.4030   14.8780 C.ar      1 LU2         0.1233
     20 C14        23.0260    8.5390   14.9430 C.ar      1 LU2        -0.0339
     21 C15        22.4110    8.8520   16.1410 C.ar      1 LU2        -0.0626
     22 H1         22.6991    5.3627   21.1704 H         1 LU2         0.0401
     23 H2         22.6744    5.1343   23.8067 H         1 LU2         0.2494
     24 H3         19.3161    9.7777   21.9608 H         1 LU2         0.2503
     25 H4         20.1697    7.1773   24.1225 H         1 LU2         0.0403
     26 H5         25.1856    5.4070   14.9568 H         1 LU2         0.2443
     27 H6         24.1081    7.8649   13.0734 H         1 LU2         0.2472
     28 H7         20.8905   10.0284   17.9407 H         1 LU2         0.0375
     29 H8         23.5807    6.2117   18.0354 H         1 LU2         0.0550
     30 H9         22.8910    9.1692   14.0714 H         1 LU2         0.0530
     31 H10        21.7734    9.7228   16.2427 H         1 LU2         0.0553
@<TRIPOS>BOND
     1    1    3 ar 
     2   11    1 ar 
     3    3    2 1  
     4    3    5 ar 
     5    7    4 1  
     6    7    5 ar 
     7   13    6 2  
     8    9    7 ar 
     9    8   11 1  
    10   15    8 1  
    11   11    9 ar 
    12   13    9 1  
    13   18   10 1  
    14   19   12 1  
    15   14   13 1  
    16   15   14 2  
    17   16   15 1  
    18   17   16 ar 
    19   16   21 ar 
    20   18   17 ar 
    21   18   19 ar 
    22   19   20 ar 
    23   20   21 ar 
    24    1   22 1  
    25    2   23 1  
    26    4   24 1  
    27    5   25 1  
    28   10   26 1  
    29   12   27 1  
    30   14   28 1  
    31   17   29 1  
    32   20   30 1  
    33   21   31 1  
@<TRIPOS>SUBSTRUCTURE
     1 LU2         1

