### 
### Created by X-TOOL on Mon Sep 10 21:13:08 2018
### 

@<TRIPOS>MOLECULE
4dgr_ligand
   57    58     1     0     0
SMALL
GAST_HUCK


@<TRIPOS>ATOM
      1 C1         23.7010   19.9380   64.9440 C.2       1 3LV         0.0512
      2 O1         22.5420   19.8300   65.4290 O.co2     1 3LV        -0.5649
      3 C2         24.2600   18.7720   64.2340 C.ar      1 3LV        -0.0121
      4 O2         24.4110   20.9880   65.0310 O.co2     1 3LV        -0.5649
      5 C3         25.5240   18.8450   63.6840 C.ar      1 3LV        -0.0543
      6 C4         26.0260   17.7330   63.0080 C.ar      1 3LV         0.0271
      7 C5         25.2220   16.5930   62.9260 C.ar      1 3LV         0.0809
      8 N5         25.7720   15.4360   62.1820 N.am      1 3LV        -0.2101
      9 C6         23.9580   16.5300   63.4710 C.ar      1 3LV        -0.0430
     10 C7         23.4730   17.6350   64.1360 C.ar      1 3LV        -0.0681
     11 C8         27.4040   17.7960   62.4030 C.3       1 3LV        -0.0009
     12 N8         28.5330   17.4890   63.3000 N.4       1 3LV         0.2452
     13 C9         29.8090   17.6250   62.5680 C.3       1 3LV        -0.0310
     14 C10        30.9880   16.8420   63.0740 C.3       1 3LV        -0.0153
     15 C11        32.2470   16.9050   62.2260 C.3       1 3LV        -0.0605
     16 C12        28.5580   18.3760   64.4700 C.3       1 3LV        -0.0310
     17 C13        29.1320   19.7950   64.3170 C.3       1 3LV        -0.0153
     18 C14        28.6590   20.8450   65.3120 C.3       1 3LV        -0.0605
     19 C15        26.7970   14.4890   62.3830 C.2       1 3LV         0.2061
     20 O15        27.5610   14.5270   63.3760 O.2       1 3LV        -0.3849
     21 C16        26.9020   13.5810   61.2450 C.3       1 3LV         0.0462
     22 C17        26.1010   14.2620   60.1560 C.3       1 3LV        -0.0000
     23 C18        25.1130   15.1150   60.8940 C.3       1 3LV         0.1243
     24 C19        23.8440   14.3200   61.1120 C.3       1 3LV         0.0775
     25 O19        23.9850   13.2210   61.9490 O.3       1 3LV        -0.3919
     26 C20        24.6930   16.3600   60.1870 C.3       1 3LV         0.0775
     27 O20        25.6720   17.2620   59.8730 O.3       1 3LV        -0.3919
     28 H1         26.1150   19.7491   63.7757 H         1 3LV         0.0547
     29 H2         23.3587   15.6314   63.3787 H         1 3LV         0.0489
     30 H3         22.4839   17.6154   64.5790 H         1 3LV         0.0556
     31 H4         27.5525   18.8150   62.0163 H         1 3LV         0.0950
     32 H5         27.4356   17.0791   61.5693 H         1 3LV         0.0950
     33 H6         28.4371   16.5377   63.6191 H         1 3LV         0.2045
     34 H7         30.0878   18.6889   62.5872 H         1 3LV         0.0814
     35 H8         29.6275   17.3122   61.5292 H         1 3LV         0.0814
     36 H9         30.6845   15.7872   63.1468 H         1 3LV         0.0314
     37 H10        31.2384   17.2215   64.0756 H         1 3LV         0.0314
     38 H11        33.0353   16.2973   62.6943 H         1 3LV         0.0232
     39 H12        32.5856   17.9488   62.1493 H         1 3LV         0.0232
     40 H13        32.0317   16.5145   61.2204 H         1 3LV         0.0232
     41 H14        29.1515   17.8700   65.2457 H         1 3LV         0.0814
     42 H15        27.5192   18.4839   64.8152 H         1 3LV         0.0814
     43 H16        28.8706   20.1514   63.3097 H         1 3LV         0.0314
     44 H17        30.2258   19.7216   64.4076 H         1 3LV         0.0314
     45 H18        29.1446   21.8065   65.0890 H         1 3LV         0.0232
     46 H19        28.9229   20.5288   66.3320 H         1 3LV         0.0232
     47 H20        27.5677   20.9587   65.2341 H         1 3LV         0.0232
     48 H21        26.4731   12.5978   61.4887 H         1 3LV         0.0508
     49 H22        27.9514   13.4577   60.9391 H         1 3LV         0.0508
     50 H23        25.5832   13.5189   59.5318 H         1 3LV         0.0321
     51 H24        26.7534   14.8817   59.5233 H         1 3LV         0.0321
     52 H25        23.4911   13.9624   60.1334 H         1 3LV         0.0589
     53 H26        23.0905   14.9906   61.5509 H         1 3LV         0.0589
     54 H27        24.6245   12.6232   61.5799 H         1 3LV         0.2095
     55 H28        23.9628   16.8746   60.8289 H         1 3LV         0.0589
     56 H29        24.2071   16.0588   59.2472 H         1 3LV         0.0589
     57 H30        25.2841   18.0069   59.4289 H         1 3LV         0.2095
@<TRIPOS>BOND
     1    1    2 ar 
     2    1    3 1  
     3    1    4 ar 
     4    3    5 ar 
     5    3   10 ar 
     6    5    6 ar 
     7    6    7 ar 
     8    6   11 1  
     9    7    8 1  
    10    7    9 ar 
    11    8   19 am 
    12    8   23 1  
    13    9   10 ar 
    14   11   12 1  
    15   12   13 1  
    16   12   16 1  
    17   13   14 1  
    18   14   15 1  
    19   16   17 1  
    20   17   18 1  
    21   19   20 2  
    22   19   21 1  
    23   21   22 1  
    24   22   23 1  
    25   23   24 1  
    26   23   26 1  
    27   24   25 1  
    28   26   27 1  
    29    5   28 1  
    30    9   29 1  
    31   10   30 1  
    32   11   31 1  
    33   11   32 1  
    34   12   33 1  
    35   13   34 1  
    36   13   35 1  
    37   14   36 1  
    38   14   37 1  
    39   15   38 1  
    40   15   39 1  
    41   15   40 1  
    42   16   41 1  
    43   16   42 1  
    44   17   43 1  
    45   17   44 1  
    46   18   45 1  
    47   18   46 1  
    48   18   47 1  
    49   21   48 1  
    50   21   49 1  
    51   22   50 1  
    52   22   51 1  
    53   24   52 1  
    54   24   53 1  
    55   25   54 1  
    56   26   55 1  
    57   26   56 1  
    58   27   57 1  
@<TRIPOS>SUBSTRUCTURE
     1 3LV         1

