### 
### Created by X-TOOL on Mon Sep 10 21:13:11 2018
### 

@<TRIPOS>MOLECULE
4dh6_ligand
   84    88     1     0     0
SMALL
GAST_HUCK


@<TRIPOS>ATOM
      1 C29        62.9460   44.3320    9.4040 C.3       1 0KN        -0.0189
      2 C30        61.4210   44.4750    9.2920 C.3       1 0KN        -0.0471
      3 C31        61.5390   45.9820    9.5360 C.3       1 0KN        -0.0189
      4 C18        63.0780   45.8550    9.5440 C.3       1 0KN         0.0993
      5 C19        63.7480   46.4820    8.3090 C.3       1 0KN         0.0333
      6 O17        63.7120   46.2250   10.7860 O.3       1 0KN        -0.3000
      7 C16        63.9570   47.5610   10.9730 C.ar      1 0KN         0.1660
      8 N23        64.1600   47.9840   12.2390 N.ar      1 0KN        -0.2897
      9 C22        64.4100   49.2540   12.5300 C.ar      1 0KN        -0.0070
     10 C21        64.4720   50.2100   11.5160 C.ar      1 0KN        -0.0334
     11 C24        64.7580   51.6820   11.8590 C.3       1 0KN        -0.0149
     12 C25        63.5280   52.4430   12.3770 C.3       1 0KN        -0.0285
     13 C27        63.9750   53.7740   12.9780 C.3       1 0KN        -0.0583
     14 C28        62.7770   51.6490   13.4510 C.3       1 0KN        -0.0583
     15 C26        62.5700   52.7390   11.2180 C.3       1 0KN        -0.0583
     16 C20        64.2750   49.8120   10.1910 C.ar      1 0KN        -0.0421
     17 C15        64.0190   48.4710    9.9050 C.ar      1 0KN         0.0561
     18 C6         63.7940   48.0160    8.4360 C.3       1 0KN         0.0175
     19 N5         64.8160   48.5710    7.5120 N.4       1 0KN         0.2427
     20 C4         66.2250   48.3060    7.8900 C.3       1 0KN        -0.0031
     21 C3         67.1260   49.2910    7.1440 C.3       1 0KN         0.1191
     22 O14        66.7410   50.6170    7.5050 O.3       1 0KN        -0.3841
     23 C2         68.6200   49.1030    7.4450 C.3       1 0KN         0.0808
     24 N1         69.1080   47.7600    7.1050 N.am      1 0KN        -0.2773
     25 C35        69.3860   46.8360    8.0230 C.2       1 0KN         0.2053
     26 O36        69.1660   46.9620    9.2290 O.2       1 0KN        -0.3942
     27 C37        69.9270   45.5080    7.5160 C.3       1 0KN         0.1438
     28 C38        71.4500   45.5930    7.3670 C.3       1 0KN        -0.0211
     29 O39        69.5050   44.5010    8.4450 O.3       1 0KN        -0.3598
     30 C40        68.3020   43.8770    7.9600 C.3       1 0KN         0.0398
     31 C7         69.5120   50.0720    6.6550 C.3       1 0KN        -0.0009
     32 C8         70.9470   49.8950    7.1390 C.ar      1 0KN        -0.0603
     33 C9         71.9800   49.5490    6.2720 C.ar      1 0KN        -0.0396
     34 C10        73.2680   49.4030    6.7970 C.ar      1 0KN         0.1170
     35 O32        74.4520   49.0810    6.2020 O.3       1 0KN        -0.2927
     36 C33        75.2830   48.6350    7.3060 C.3       1 0KN         0.1854
     37 O34        74.8300   49.3930    8.4360 O.3       1 0KN        -0.2956
     38 C11        73.5140   49.5940    8.1670 C.ar      1 0KN         0.1160
     39 C12        72.4800   49.9320    9.0150 C.ar      1 0KN        -0.0478
     40 C13        71.2030   50.0810    8.4930 C.ar      1 0KN        -0.0800
     41 H1         63.4259   43.9205    8.5038 H         1 0KN         0.0297
     42 H2         63.2806   43.7691   10.2878 H         1 0KN         0.0297
     43 H3         60.8618   43.9371   10.0717 H         1 0KN         0.0267
     44 H4         61.0174   44.2113    8.3033 H         1 0KN         0.0267
     45 H5         61.1104   46.3179   10.4918 H         1 0KN         0.0297
     46 H6         61.1431   46.6024    8.7185 H         1 0KN         0.0297
     47 H7         63.1747   46.2110    7.4102 H         1 0KN         0.0374
     48 H8         64.7742   46.0960    8.2196 H         1 0KN         0.0374
     49 H9         64.5669   49.5503   13.5609 H         1 0KN         0.0662
     50 H10        65.1221   52.1861   10.9517 H         1 0KN         0.0424
     51 H11        65.5380   51.7133   12.6339 H         1 0KN         0.0424
     52 H12        63.0966   54.3217   13.3500 H         1 0KN         0.0236
     53 H13        64.4810   54.3731   12.2067 H         1 0KN         0.0236
     54 H14        64.6692   53.5858   13.8102 H         1 0KN         0.0236
     55 H15        62.4482   50.6863   13.0325 H         1 0KN         0.0236
     56 H16        61.8996   52.2225   13.7847 H         1 0KN         0.0236
     57 H17        63.4440   51.4681   14.3068 H         1 0KN         0.0236
     58 H18        63.0999   53.3093   10.4408 H         1 0KN         0.0236
     59 H19        61.7178   53.3279   11.5880 H         1 0KN         0.0236
     60 H20        62.2048   51.7923   10.7932 H         1 0KN         0.0236
     61 H21        64.3209   50.5411    9.3902 H         1 0KN         0.0584
     62 H22        62.8149   48.4061    8.1212 H         1 0KN         0.1009
     63 H23        64.6878   49.5699    7.4701 H         1 0KN         0.2031
     64 H24        64.6588   48.1734    6.5992 H         1 0KN         0.2031
     65 H25        66.4948   47.2758    7.6144 H         1 0KN         0.0840
     66 H26        66.3487   48.4397    8.9748 H         1 0KN         0.0840
     67 H27        66.9726   49.1506    6.0638 H         1 0KN         0.0672
     68 H28        67.2929   51.2411    7.0486 H         1 0KN         0.2101
     69 H29        68.7666   49.2761    8.5213 H         1 0KN         0.0604
     70 H30        69.2374   47.5290    6.1407 H         1 0KN         0.1857
     71 H31        69.4943   45.2858    6.5294 H         1 0KN         0.0837
     72 H32        71.8368   44.6308    7.0002 H         1 0KN         0.0279
     73 H33        71.9018   45.8215    8.3435 H         1 0KN         0.0279
     74 H34        71.7045   46.3876    6.6502 H         1 0KN         0.0279
     75 H35        67.9772   43.1040    8.6721 H         1 0KN         0.0526
     76 H36        68.4976   43.4148    6.9812 H         1 0KN         0.0526
     77 H37        67.5118   44.6352    7.8562 H         1 0KN         0.0526
     78 H38        69.1844   51.1074    6.8300 H         1 0KN         0.0427
     79 H39        69.4500   49.8444    5.5806 H         1 0KN         0.0427
     80 H40        71.7905   49.3965    5.2156 H         1 0KN         0.0450
     81 H41        76.3437   48.8421    7.1008 H         1 0KN         0.0970
     82 H42        75.1471   47.5578    7.4826 H         1 0KN         0.0970
     83 H43        72.6623   50.0790   10.0734 H         1 0KN         0.0493
     84 H44        70.3873   50.3482    9.1551 H         1 0KN         0.0436
@<TRIPOS>BOND
     1    1    2 1  
     2    1    4 1  
     3    2    3 1  
     4    3    4 1  
     5    4    5 1  
     6    4    6 1  
     7    5   18 1  
     8    6    7 1  
     9    7    8 ar 
    10    7   17 ar 
    11    8    9 ar 
    12    9   10 ar 
    13   10   11 1  
    14   10   16 ar 
    15   11   12 1  
    16   12   13 1  
    17   12   14 1  
    18   12   15 1  
    19   16   17 ar 
    20   17   18 1  
    21   18   19 1  
    22   19   20 1  
    23   20   21 1  
    24   21   22 1  
    25   21   23 1  
    26   23   24 1  
    27   23   31 1  
    28   24   25 am 
    29   25   26 2  
    30   25   27 1  
    31   27   28 1  
    32   27   29 1  
    33   29   30 1  
    34   31   32 1  
    35   32   33 ar 
    36   32   40 ar 
    37   33   34 ar 
    38   34   35 1  
    39   34   38 ar 
    40   35   36 1  
    41   36   37 1  
    42   37   38 1  
    43   38   39 ar 
    44   39   40 ar 
    45    1   41 1  
    46    1   42 1  
    47    2   43 1  
    48    2   44 1  
    49    3   45 1  
    50    3   46 1  
    51    5   47 1  
    52    5   48 1  
    53    9   49 1  
    54   11   50 1  
    55   11   51 1  
    56   13   52 1  
    57   13   53 1  
    58   13   54 1  
    59   14   55 1  
    60   14   56 1  
    61   14   57 1  
    62   15   58 1  
    63   15   59 1  
    64   15   60 1  
    65   16   61 1  
    66   18   62 1  
    67   19   63 1  
    68   19   64 1  
    69   20   65 1  
    70   20   66 1  
    71   21   67 1  
    72   22   68 1  
    73   23   69 1  
    74   24   70 1  
    75   27   71 1  
    76   28   72 1  
    77   28   73 1  
    78   28   74 1  
    79   30   75 1  
    80   30   76 1  
    81   30   77 1  
    82   31   78 1  
    83   31   79 1  
    84   33   80 1  
    85   36   81 1  
    86   36   82 1  
    87   39   83 1  
    88   40   84 1  
@<TRIPOS>SUBSTRUCTURE
     1 0KN         1

