### 
### Created by X-TOOL on Mon Sep 10 21:13:08 2018
### 

@<TRIPOS>MOLECULE
4dhl_ligand
   23    24     1     0     0
SMALL
GAST_HUCK


@<TRIPOS>ATOM
      1 CAF       -70.1390   33.3710  -45.7470 C.ar      1 0K7        -0.0523
      2 CAD       -70.3560   33.4110  -47.1200 C.ar      1 0K7        -0.0553
      3 CAL       -71.4880   34.0300  -47.6350 C.ar      1 0K7        -0.0416
      4 CAA       -71.7080   34.0720  -49.1120 C.3       1 0K7        -0.0290
      5 CAE       -72.4140   34.6060  -46.7700 C.ar      1 0K7        -0.0553
      6 CAG       -72.2020   34.5610  -45.3950 C.ar      1 0K7        -0.0523
      7 CAM       -71.0630   33.9440  -44.8780 C.ar      1 0K7         0.0144
      8 CAO       -70.8420   33.8910  -43.3970 C.2       1 0K7         0.1101
      9 NAI       -70.2050   32.9090  -42.7110 N.2       1 0K7        -0.3013
     10 SAJ       -71.3740   35.0350  -42.2650 S.3       1 0K7         0.0000
     11 CAH       -70.7660   34.2740  -40.8750 C.2       1 0K7         0.0288
     12 CAN       -70.1530   33.1020  -41.3500 C.2       1 0K7         0.0557
     13 CAK       -69.4860   32.1530  -40.4240 C.2       1 0K7         0.0612
     14 OAC       -69.9130   32.0250  -39.2660 O.co2     1 0K7        -0.5645
     15 OAB       -68.4800   31.5020  -40.7720 O.co2     1 0K7        -0.5645
     16 H1        -69.2493   32.8931  -45.3531 H         1 0K7         0.0642
     17 H2        -69.6375   32.9564  -47.7925 H         1 0K7         0.0570
     18 H3        -72.6493   34.5988  -49.3276 H         1 0K7         0.0402
     19 H4        -71.7642   33.0457  -49.5037 H         1 0K7         0.0402
     20 H5        -70.8726   34.6025  -49.5922 H         1 0K7         0.0402
     21 H6        -73.2995   35.0892  -47.1668 H         1 0K7         0.0570
     22 H7        -72.9257   35.0077  -44.7228 H         1 0K7         0.0642
     23 H8        -70.8355   34.6176  -39.8440 H         1 0K7         0.0829
@<TRIPOS>BOND
     1    1    2 ar 
     2    1    7 ar 
     3    2    3 ar 
     4    3    4 1  
     5    3    5 ar 
     6    5    6 ar 
     7    6    7 ar 
     8    7    8 1  
     9    8    9 2  
    10    8   10 1  
    11    9   12 1  
    12   10   11 1  
    13   11   12 2  
    14   12   13 1  
    15   13   14 ar 
    16   13   15 ar 
    17    1   16 1  
    18    2   17 1  
    19    4   18 1  
    20    4   19 1  
    21    4   20 1  
    22    5   21 1  
    23    6   22 1  
    24   11   23 1  
@<TRIPOS>SUBSTRUCTURE
     1 0K7         1

