### 
### Created by X-TOOL on Mon Sep 10 21:13:10 2018
### 

@<TRIPOS>MOLECULE
4di2_ligand
   87    91     1     0     0
SMALL
GAST_HUCK


@<TRIPOS>ATOM
      1 C24        27.5020    0.2960   11.6700 C.3       1 0K9        -0.0189
      2 C25        28.0810   -1.0320   11.1450 C.3       1 0K9        -0.0471
      3 C26        29.2960   -0.2830   10.5860 C.3       1 0K9        -0.0189
      4 C18        28.7770    1.0150   11.2310 C.3       1 0K9         0.0993
      5 C19        29.6360    1.4710   12.4240 C.3       1 0K9         0.0333
      6 O17        28.4980    2.0840   10.3030 O.3       1 0K9        -0.3000
      7 C16        29.5780    2.8130    9.9040 C.ar      1 0K9         0.1660
      8 N23        29.4230    3.5570    8.7930 N.ar      1 0K9        -0.2897
      9 C22        30.4070    4.3020    8.3130 C.ar      1 0K9        -0.0070
     10 C21        31.6490    4.3450    8.9440 C.ar      1 0K9        -0.0334
     11 C27        32.7720    5.2070    8.3370 C.3       1 0K9        -0.0149
     12 C28        33.5630    4.4350    7.2380 C.3       1 0K9        -0.0285
     13 C30        32.6220    3.7560    6.2300 C.3       1 0K9        -0.0583
     14 C31        34.4850    3.3860    7.8570 C.3       1 0K9        -0.0583
     15 C29        34.4350    5.4190    6.4540 C.3       1 0K9        -0.0583
     16 C20        31.8550    3.5890   10.1020 C.ar      1 0K9        -0.0421
     17 C15        30.8030    2.8160   10.6060 C.ar      1 0K9         0.0561
     18 C14        30.9990    1.9730   11.8970 C.3       1 0K9         0.0175
     19 N4         31.7140    2.7350   12.9620 N.4       1 0K9         0.2427
     20 C3         31.0660    4.0210   13.3300 C.3       1 0K9        -0.0031
     21 C2         32.1010    4.9720   13.9810 C.3       1 0K9         0.1193
     22 O5         33.2450    5.0620   13.1410 O.3       1 0K9        -0.3841
     23 C1         31.5700    6.4040   14.2400 C.3       1 0K9         0.0823
     24 N6         30.2940    6.3690   14.9830 N.am      1 0K9        -0.2771
     25 C33        29.1130    6.5630   14.3880 C.2       1 0K9         0.2054
     26 O34        28.9900    6.7860   13.1830 O.2       1 0K9        -0.3942
     27 C35        27.8340    6.5140   15.2230 C.3       1 0K9         0.1438
     28 C42        27.2390    5.1100   15.1770 C.3       1 0K9        -0.0211
     29 O36        28.1260    6.8720   16.5750 O.3       1 0K9        -0.3598
     30 C37        27.8590    8.2570   16.7610 C.3       1 0K9         0.0398
     31 C7         32.6220    7.2620   14.9790 C.3       1 0K9         0.0072
     32 C8         32.0680    8.5880   15.5200 C.ar      1 0K9        -0.0370
     33 C9         31.5920    8.6330   16.8270 C.ar      1 0K9        -0.0456
     34 C13        32.0380    9.7420   14.7370 C.ar      1 0K9        -0.0571
     35 C12        31.5230   10.9300   15.2700 C.ar      1 0K9        -0.0643
     36 C11        31.0440   10.9650   16.5860 C.ar      1 0K9        -0.0535
     37 C10        31.0880    9.8050   17.3710 C.ar      1 0K9         0.0131
     38 C32        30.5850    9.7720   18.6730 C.2       1 0K9         0.1106
     39 N38        29.5530   10.4620   19.1700 N.2       1 0K9        -0.3113
     40 C39        29.2560   10.1980   20.4580 C.2       1 0K9        -0.0144
     41 C40        30.0150    9.2690   21.0590 C.2       1 0K9         0.0120
     42 S41        31.1360    8.7330   19.9090 S.3       1 0K9        -0.0055
     43 H1         27.3266    0.3129   12.7558 H         1 0K9         0.0297
     44 H2         26.5939    0.6296   11.1466 H         1 0K9         0.0297
     45 H3         27.4619   -1.5193   10.3773 H         1 0K9         0.0267
     46 H4         28.3255   -1.7582   11.9342 H         1 0K9         0.0267
     47 H5         29.3413   -0.2537    9.4873 H         1 0K9         0.0297
     48 H6         30.2613   -0.6294   10.9837 H         1 0K9         0.0297
     49 H7         29.7941    0.6255   13.1097 H         1 0K9         0.0374
     50 H8         29.1240    2.2852   12.9577 H         1 0K9         0.0374
     51 H9         30.2440    4.8875    7.4154 H         1 0K9         0.0662
     52 H10        33.4678    5.5004    9.1369 H         1 0K9         0.0424
     53 H11        32.3271    6.1079    7.8892 H         1 0K9         0.0424
     54 H12        33.2174    3.2238    5.4736 H         1 0K9         0.0236
     55 H13        32.0005    4.5183    5.7375 H         1 0K9         0.0236
     56 H14        31.9747    3.0399    6.7575 H         1 0K9         0.0236
     57 H15        35.1591    3.8705    8.5787 H         1 0K9         0.0236
     58 H16        35.0791    2.9068    7.0649 H         1 0K9         0.0236
     59 H17        33.8807    2.6255    8.3732 H         1 0K9         0.0236
     60 H18        33.7973    6.1889    5.9951 H         1 0K9         0.0236
     61 H19        34.9811    4.8784    5.6669 H         1 0K9         0.0236
     62 H20        35.1532    5.8969    7.1365 H         1 0K9         0.0236
     63 H21        32.8165    3.6015   10.6025 H         1 0K9         0.0584
     64 H22        31.6121    1.0971   11.6383 H         1 0K9         0.1009
     65 H23        32.6473    2.9330   12.6367 H         1 0K9         0.2031
     66 H24        31.7610    2.1573   13.7867 H         1 0K9         0.2031
     67 H25        30.2514    3.8269   14.0433 H         1 0K9         0.0840
     68 H26        30.6563    4.4939   12.4253 H         1 0K9         0.0840
     69 H27        32.3980    4.5385   14.9474 H         1 0K9         0.0672
     70 H28        33.8823    5.6447   13.5371 H         1 0K9         0.2101
     71 H29        31.3784    6.8738   13.2640 H         1 0K9         0.0606
     72 H30        30.3144    6.1937   15.9673 H         1 0K9         0.1857
     73 H31        27.1060    7.2278   14.8100 H         1 0K9         0.0837
     74 H32        26.3192    5.0817   15.7797 H         1 0K9         0.0279
     75 H33        27.9654    4.3904   15.5826 H         1 0K9         0.0279
     76 H34        27.0033    4.8456   14.1356 H         1 0K9         0.0279
     77 H35        28.0825    8.5370   17.8010 H         1 0K9         0.0526
     78 H36        26.7989    8.4581   16.5469 H         1 0K9         0.0526
     79 H37        28.4891    8.8467   16.0790 H         1 0K9         0.0526
     80 H38        33.4401    7.4874   14.2790 H         1 0K9         0.0449
     81 H39        33.0137    6.6784   15.8252 H         1 0K9         0.0449
     82 H40        31.6156    7.7339   17.4320 H         1 0K9         0.0589
     83 H41        32.4119    9.7192   13.7198 H         1 0K9         0.0583
     84 H42        31.4948   11.8267   14.6616 H         1 0K9         0.0608
     85 H43        30.6414   11.8846   16.9950 H         1 0K9         0.0598
     86 H44        28.4479   10.7085   20.9799 H         1 0K9         0.0585
     87 H45        29.9269    8.9257   22.0887 H         1 0K9         0.0760
@<TRIPOS>BOND
     1    1    2 1  
     2    1    4 1  
     3    2    3 1  
     4    3    4 1  
     5    4    5 1  
     6    4    6 1  
     7    5   18 1  
     8    6    7 1  
     9    7    8 ar 
    10    7   17 ar 
    11    8    9 ar 
    12    9   10 ar 
    13   10   11 1  
    14   10   16 ar 
    15   11   12 1  
    16   12   13 1  
    17   12   14 1  
    18   12   15 1  
    19   16   17 ar 
    20   17   18 1  
    21   18   19 1  
    22   19   20 1  
    23   20   21 1  
    24   21   22 1  
    25   21   23 1  
    26   23   24 1  
    27   23   31 1  
    28   24   25 am 
    29   25   26 2  
    30   25   27 1  
    31   27   28 1  
    32   27   29 1  
    33   29   30 1  
    34   31   32 1  
    35   32   33 ar 
    36   32   34 ar 
    37   33   37 ar 
    38   34   35 ar 
    39   35   36 ar 
    40   36   37 ar 
    41   37   38 1  
    42   38   39 2  
    43   38   42 1  
    44   39   40 1  
    45   40   41 2  
    46   41   42 1  
    47    1   43 1  
    48    1   44 1  
    49    2   45 1  
    50    2   46 1  
    51    3   47 1  
    52    3   48 1  
    53    5   49 1  
    54    5   50 1  
    55    9   51 1  
    56   11   52 1  
    57   11   53 1  
    58   13   54 1  
    59   13   55 1  
    60   13   56 1  
    61   14   57 1  
    62   14   58 1  
    63   14   59 1  
    64   15   60 1  
    65   15   61 1  
    66   15   62 1  
    67   16   63 1  
    68   18   64 1  
    69   19   65 1  
    70   19   66 1  
    71   20   67 1  
    72   20   68 1  
    73   21   69 1  
    74   22   70 1  
    75   23   71 1  
    76   24   72 1  
    77   27   73 1  
    78   28   74 1  
    79   28   75 1  
    80   28   76 1  
    81   30   77 1  
    82   30   78 1  
    83   30   79 1  
    84   31   80 1  
    85   31   81 1  
    86   33   82 1  
    87   34   83 1  
    88   35   84 1  
    89   36   85 1  
    90   40   86 1  
    91   41   87 1  
@<TRIPOS>SUBSTRUCTURE
     1 0K9         1

