### 
### Created by X-TOOL on Mon Sep 10 21:13:10 2018
### 

@<TRIPOS>MOLECULE
4dij_ligand
   70    75     1     0     0
SMALL
GAST_HUCK


@<TRIPOS>ATOM
      1 CL1        12.7090   -9.0750   18.8870 Cl        1 BLF        -0.0771
      2 C2         12.0520   -7.6310   18.1510 C.ar      1 BLF         0.0289
      3 CL2         8.7670   -6.0910   22.2560 Cl        1 BLF        -0.0771
      4 C3         12.7340   -6.4230   18.3160 C.ar      1 BLF        -0.0254
      5 C5         12.1610   -5.3010   17.7070 C.ar      1 BLF         0.0712
      6 N6         12.5870   -4.0290   17.7100 N.pl3     1 BLF        -0.2643
      7 C8         11.7800   -3.2440   17.0240 C.2       1 BLF         0.1460
      8 C9         10.7620   -3.9760   16.5050 C.2       1 BLF         0.0356
      9 C10        10.9960   -5.3890   16.9740 C.ar      1 BLF        -0.0037
     10 C11        10.3070   -6.5850   16.7980 C.ar      1 BLF        -0.0686
     11 C13        10.8650   -7.7180   17.4000 C.ar      1 BLF        -0.0616
     12 C15         9.5420   -3.6910   15.7060 C.2       1 BLF         0.0852
     13 N16         8.4990   -3.0080   16.1850 N.pl3     1 BLF        -0.2315
     14 C17         7.5430   -2.9440   15.2960 C.2       1 BLF         0.1011
     15 N19         7.8920   -3.5820   14.2700 N.2       1 BLF        -0.3181
     16 C20         9.2090   -4.1250   14.4630 C.2       1 BLF         0.0297
     17 C21         9.9100   -4.9320   13.3980 C.ar      1 BLF        -0.0299
     18 C22        11.3070   -4.9210   13.3500 C.ar      1 BLF        -0.0626
     19 C24        11.9860   -5.6430   12.3550 C.ar      1 BLF        -0.0677
     20 C26        11.2530   -6.3720   11.4080 C.ar      1 BLF        -0.0676
     21 C28         9.8570   -6.3800   11.4430 C.ar      1 BLF        -0.0677
     22 C30         9.1840   -5.6520   12.4330 C.ar      1 BLF        -0.0626
     23 C32         8.4020   -2.3500   17.4820 C.3       1 BLF         0.0921
     24 C35         8.4870   -3.3210   18.6600 C.ar      1 BLF        -0.0124
     25 C36         7.8890   -4.5910   18.6150 C.ar      1 BLF        -0.0570
     26 C38         7.9810   -5.4480   19.7210 C.ar      1 BLF        -0.0545
     27 C40         8.6630   -5.0230   20.8690 C.ar      1 BLF         0.0330
     28 C41         9.2600   -3.7520   20.9160 C.ar      1 BLF        -0.0545
     29 C43         9.1770   -2.8980   19.8040 C.ar      1 BLF        -0.0570
     30 C46        12.0350   -1.8030   16.8540 C.2       1 BLF         0.2279
     31 O47        12.9800   -1.3500   17.4920 O.2       1 BLF        -0.3852
     32 N48        11.2970   -1.0570   16.0050 N.am      1 BLF        -0.2802
     33 C50        11.5740    0.3650   15.8210 C.3       1 BLF         0.0700
     34 C53        11.4420    0.7060   14.3170 C.3       1 BLF        -0.0112
     35 N56        10.0940    0.3220   13.8200 N.4       1 BLF         0.2399
     36 C57        10.0240    0.0680   12.3590 C.3       1 BLF        -0.0078
     37 C60         8.6370   -0.5130   11.9940 C.3       1 BLF         0.0878
     38 O63         7.5890    0.3420   12.4850 O.3       1 BLF        -0.3693
     39 C64         7.6240    0.5300   13.9140 C.3       1 BLF         0.0878
     40 C67         8.9770    1.1740   14.3090 C.3       1 BLF        -0.0078
     41 H1         13.6551   -6.3585   18.8838 H         1 BLF         0.0558
     42 H2         13.4394   -3.7055   18.1892 H         1 BLF         0.2279
     43 H3          9.3879   -6.6361   16.2256 H         1 BLF         0.0564
     44 H4         10.3752   -8.6783   17.2861 H         1 BLF         0.0530
     45 H5          6.5959   -2.4218   15.4234 H         1 BLF         0.1240
     46 H6         11.8682   -4.3532   14.0833 H         1 BLF         0.0569
     47 H7         13.0694   -5.6367   12.3195 H         1 BLF         0.0601
     48 H8         11.7745   -6.9344   10.6419 H         1 BLF         0.0568
     49 H9          9.2969   -6.9466   10.7079 H         1 BLF         0.0601
     50 H10         8.1002   -5.6439   12.4550 H         1 BLF         0.0569
     51 H11         7.4389   -1.8211   17.5342 H         1 BLF         0.0784
     52 H12         9.2240   -1.6242   17.5678 H         1 BLF         0.0784
     53 H13         7.3566   -4.9085   17.7257 H         1 BLF         0.0558
     54 H14         7.5278   -6.4322   19.6882 H         1 BLF         0.0606
     55 H15         9.7838   -3.4310   21.8091 H         1 BLF         0.0606
     56 H16         9.6429   -1.9196   19.8305 H         1 BLF         0.0558
     57 H17        10.5503   -1.4839   15.4950 H         1 BLF         0.1841
     58 H18        12.5947    0.5906   16.1634 H         1 BLF         0.0572
     59 H19        10.8529    0.9605   16.4001 H         1 BLF         0.0572
     60 H20        12.2082    0.1559   13.7510 H         1 BLF         0.0834
     61 H21        11.5871    1.7871   14.1754 H         1 BLF         0.0834
     62 H22         9.9254   -0.5783   14.2409 H         1 BLF         0.2036
     63 H23        10.8070   -0.6506   12.0753 H         1 BLF         0.0837
     64 H24        10.1787    1.0122   11.8163 H         1 BLF         0.0837
     65 H25         8.5319   -1.5106   12.4454 H         1 BLF         0.0613
     66 H26         8.5550   -0.5949   10.9001 H         1 BLF         0.0613
     67 H27         7.5191   -0.4431   14.4160 H         1 BLF         0.0613
     68 H28         6.7990    1.1907   14.2187 H         1 BLF         0.0613
     69 H29         9.0531    2.1736   13.8563 H         1 BLF         0.0837
     70 H30         9.0352    1.2619   15.4039 H         1 BLF         0.0837
@<TRIPOS>BOND
     1    2    1 1  
     2    4    2 ar 
     3   11    2 ar 
     4   27    3 1  
     5    5    4 ar 
     6    5    6 1  
     7    9    5 ar 
     8    7    6 1  
     9    8    7 2  
    10    7   30 1  
    11    8    9 1  
    12   12    8 1  
    13    9   10 ar 
    14   10   11 ar 
    15   13   12 1  
    16   12   16 2  
    17   13   14 1  
    18   23   13 1  
    19   14   15 2  
    20   15   16 1  
    21   16   17 1  
    22   17   18 ar 
    23   17   22 ar 
    24   18   19 ar 
    25   19   20 ar 
    26   21   20 ar 
    27   22   21 ar 
    28   24   23 1  
    29   25   24 ar 
    30   24   29 ar 
    31   26   25 ar 
    32   26   27 ar 
    33   27   28 ar 
    34   28   29 ar 
    35   30   31 2  
    36   30   32 am 
    37   32   33 1  
    38   33   34 1  
    39   34   35 1  
    40   35   36 1  
    41   35   40 1  
    42   36   37 1  
    43   37   38 1  
    44   38   39 1  
    45   39   40 1  
    46    4   41 1  
    47    6   42 1  
    48   10   43 1  
    49   11   44 1  
    50   14   45 1  
    51   18   46 1  
    52   19   47 1  
    53   20   48 1  
    54   21   49 1  
    55   22   50 1  
    56   23   51 1  
    57   23   52 1  
    58   25   53 1  
    59   26   54 1  
    60   28   55 1  
    61   29   56 1  
    62   32   57 1  
    63   33   58 1  
    64   33   59 1  
    65   34   60 1  
    66   34   61 1  
    67   35   62 1  
    68   36   63 1  
    69   36   64 1  
    70   37   65 1  
    71   37   66 1  
    72   39   67 1  
    73   39   68 1  
    74   40   69 1  
    75   40   70 1  
@<TRIPOS>SUBSTRUCTURE
     1 BLF         1

