### 
### Created by X-TOOL on Mon Sep 10 21:13:11 2018
### 

@<TRIPOS>MOLECULE
4dj7_ligand
   87    89     1     0     0
SMALL
GAST_HUCK


@<TRIPOS>ATOM
      1 C1         56.7560  -19.8760   85.2120 C.2       1 SIA         0.1041
      2 C2         56.4630  -20.0570   86.6880 C.3       1 SIA         0.2208
      3 C3         57.7060  -19.4430   87.3420 C.3       1 SIA         0.0353
      4 C4         57.8280  -18.0120   86.8180 C.3       1 SIA         0.0850
      5 C5         56.6230  -17.2300   87.3210 C.3       1 SIA         0.0964
      6 C6         55.4440  -17.8800   86.6040 C.3       1 SIA         0.1143
      7 C7         54.1520  -17.0820   86.7270 C.3       1 SIA         0.1114
      8 C8         52.9380  -17.7810   86.1200 C.3       1 SIA         0.1065
      9 C9         51.7520  -16.8270   86.0490 C.3       1 SIA         0.0727
     10 C10        56.1850  -14.8650   87.7850 C.2       1 SIA         0.1733
     11 C11        55.5080  -15.3010   89.0520 C.3       1 SIA         0.0257
     12 N5         56.7210  -15.8150   87.0170 N.am      1 SIA        -0.2790
     13 O1A        55.9670  -19.1710   84.5350 O.co2     1 SIA        -0.5426
     14 O1B        57.8260  -20.3570   84.7430 O.co2     1 SIA        -0.5426
     15 O4         59.0860  -17.4010   87.1040 O.3       1 SIA        -0.3893
     16 O6         55.3270  -19.2380   87.0470 O.3       1 SIA        -0.3384
     17 O7         53.8850  -16.7930   88.0950 O.3       1 SIA        -0.3865
     18 O8         53.2450  -18.2490   84.8050 O.3       1 SIA        -0.3869
     19 O9         50.5800  -17.5850   85.7600 O.3       1 SIA        -0.3924
     20 O10        56.2490  -13.6820   87.4950 O.2       1 SIA        -0.3974
     21 C1         54.5870  -27.7960   91.4350 C.3       1 NAG         0.1823
     22 C2         54.1530  -26.9420   92.6190 C.3       1 NAG         0.1208
     23 C3         54.6220  -25.5000   92.4210 C.3       1 NAG         0.1114
     24 C4         55.6520  -25.3380   91.2910 C.3       1 NAG         0.1181
     25 C5         56.6060  -26.5330   91.1340 C.3       1 NAG         0.1133
     26 C6         57.8530  -26.3930   92.0130 C.3       1 NAG         0.0730
     27 C7         52.0940  -26.9820   93.9570 C.2       1 NAG         0.1733
     28 C8         50.5940  -27.0370   93.9380 C.3       1 NAG         0.0257
     29 N2         52.7070  -27.0000   92.7720 N.am      1 NAG        -0.2766
     30 O1         54.1000  -29.1120   91.6000 O.3       1 NAG        -0.3651
     31 O3         55.1680  -25.0180   93.6310 O.3       1 NAG        -0.3867
     32 O4         55.0400  -25.0340   90.0450 O.3       1 NAG        -0.3401
     33 O5         56.0000  -27.7990   91.3660 O.3       1 NAG        -0.3409
     34 O6         58.1800  -25.0250   92.1750 O.3       1 NAG        -0.3924
     35 O7         52.6960  -26.9140   95.0260 O.2       1 NAG        -0.3974
     36 C1         54.9650  -23.6040   89.8270 C.3       1 GAL         0.1884
     37 C2         55.7380  -23.1910   88.5650 C.3       1 GAL         0.1344
     38 C3         55.5590  -21.7070   88.2190 C.3       1 GAL         0.1197
     39 C4         54.0780  -21.3470   88.2910 C.3       1 GAL         0.1121
     40 C5         53.5360  -21.7590   89.6500 C.3       1 GAL         0.1130
     41 C6         52.1060  -21.2740   89.8660 C.3       1 GAL         0.0730
     42 O2         57.1110  -23.4990   88.6970 O.3       1 GAL        -0.3841
     43 O3         56.0670  -21.4420   86.9180 O.3       1 GAL        -0.3380
     44 O4         53.3900  -22.0780   87.3020 O.3       1 GAL        -0.3865
     45 O5         53.6220  -23.1650   89.7350 O.3       1 GAL        -0.3405
     46 O6         51.3690  -22.2350   90.5920 O.3       1 GAL        -0.3924
     47 H          58.5965  -20.0209   87.0947 H         1 SIA         0.0336
     48 H          57.6124  -19.4488   88.4280 H         1 SIA         0.0336
     49 H          57.8158  -18.0192   85.7281 H         1 SIA         0.0618
     50 H          56.5302  -17.2682   88.4064 H         1 SIA         0.0608
     51 H          55.6394  -17.8830   85.5317 H         1 SIA         0.0646
     52 H          54.3106  -16.1655   86.1588 H         1 SIA         0.0647
     53 H          52.6789  -18.6271   86.7565 H         1 SIA         0.0643
     54 H          51.9174  -16.0845   85.2683 H         1 SIA         0.0584
     55 H          51.6345  -16.3074   86.9999 H         1 SIA         0.0584
     56 H          56.0137  -14.8507   89.9062 H         1 SIA         0.0467
     57 H          54.4663  -14.9807   89.0346 H         1 SIA         0.0467
     58 H          55.5542  -16.3871   89.1319 H         1 SIA         0.0467
     59 H          57.2239  -15.5329   86.1756 H         1 SIA         0.1856
     60 H          59.1208  -16.5347   86.6919 H         1 SIA         0.2099
     61 H          54.6453  -16.3531   88.4823 H         1 SIA         0.2100
     62 H          53.9921  -18.8504   84.8469 H         1 SIA         0.2100
     63 H          50.4397  -18.2325   86.4547 H         1 SIA         0.2095
     64 H          54.1826  -27.3876   90.5089 H         1 SIA         0.0932
     65 H          54.6094  -27.3307   93.5293 H         1 SIA         0.0633
     66 H          53.7466  -24.9206   92.1276 H         1 SIA         0.0645
     67 H          56.2612  -24.4889   91.6007 H         1 SIA         0.0650
     68 H          56.8972  -26.5066   90.0840 H         1 SIA         0.0647
     69 H          58.6875  -26.9072   91.5362 H         1 SIA         0.0584
     70 H          57.6540  -26.8324   92.9905 H         1 SIA         0.0584
     71 H          50.2570  -27.9173   94.4854 H         1 SIA         0.0467
     72 H          50.1928  -26.1393   94.4085 H         1 SIA         0.0467
     73 H          50.2468  -27.0942   92.9063 H         1 SIA         0.0467
     74 H          52.1330  -27.0573   91.9308 H         1 SIA         0.1857
     75 H          54.4527  -29.4831   92.4121 H         1 SIA         0.2126
     76 H          54.5232  -25.1202   94.3348 H         1 SIA         0.2100
     77 H          57.4457  -24.5689   92.5925 H         1 SIA         0.2095
     78 H          55.4268  -23.1249   90.6903 H         1 SIA         0.0938
     79 H          55.3171  -23.7660   87.7402 H         1 SIA         0.0671
     80 H          56.1125  -21.0997   88.9351 H         1 SIA         0.0650
     81 H          53.9466  -20.2756   88.1395 H         1 SIA         0.0647
     82 H          54.1283  -21.2950   90.4386 H         1 SIA         0.0647
     83 H          51.6319  -21.1187   88.8969 H         1 SIA         0.0584
     84 H          52.1271  -20.3409   90.4291 H         1 SIA         0.0584
     85 H          57.2098  -24.4291   88.9132 H         1 SIA         0.2101
     86 H          53.7198  -21.8303   86.4352 H         1 SIA         0.2100
     87 H          51.3507  -23.0601   90.1015 H         1 SIA         0.2095
@<TRIPOS>BOND
     1    2    1 1  
     2    1   13 ar 
     3    1   14 ar 
     4    2    3 1  
     5    2   16 1  
     6   43    2 1  
     7    3    4 1  
     8    4    5 1  
     9    4   15 1  
    10    6    5 1  
    11    5   12 1  
    12    6    7 1  
    13   16    6 1  
    14    7    8 1  
    15    7   17 1  
    16    8    9 1  
    17    8   18 1  
    18    9   19 1  
    19   10   11 1  
    20   12   10 am 
    21   10   20 2  
    22   22   21 1  
    23   21   30 1  
    24   33   21 1  
    25   23   22 1  
    26   22   29 1  
    27   24   23 1  
    28   23   31 1  
    29   24   25 1  
    30   32   24 1  
    31   25   26 1  
    32   25   33 1  
    33   26   34 1  
    34   27   28 1  
    35   29   27 am 
    36   27   35 2  
    37   36   32 1  
    38   37   36 1  
    39   36   45 1  
    40   38   37 1  
    41   37   42 1  
    42   38   39 1  
    43   38   43 1  
    44   39   40 1  
    45   39   44 1  
    46   40   41 1  
    47   40   45 1  
    48   41   46 1  
    49    3   47 1  
    50    3   48 1  
    51    4   49 1  
    52    5   50 1  
    53    6   51 1  
    54    7   52 1  
    55    8   53 1  
    56    9   54 1  
    57    9   55 1  
    58   11   56 1  
    59   11   57 1  
    60   11   58 1  
    61   12   59 1  
    62   15   60 1  
    63   17   61 1  
    64   18   62 1  
    65   19   63 1  
    66   21   64 1  
    67   22   65 1  
    68   23   66 1  
    69   24   67 1  
    70   25   68 1  
    71   26   69 1  
    72   26   70 1  
    73   28   71 1  
    74   28   72 1  
    75   28   73 1  
    76   29   74 1  
    77   30   75 1  
    78   31   76 1  
    79   34   77 1  
    80   36   78 1  
    81   37   79 1  
    82   38   80 1  
    83   39   81 1  
    84   40   82 1  
    85   41   83 1  
    86   41   84 1  
    87   42   85 1  
    88   44   86 1  
    89   46   87 1  
@<TRIPOS>SUBSTRUCTURE
     1 SIA         1

