### 
### Created by X-TOOL on Mon Sep 10 21:13:08 2018
### 

@<TRIPOS>MOLECULE
4djo_ligand
   77    78     1     0     0
SMALL
GAST_HUCK


@<TRIPOS>ATOM
      1 C1         15.4990   36.9610   18.7020 C.3       1 MK5         0.0594
      2 O1         14.9390   35.6570   18.4960 O.3       1 MK5        -0.3212
      3 C2         15.6860   34.9120   17.6260 C.ar      1 MK5         0.0908
      4 C7         15.4380   33.5480   17.5110 C.ar      1 MK5        -0.0313
      5 C6         16.1810   32.7710   16.6290 C.ar      1 MK5        -0.0440
      6 C3         16.6780   35.5010   16.8480 C.ar      1 MK5        -0.0313
      7 C4         17.4200   34.7230   15.9670 C.ar      1 MK5        -0.0440
      8 C5         17.1750   33.3580   15.8560 C.ar      1 MK5         0.0971
      9 S8         18.1290   32.3780   14.7510 S.o2      1 MK5         0.0657
     10 O9         18.6630   33.2640   13.6630 O.2       1 MK5        -0.1515
     11 O10        17.2930   31.2880   14.1890 O.2       1 MK5        -0.1515
     12 N11        19.4210   31.7040   15.5600 N.am      1 MK5        -0.2325
     13 C12        20.0250   32.6110   16.5580 C.3       1 MK5         0.0322
     14 C13        21.3270   33.2380   16.0490 C.3       1 MK5        -0.0270
     15 C14        22.1270   33.9280   17.1690 C.3       1 MK5        -0.0610
     16 C15        22.1890   32.2090   15.3220 C.3       1 MK5        -0.0518
     17 C18        22.9720   32.8770   14.1990 C.3       1 MK5        -0.0650
     18 C16        19.0270   30.4390   16.2090 C.3       1 MK5         0.0578
     19 C17        19.9660   29.3410   15.6850 C.3       1 MK5         0.0967
     20 O18        19.9210   28.1890   16.5220 O.3       1 MK5        -0.3877
     21 C19        19.6160   28.9540   14.2480 C.3       1 MK5         0.0807
     22 C32        18.2850   28.1880   14.1640 C.3       1 MK5         0.0064
     23 C38        17.9740   27.8330   12.7060 C.ar      1 MK5        -0.0408
     24 C33        18.1990   26.5400   12.2500 C.ar      1 MK5        -0.0603
     25 C34        17.9340   26.2050   10.9290 C.ar      1 MK5        -0.0686
     26 C35        17.4370   27.1690   10.0580 C.ar      1 MK5        -0.0687
     27 C36        17.2140   28.4640   10.5090 C.ar      1 MK5        -0.0686
     28 C37        17.4770   28.7910   11.8350 C.ar      1 MK5        -0.0603
     29 N20        20.6860   28.1170   13.6950 N.am      1 MK5        -0.2550
     30 C21        21.6280   28.5490   12.8660 C.2       1 MK5         0.3200
     31 O22        21.7200   29.7060   12.4640 O.2       1 MK5        -0.3775
     32 O23        22.5370   27.6300   12.4370 O.3       1 MK5        -0.2619
     33 C23        23.5610   28.3010   11.7000 C.3       1 MK5         0.0973
     34 C24        24.3070   27.2780   10.8440 C.3       1 MK5         0.0586
     35 N25        23.3420   26.4320   10.1300 N.am      1 MK5        -0.2822
     36 C26        23.2430   25.1370   10.3960 C.2       1 MK5         0.2091
     37 O27        23.9140   24.5800   11.2640 O.2       1 MK5        -0.3941
     38 C28        22.2100   24.3460    9.5840 C.3       1 MK5         0.1958
     39 CL2        21.5060   25.2740    8.2100 Cl        1 MK5        -0.0800
     40 CL1        20.9000   23.9090   10.7100 Cl        1 MK5        -0.0800
     41 H1         14.8684   37.5238   19.4060 H         1 MK5         0.0577
     42 H2         15.5447   37.4963   17.7421 H         1 MK5         0.0577
     43 H3         16.5134   36.8632   19.1160 H         1 MK5         0.0577
     44 H4         14.6616   33.0885   18.1120 H         1 MK5         0.0542
     45 H5         15.9848   31.7082   16.5447 H         1 MK5         0.0608
     46 H6         16.8717   36.5645   16.9288 H         1 MK5         0.0542
     47 H7         18.1940   35.1824   15.3629 H         1 MK5         0.0608
     48 H8         20.2399   32.0398   17.4731 H         1 MK5         0.0480
     49 H9         19.3095   33.4145   16.7868 H         1 MK5         0.0480
     50 H10        21.0508   34.0136   15.3195 H         1 MK5         0.0314
     51 H11        23.0481   34.3589   16.7496 H         1 MK5         0.0233
     52 H12        22.3865   33.1900   17.9423 H         1 MK5         0.0233
     53 H13        21.5180   34.7280   17.6152 H         1 MK5         0.0233
     54 H14        21.5416   31.4272   14.8982 H         1 MK5         0.0266
     55 H15        22.8927   31.7555   16.0355 H         1 MK5         0.0266
     56 H16        23.5881   32.1252   13.6841 H         1 MK5         0.0230
     57 H17        23.6222   33.6582   14.6196 H         1 MK5         0.0230
     58 H18        22.2711   33.3299   13.4823 H         1 MK5         0.0230
     59 H19        17.9849   30.1950   15.9552 H         1 MK5         0.0504
     60 H20        19.1270   30.5295   17.3007 H         1 MK5         0.0504
     61 H21        20.9925   29.7363   15.6956 H         1 MK5         0.0634
     62 H22        20.1904   28.4271   17.4013 H         1 MK5         0.2100
     63 H23        19.5307   29.8727   13.6491 H         1 MK5         0.0604
     64 H24        17.4770   28.8170   14.5657 H         1 MK5         0.0449
     65 H25        18.3589   27.2637   14.7558 H         1 MK5         0.0449
     66 H26        18.5837   25.7883   12.9297 H         1 MK5         0.0557
     67 H27        18.1138   25.1955   10.5775 H         1 MK5         0.0599
     68 H28        17.2237   26.9098    9.0273 H         1 MK5         0.0559
     69 H29        16.8357   29.2183    9.8286 H         1 MK5         0.0599
     70 H30        17.2928   29.7988   12.1892 H         1 MK5         0.0557
     71 H31        20.7072   27.1533   13.9613 H         1 MK5         0.1873
     72 H32        24.2633   28.7811   12.3972 H         1 MK5         0.0631
     73 H33        23.1084   29.0652   11.0511 H         1 MK5         0.0631
     74 H34        24.9360   26.6490   11.4911 H         1 MK5         0.0546
     75 H35        24.9413   27.8040   10.1153 H         1 MK5         0.0546
     76 H36        22.7511   26.8386    9.4332 H         1 MK5         0.1852
     77 H37        22.6852   23.4367    9.1874 H         1 MK5         0.0879
@<TRIPOS>BOND
     1    1    2 1  
     2    2    3 1  
     3    3    4 ar 
     4    3    6 ar 
     5    4    5 ar 
     6    5    8 ar 
     7    6    7 ar 
     8    7    8 ar 
     9    8    9 1  
    10    9   10 2  
    11    9   11 2  
    12    9   12 am 
    13   12   13 1  
    14   12   18 1  
    15   13   14 1  
    16   14   15 1  
    17   14   16 1  
    18   16   17 1  
    19   18   19 1  
    20   19   20 1  
    21   19   21 1  
    22   21   22 1  
    23   21   29 1  
    24   22   23 1  
    25   23   24 ar 
    26   23   28 ar 
    27   24   25 ar 
    28   25   26 ar 
    29   26   27 ar 
    30   27   28 ar 
    31   29   30 am 
    32   30   31 2  
    33   30   32 1  
    34   32   33 1  
    35   33   34 1  
    36   34   35 1  
    37   35   36 am 
    38   36   37 2  
    39   36   38 1  
    40   38   39 1  
    41   38   40 1  
    42    1   41 1  
    43    1   42 1  
    44    1   43 1  
    45    4   44 1  
    46    5   45 1  
    47    6   46 1  
    48    7   47 1  
    49   13   48 1  
    50   13   49 1  
    51   14   50 1  
    52   15   51 1  
    53   15   52 1  
    54   15   53 1  
    55   16   54 1  
    56   16   55 1  
    57   17   56 1  
    58   17   57 1  
    59   17   58 1  
    60   18   59 1  
    61   18   60 1  
    62   19   61 1  
    63   20   62 1  
    64   21   63 1  
    65   22   64 1  
    66   22   65 1  
    67   24   66 1  
    68   25   67 1  
    69   26   68 1  
    70   27   69 1  
    71   28   70 1  
    72   29   71 1  
    73   33   72 1  
    74   33   73 1  
    75   34   74 1  
    76   34   75 1  
    77   35   76 1  
    78   38   77 1  
@<TRIPOS>SUBSTRUCTURE
     1 MK5         1

