### 
### Created by X-TOOL on Mon Sep 10 21:13:09 2018
### 

@<TRIPOS>MOLECULE
4djp_ligand
   79    80     1     0     0
SMALL
GAST_HUCK


@<TRIPOS>ATOM
      1 O22        20.8290   29.5300   11.8510 O.2       1 M73        -0.3775
      2 C21        21.0400   28.5350   12.5210 C.2       1 M73         0.3201
      3 O23        21.7910   27.4770   11.9620 O.3       1 M73        -0.2611
      4 C22        22.0280   27.5610   10.5510 C.3       1 M73         0.0978
      5 C23        22.7890   26.3110   10.1390 C.3       1 M73         0.0848
      6 C24        21.9370   25.0630   10.2850 C.3       1 M73        -0.0415
      7 C25        24.0200   26.2660   10.9700 C.2       1 M73         0.2389
      8 O26        24.3350   25.3320   11.6870 O.2       1 M73        -0.3700
      9 O27        24.8710   27.3890   10.9130 O.3       1 M73        -0.2799
     10 C28        26.0620   27.4600   11.7110 C.3       1 M73         0.0658
     11 N20        20.5700   28.2480   13.7160 N.am      1 M73        -0.2550
     12 C19        19.4860   29.0290   14.3020 C.3       1 M73         0.0807
     13 C32        18.1920   28.1990   14.2110 C.3       1 M73         0.0064
     14 C38        17.9070   27.8950   12.7510 C.ar      1 M73        -0.0408
     15 C37        17.3260   28.8620   11.9470 C.ar      1 M73        -0.0603
     16 C36        17.1310   28.6110   10.5950 C.ar      1 M73        -0.0686
     17 C35        17.4910   27.3790   10.0540 C.ar      1 M73        -0.0687
     18 C34        18.0610   26.4000   10.8520 C.ar      1 M73        -0.0686
     19 C33        18.2660   26.6600   12.2000 C.ar      1 M73        -0.0603
     20 C17        19.8820   29.4910   15.7060 C.3       1 M73         0.0967
     21 O18        19.8470   28.3480   16.5930 O.3       1 M73        -0.3877
     22 C16        18.9640   30.5750   16.3000 C.3       1 M73         0.0578
     23 N11        19.1430   31.8060   15.5050 N.am      1 M73        -0.2325
     24 C12        19.9520   32.8370   16.2060 C.3       1 M73         0.0322
     25 C13        21.4550   32.5400   16.1410 C.3       1 M73        -0.0270
     26 C14        21.9510   32.4930   14.6970 C.3       1 M73        -0.0610
     27 C15        22.2050   33.5590   17.0110 C.3       1 M73        -0.0518
     28 C18        22.0170   34.9940   16.5720 C.3       1 M73        -0.0650
     29 S8         17.8340   32.3970   14.7510 S.o2      1 M73         0.0657
     30 O9         18.3480   33.2390   13.6900 O.2       1 M73        -0.1515
     31 O10        17.0480   31.2990   14.3430 O.2       1 M73        -0.1515
     32 C5         16.9430   33.3280   15.7780 C.ar      1 M73         0.0971
     33 C4         17.1450   34.7210   15.9140 C.ar      1 M73        -0.0440
     34 C3         16.4470   35.5010   16.8360 C.ar      1 M73        -0.0313
     35 C6         15.9830   32.7550   16.6240 C.ar      1 M73        -0.0440
     36 C7         15.2980   33.5280   17.5740 C.ar      1 M73        -0.0313
     37 C2         15.5220   34.8950   17.6760 C.ar      1 M73         0.0908
     38 O1         14.8160   35.6090   18.6190 O.3       1 M73        -0.3212
     39 C1         15.1220   36.9940   18.8160 C.3       1 M73         0.0594
     40 H1         22.6253   28.4562   10.3233 H         1 M73         0.0641
     41 H2         21.0705   27.6122   10.0119 H         1 M73         0.0641
     42 H3         23.0783   26.3997    9.0815 H         1 M73         0.0577
     43 H4         22.5208   24.1826    9.9783 H         1 M73         0.0259
     44 H5         21.0448   25.1515    9.6477 H         1 M73         0.0259
     45 H6         21.6282   24.9506   11.3347 H         1 M73         0.0259
     46 H7         26.5771   28.4124   11.5170 H         1 M73         0.0577
     47 H8         26.7277   26.6237   11.4515 H         1 M73         0.0577
     48 H9         25.7940   27.3985   12.7761 H         1 M73         0.0577
     49 H10        20.9611   27.4842   14.2295 H         1 M73         0.1873
     50 H11        19.3385   29.9340   13.6944 H         1 M73         0.0604
     51 H12        17.3555   28.7703   14.6397 H         1 M73         0.0449
     52 H13        18.3165   27.2581   14.7670 H         1 M73         0.0449
     53 H14        17.0243   29.8124   12.3721 H         1 M73         0.0557
     54 H15        16.6979   29.3752    9.9597 H         1 M73         0.0599
     55 H16        17.3240   27.1846    9.0007 H         1 M73         0.0559
     56 H17        18.3433   25.4428   10.4287 H         1 M73         0.0599
     57 H18        18.7086   25.8987   12.8321 H         1 M73         0.0557
     58 H19        20.9059   29.8906   15.6607 H         1 M73         0.0634
     59 H20        18.9689   27.9855   16.6062 H         1 M73         0.2100
     60 H21        19.2383   30.7639   17.3483 H         1 M73         0.0504
     61 H22        17.9156   30.2462   16.2489 H         1 M73         0.0504
     62 H23        19.6435   32.8716   17.2613 H         1 M73         0.0480
     63 H24        19.7638   33.8139   15.7367 H         1 M73         0.0480
     64 H25        21.6242   31.5435   16.5749 H         1 M73         0.0314
     65 H26        23.0298   32.2785   14.6867 H         1 M73         0.0233
     66 H27        21.7655   33.4636   14.2138 H         1 M73         0.0233
     67 H28        21.4149   31.7030   14.1507 H         1 M73         0.0233
     68 H29        23.2787   33.3230   16.9735 H         1 M73         0.0266
     69 H30        21.8444   33.4631   18.0458 H         1 M73         0.0266
     70 H31        22.5823   35.6592   17.2412 H         1 M73         0.0230
     71 H32        20.9488   35.2534   16.6139 H         1 M73         0.0230
     72 H33        22.3831   35.1132   15.5416 H         1 M73         0.0230
     73 H34        17.8743   35.2038   15.2736 H         1 M73         0.0608
     74 H35        16.6247   36.5686   16.8962 H         1 M73         0.0542
     75 H36        15.7660   31.6960   16.5428 H         1 M73         0.0608
     76 H37        14.5846   33.0520   18.2370 H         1 M73         0.0542
     77 H38        14.4689   37.4059   19.5995 H         1 M73         0.0577
     78 H39        14.9589   37.5428   17.8767 H         1 M73         0.0577
     79 H40        16.1732   37.0972   19.1232 H         1 M73         0.0577
@<TRIPOS>BOND
     1    1    2 2  
     2    2    3 1  
     3    2   11 am 
     4    3    4 1  
     5    4    5 1  
     6    5    6 1  
     7    5    7 1  
     8    7    8 2  
     9    7    9 1  
    10    9   10 1  
    11   11   12 1  
    12   12   13 1  
    13   12   20 1  
    14   13   14 1  
    15   14   15 ar 
    16   14   19 ar 
    17   15   16 ar 
    18   16   17 ar 
    19   17   18 ar 
    20   18   19 ar 
    21   20   21 1  
    22   20   22 1  
    23   22   23 1  
    24   23   24 1  
    25   23   29 am 
    26   24   25 1  
    27   25   26 1  
    28   25   27 1  
    29   27   28 1  
    30   29   30 2  
    31   29   31 2  
    32   29   32 1  
    33   32   33 ar 
    34   32   35 ar 
    35   33   34 ar 
    36   34   37 ar 
    37   35   36 ar 
    38   36   37 ar 
    39   37   38 1  
    40   38   39 1  
    41    4   40 1  
    42    4   41 1  
    43    5   42 1  
    44    6   43 1  
    45    6   44 1  
    46    6   45 1  
    47   10   46 1  
    48   10   47 1  
    49   10   48 1  
    50   11   49 1  
    51   12   50 1  
    52   13   51 1  
    53   13   52 1  
    54   15   53 1  
    55   16   54 1  
    56   17   55 1  
    57   18   56 1  
    58   19   57 1  
    59   20   58 1  
    60   21   59 1  
    61   22   60 1  
    62   22   61 1  
    63   24   62 1  
    64   24   63 1  
    65   25   64 1  
    66   26   65 1  
    67   26   66 1  
    68   26   67 1  
    69   27   68 1  
    70   27   69 1  
    71   28   70 1  
    72   28   71 1  
    73   28   72 1  
    74   33   73 1  
    75   34   74 1  
    76   35   75 1  
    77   36   76 1  
    78   39   77 1  
    79   39   78 1  
    80   39   79 1  
@<TRIPOS>SUBSTRUCTURE
     1 M73         1

