### 
### Created by X-TOOL on Mon Sep 10 21:13:09 2018
### 

@<TRIPOS>MOLECULE
4djq_ligand
   80    82     1     0     0
SMALL
GAST_HUCK


@<TRIPOS>ATOM
      1 O10        -8.1590   -2.3030  -14.1170 O.2       1 M86        -0.1515
      2 S8         -7.3710   -3.3730  -14.6280 S.o2      1 M86         0.0657
      3 O9         -6.7960   -4.2250  -13.6000 O.2       1 M86        -0.1515
      4 C5         -8.2690   -4.2950  -15.6490 C.ar      1 M86         0.0971
      5 C6         -9.2550   -3.7150  -16.4510 C.ar      1 M86        -0.0440
      6 C7         -9.9880   -4.4930  -17.3600 C.ar      1 M86        -0.0313
      7 C4         -8.0450   -5.6690  -15.7850 C.ar      1 M86        -0.0440
      8 C3         -8.7710   -6.4470  -16.6910 C.ar      1 M86        -0.0313
      9 C2         -9.7520   -5.8520  -17.4840 C.ar      1 M86         0.0908
     10 O1        -10.4760   -6.5740  -18.4060 O.3       1 M86        -0.3212
     11 C1        -10.0910   -7.9340  -18.6570 C.3       1 M86         0.0594
     12 N11        -6.0830   -2.7400  -15.3950 N.am      1 M86        -0.2325
     13 C12        -5.3110   -3.7560  -16.1620 C.3       1 M86         0.0322
     14 C13        -3.8070   -3.4620  -16.1810 C.3       1 M86        -0.0270
     15 C14        -3.1840   -3.4540  -14.7870 C.3       1 M86        -0.0610
     16 C15        -3.0910   -4.4400  -17.1290 C.3       1 M86        -0.0518
     17 C18        -3.2490   -5.8830  -16.7340 C.3       1 M86        -0.0650
     18 C16        -6.3600   -1.5050  -16.1660 C.3       1 M86         0.0578
     19 C17        -5.4540   -0.3950  -15.6030 C.3       1 M86         0.0967
     20 O18        -5.5240    0.7600  -16.4640 O.3       1 M86        -0.3877
     21 C19        -5.8100    0.0360  -14.1730 C.3       1 M86         0.0807
     22 C32        -7.1370    0.8010  -14.0470 C.3       1 M86         0.0064
     23 C38        -7.4020    1.1200  -12.5850 C.ar      1 M86        -0.0408
     24 C37        -7.8910    0.1330  -11.7350 C.ar      1 M86        -0.0603
     25 C36        -8.1300    0.4240  -10.3920 C.ar      1 M86        -0.0686
     26 C35        -7.8780    1.6950   -9.8910 C.ar      1 M86        -0.0687
     27 C34        -7.3870    2.6800  -10.7380 C.ar      1 M86        -0.0686
     28 C33        -7.1550    2.3960  -12.0810 C.ar      1 M86        -0.0603
     29 N20        -4.7520    0.8960  -13.6600 N.am      1 M86        -0.2550
     30 C21        -3.8710    0.5570  -12.7310 C.2       1 M86         0.3200
     31 O22        -3.7370   -0.5290  -12.2020 O.2       1 M86        -0.3775
     32 O23        -3.0190    1.6460  -12.3160 O.3       1 M86        -0.2619
     33 C22        -2.0510    1.4940  -11.2680 C.3       1 M86         0.0973
     34 C23        -1.7670    2.8880  -10.7090 C.3       1 M86         0.0620
     35 N24        -2.9900    3.3650  -10.0260 N.am      1 M86        -0.2551
     36 C25        -2.8470    3.6220   -8.5750 C.3       1 M86         0.0542
     37 C28        -3.7300    4.4840  -10.5130 C.2       1 M86         0.2601
     38 O29        -3.7090    4.9140  -11.6540 O.2       1 M86        -0.4007
     39 N27        -4.4530    5.0010   -9.5320 N.am      1 M86        -0.2711
     40 C26        -4.1350    4.3900   -8.2590 C.3       1 M86         0.0514
     41 H1         -9.4559   -2.6528  -16.3702 H         1 M86         0.0608
     42 H2        -10.7490   -4.0241  -17.9733 H         1 M86         0.0542
     43 H3         -7.2878   -6.1432  -15.1711 H         1 M86         0.0608
     44 H4         -8.5724   -7.5092  -16.7771 H         1 M86         0.0542
     45 H5        -10.7609   -8.3713  -19.4120 H         1 M86         0.0577
     46 H6        -10.1618   -8.5132  -17.7245 H         1 M86         0.0577
     47 H7         -9.0554   -7.9596  -19.0269 H         1 M86         0.0577
     48 H8         -5.6802   -3.7708  -17.1981 H         1 M86         0.0480
     49 H9         -5.4715   -4.7420  -15.7015 H         1 M86         0.0480
     50 H10        -3.6780   -2.4504  -16.5932 H         1 M86         0.0314
     51 H11        -2.1084   -3.2383  -14.8674 H         1 M86         0.0233
     52 H12        -3.3265   -4.4378  -14.3160 H         1 M86         0.0233
     53 H13        -3.6683   -2.6801  -14.1734 H         1 M86         0.0233
     54 H14        -2.0184   -4.1963  -17.1354 H         1 M86         0.0266
     55 H15        -3.5029   -4.3089  -18.1405 H         1 M86         0.0266
     56 H16        -2.7138   -6.5207  -17.4530 H         1 M86         0.0230
     57 H17        -4.3166   -6.1480  -16.7327 H         1 M86         0.0230
     58 H18        -2.8321   -6.0355  -15.7276 H         1 M86         0.0230
     59 H19        -7.4166   -1.2207  -16.0530 H         1 M86         0.0504
     60 H20        -6.1361   -1.6686  -17.2305 H         1 M86         0.0504
     61 H21        -4.4211   -0.7733  -15.5965 H         1 M86         0.0634
     62 H22        -5.2316    0.5218  -17.3360 H         1 M86         0.2100
     63 H23        -5.8757   -0.8699  -13.5524 H         1 M86         0.0604
     64 H24        -7.9560    0.1815  -14.4412 H         1 M86         0.0449
     65 H25        -7.0763    1.7373  -14.6212 H         1 M86         0.0449
     66 H26        -8.0863   -0.8626  -12.1167 H         1 M86         0.0557
     67 H27        -8.5151   -0.3470   -9.7345 H         1 M86         0.0599
     68 H28        -8.0633    1.9164   -8.8462 H         1 M86         0.0559
     69 H29        -7.1839    3.6725  -10.3524 H         1 M86         0.0599
     70 H30        -6.7800    3.1718  -12.7387 H         1 M86         0.0557
     71 H31        -4.6854    1.8183  -14.0407 H         1 M86         0.1873
     72 H32        -1.1266    1.0537  -11.6698 H         1 M86         0.0631
     73 H33        -2.4521    0.8449  -10.4757 H         1 M86         0.0631
     74 H34        -1.5063    3.5731  -11.5292 H         1 M86         0.0545
     75 H35        -0.9339    2.8402   -9.9923 H         1 M86         0.0545
     76 H36        -1.9561    4.2314   -8.3629 H         1 M86         0.0539
     77 H37        -2.7923    2.6821   -8.0061 H         1 M86         0.0539
     78 H38        -5.1336    5.7232   -9.6550 H         1 M86         0.1846
     79 H39        -3.9642    5.1515   -7.4838 H         1 M86         0.0537
     80 H40        -4.9350    3.7086   -7.9338 H         1 M86         0.0537
@<TRIPOS>BOND
     1    1    2 2  
     2    2    3 2  
     3    2    4 1  
     4    2   12 am 
     5    4    5 ar 
     6    4    7 ar 
     7    5    6 ar 
     8    6    9 ar 
     9    7    8 ar 
    10    8    9 ar 
    11    9   10 1  
    12   10   11 1  
    13   12   13 1  
    14   12   18 1  
    15   13   14 1  
    16   14   15 1  
    17   14   16 1  
    18   16   17 1  
    19   18   19 1  
    20   19   20 1  
    21   19   21 1  
    22   21   22 1  
    23   21   29 1  
    24   22   23 1  
    25   23   24 ar 
    26   23   28 ar 
    27   24   25 ar 
    28   25   26 ar 
    29   26   27 ar 
    30   27   28 ar 
    31   29   30 am 
    32   30   31 2  
    33   30   32 1  
    34   32   33 1  
    35   33   34 1  
    36   34   35 1  
    37   35   36 1  
    38   35   37 am 
    39   36   40 1  
    40   37   38 2  
    41   37   39 am 
    42   39   40 1  
    43    5   41 1  
    44    6   42 1  
    45    7   43 1  
    46    8   44 1  
    47   11   45 1  
    48   11   46 1  
    49   11   47 1  
    50   13   48 1  
    51   13   49 1  
    52   14   50 1  
    53   15   51 1  
    54   15   52 1  
    55   15   53 1  
    56   16   54 1  
    57   16   55 1  
    58   17   56 1  
    59   17   57 1  
    60   17   58 1  
    61   18   59 1  
    62   18   60 1  
    63   19   61 1  
    64   20   62 1  
    65   21   63 1  
    66   22   64 1  
    67   22   65 1  
    68   24   66 1  
    69   25   67 1  
    70   26   68 1  
    71   27   69 1  
    72   28   70 1  
    73   29   71 1  
    74   33   72 1  
    75   33   73 1  
    76   34   74 1  
    77   34   75 1  
    78   36   76 1  
    79   36   77 1  
    80   39   78 1  
    81   40   79 1  
    82   40   80 1  
@<TRIPOS>SUBSTRUCTURE
     1 M86         1

