### 
### Created by X-TOOL on Mon Sep 10 21:13:09 2018
### 

@<TRIPOS>MOLECULE
4djr_ligand
   76    79     1     0     0
SMALL
GAST_HUCK


@<TRIPOS>ATOM
      1 O28        21.8200   23.3930   11.4910 O.2       1 0KJ        -0.3971
      2 C27        21.7650   24.4410   10.8910 C.2       1 0KJ         0.1764
      3 N29        22.8010   25.1420   10.4650 N.am      1 0KJ        -0.2812
      4 C24        22.4460   26.3660    9.7980 C.3       1 0KJ         0.0716
      5 C25        20.9310   26.2580    9.6210 C.3       1 0KJ        -0.0105
      6 C26        20.4700   25.1100   10.5050 C.3       1 0KJ         0.0394
      7 C22        22.8550   27.5520   10.6540 C.3       1 0KJ         0.1003
      8 O23        22.2100   27.3810   11.9170 O.3       1 0KJ        -0.2616
      9 C21        21.3290   28.4180   12.4250 C.2       1 0KJ         0.3200
     10 O22        21.3440   29.5100   11.8810 O.2       1 0KJ        -0.3775
     11 N20        20.5450   28.0630   13.4380 N.am      1 0KJ        -0.2550
     12 C19        19.5100   28.8850   14.0440 C.3       1 0KJ         0.0807
     13 C32        18.1880   28.1130   13.9920 C.3       1 0KJ         0.0064
     14 C38        17.7990   27.7770   12.5600 C.ar      1 0KJ        -0.0408
     15 C37        17.7010   26.4470   12.1700 C.ar      1 0KJ        -0.0603
     16 C36        17.3410   26.1240   10.8630 C.ar      1 0KJ        -0.0686
     17 C35        17.0710   27.1300    9.9430 C.ar      1 0KJ        -0.0687
     18 C34        17.1660   28.4610   10.3320 C.ar      1 0KJ        -0.0686
     19 C33        17.5220   28.7780   11.6400 C.ar      1 0KJ        -0.0603
     20 C17        19.9440   29.2990   15.4520 C.3       1 0KJ         0.0967
     21 O18        19.8780   28.1760   16.3360 O.3       1 0KJ        -0.3877
     22 C16        19.0960   30.4320   16.0480 C.3       1 0KJ         0.0579
     23 N11        19.3380   31.6740   15.2670 N.am      1 0KJ        -0.2317
     24 C12        20.1170   32.6720   16.0360 C.3       1 0KJ         0.0322
     25 C13        21.6270   32.3790   15.9880 C.3       1 0KJ        -0.0270
     26 C14        22.2330   32.4320   14.5850 C.3       1 0KJ        -0.0610
     27 C15        22.3540   33.3630   16.9120 C.3       1 0KJ        -0.0518
     28 C18        22.2010   34.8180   16.4970 C.3       1 0KJ        -0.0650
     29 S8         18.0170   32.2920   14.5410 S.o2      1 0KJ         0.0679
     30 O10        17.2470   31.1870   14.0580 O.2       1 0KJ        -0.1506
     31 O9         18.5130   33.1710   13.5080 O.2       1 0KJ        -0.1506
     32 C5         17.1270   33.1930   15.5900 C.ar      1 0KJ         0.1007
     33 C6         16.1470   32.5440   16.3440 C.ar      1 0KJ        -0.0433
     34 C7         15.3930   33.2270   17.2970 C.ar      1 0KJ        -0.0517
     35 C4         17.3050   34.5670   15.8150 C.ar      1 0KJ        -0.0206
     36 C3         16.5410   35.2630   16.7670 C.ar      1 0KJ         0.0595
     37 S1         16.6740   36.9330   17.1210 S.3       1 0KJ         0.0026
     38 C1         15.4140   36.6730   18.2880 C.2       1 0KJ         0.0809
     39 N1         14.9560   35.4140   18.3750 N.2       1 0KJ        -0.2931
     40 C2         15.5810   34.5770   17.5140 C.ar      1 0KJ         0.0375
     41 H1         23.7478   24.8477   10.5948 H         1 0KJ         0.1855
     42 H2         22.9413   26.4391    8.8185 H         1 0KJ         0.0584
     43 H3         20.6859   26.0489    8.5693 H         1 0KJ         0.0313
     44 H4         20.4450   27.1947    9.9316 H         1 0KJ         0.0313
     45 H5         19.9374   25.4830   11.3922 H         1 0KJ         0.0503
     46 H6         19.8182   24.4198    9.9493 H         1 0KJ         0.0503
     47 H7         22.5275   28.4911   10.1840 H         1 0KJ         0.0634
     48 H8         23.9472   27.5684   10.7840 H         1 0KJ         0.0634
     49 H9         20.6792   27.1477   13.8177 H         1 0KJ         0.1873
     50 H10        19.3897   29.8020   13.4485 H         1 0KJ         0.0604
     51 H11        17.3958   28.7285   14.4433 H         1 0KJ         0.0449
     52 H12        18.2962   27.1787   14.5623 H         1 0KJ         0.0449
     53 H13        17.9052   25.6580   12.8847 H         1 0KJ         0.0557
     54 H14        17.2714   25.0847   10.5630 H         1 0KJ         0.0599
     55 H15        16.7878   26.8780    8.9274 H         1 0KJ         0.0559
     56 H16        16.9632   29.2510    9.6180 H         1 0KJ         0.0599
     57 H17        17.5834   29.8171   11.9427 H         1 0KJ         0.0557
     58 H18        20.9865   29.6453   15.3944 H         1 0KJ         0.0634
     59 H19        18.9860   27.8507   16.3668 H         1 0KJ         0.2100
     60 H20        19.3812   30.5942   17.0979 H         1 0KJ         0.0504
     61 H21        18.0306   30.1636   15.9947 H         1 0KJ         0.0504
     62 H22        19.7838   32.6528   17.0841 H         1 0KJ         0.0481
     63 H23        19.9344   33.6702   15.6114 H         1 0KJ         0.0481
     64 H24        21.7807   31.3606   16.3742 H         1 0KJ         0.0314
     65 H25        23.3093   32.2119   14.6419 H         1 0KJ         0.0233
     66 H26        22.0860   33.4358   14.1598 H         1 0KJ         0.0233
     67 H27        21.7397   31.6864   13.9441 H         1 0KJ         0.0233
     68 H28        23.4251   33.1127   16.9121 H         1 0KJ         0.0266
     69 H29        21.9504   33.2476   17.9287 H         1 0KJ         0.0266
     70 H30        22.7470   35.4602   17.2038 H         1 0KJ         0.0230
     71 H31        21.1353   35.0906   16.5019 H         1 0KJ         0.0230
     72 H32        22.6101   34.9557   15.4852 H         1 0KJ         0.0230
     73 H33        15.9688   31.4867   16.1848 H         1 0KJ         0.0580
     74 H34        14.6492   32.6908   17.8752 H         1 0KJ         0.0584
     75 H35        18.0504   35.1045   15.2401 H         1 0KJ         0.0592
     76 H36        15.0216   37.4778   18.9079 H         1 0KJ         0.1260
@<TRIPOS>BOND
     1    1    2 2  
     2    2    3 am 
     3    2    6 1  
     4    3    4 1  
     5    4    5 1  
     6    4    7 1  
     7    5    6 1  
     8    7    8 1  
     9    8    9 1  
    10    9   10 2  
    11    9   11 am 
    12   11   12 1  
    13   12   13 1  
    14   12   20 1  
    15   13   14 1  
    16   14   15 ar 
    17   14   19 ar 
    18   15   16 ar 
    19   16   17 ar 
    20   17   18 ar 
    21   18   19 ar 
    22   20   21 1  
    23   20   22 1  
    24   22   23 1  
    25   23   24 1  
    26   23   29 am 
    27   24   25 1  
    28   25   26 1  
    29   25   27 1  
    30   27   28 1  
    31   29   30 2  
    32   29   31 2  
    33   29   32 1  
    34   32   33 ar 
    35   32   35 ar 
    36   33   34 ar 
    37   34   40 ar 
    38   35   36 ar 
    39   36   37 1  
    40   36   40 ar 
    41   37   38 1  
    42   38   39 2  
    43   39   40 1  
    44    3   41 1  
    45    4   42 1  
    46    5   43 1  
    47    5   44 1  
    48    6   45 1  
    49    6   46 1  
    50    7   47 1  
    51    7   48 1  
    52   11   49 1  
    53   12   50 1  
    54   13   51 1  
    55   13   52 1  
    56   15   53 1  
    57   16   54 1  
    58   17   55 1  
    59   18   56 1  
    60   19   57 1  
    61   20   58 1  
    62   21   59 1  
    63   22   60 1  
    64   22   61 1  
    65   24   62 1  
    66   24   63 1  
    67   25   64 1  
    68   26   65 1  
    69   26   66 1  
    70   26   67 1  
    71   27   68 1  
    72   27   69 1  
    73   28   70 1  
    74   28   71 1  
    75   28   72 1  
    76   33   73 1  
    77   34   74 1  
    78   35   75 1  
    79   38   76 1  
@<TRIPOS>SUBSTRUCTURE
     1 0KJ         1

