### 
### Created by X-TOOL on Mon Sep 10 21:13:09 2018
### 

@<TRIPOS>MOLECULE
4dju_ligand
   36    38     1     0     0
SMALL
GAST_HUCK


@<TRIPOS>ATOM
      1 O1         21.8230   13.1940   22.6510 O.2       1 0KK        -0.3721
      2 C1         21.9860   12.0030   22.8380 C.2       1 0KK         0.1985
      3 C2         21.7410   10.8480   21.8250 C.3       1 0KK         0.1861
      4 N1         22.0950    9.6270   22.5950 N.pl3     1 0KK        -0.2773
      5 C3         22.4580   10.0150   23.8380 C.cat     1 0KK         0.3179
      6 N2         22.4180   11.4310   24.0130 N.am      1 0KK        -0.2211
      7 N3         22.8270    9.1960   24.8210 N.pl3     1 0KK        -0.2550
      8 C4         22.7430   12.2060   25.2160 C.3       1 0KK         0.0234
      9 C5         20.2620   10.6920   21.4230 C.ar      1 0KK        -0.0136
     10 C6         19.8770    9.7650   20.4590 C.ar      1 0KK        -0.0453
     11 C7         18.5430    9.6320   20.0900 C.ar      1 0KK        -0.0390
     12 C8         17.5760   10.4230   20.6790 C.ar      1 0KK        -0.0398
     13 C9         17.9390   11.3360   21.6450 C.ar      1 0KK        -0.0390
     14 C10        19.2720   11.4690   22.0180 C.ar      1 0KK        -0.0453
     15 C11        22.6270   11.0910   20.5900 C.ar      1 0KK        -0.0136
     16 C12        22.4470   12.2110   19.7790 C.ar      1 0KK        -0.0453
     17 C13        23.2720   12.4360   18.6790 C.ar      1 0KK        -0.0390
     18 C14        24.2900   11.5520   18.3800 C.ar      1 0KK        -0.0398
     19 C15        24.4810   10.4370   19.1730 C.ar      1 0KK        -0.0390
     20 C16        23.6520   10.2040   20.2690 C.ar      1 0KK        -0.0453
     21 H1         22.0685    8.6589   22.2444 H         1 0KK         0.3068
     22 H2         22.8457    8.1783   24.6637 H         1 0KK         0.3199
     23 H3         23.0937    9.5803   25.7387 H         1 0KK         0.3199
     24 H4         22.6066   13.2778   25.0096 H         1 0KK         0.0484
     25 H5         23.7883   12.0179   25.5021 H         1 0KK         0.0484
     26 H6         22.0777   11.9033   26.0380 H         1 0KK         0.0484
     27 H7         20.6269    9.1385   19.9897 H         1 0KK         0.0795
     28 H8         18.2609    8.9048   19.3372 H         1 0KK         0.0681
     29 H9         16.5377   10.3261   20.3831 H         1 0KK         0.0806
     30 H10        17.1824   11.9531   22.1161 H         1 0KK         0.0681
     31 H11        19.5440   12.1876   22.7826 H         1 0KK         0.0795
     32 H12        21.6553   12.9154   20.0072 H         1 0KK         0.0795
     33 H13        23.1142   13.3085   18.0553 H         1 0KK         0.0681
     34 H14        24.9355   11.7320   17.5279 H         1 0KK         0.0806
     35 H15        25.2788    9.7405   18.9419 H         1 0KK         0.0681
     36 H16        23.8068    9.3215   20.8792 H         1 0KK         0.0795
@<TRIPOS>BOND
     1    1    2 2  
     2    2    3 1  
     3    2    6 am 
     4    3    4 1  
     5    3    9 1  
     6    3   15 1  
     7    4    5 ar 
     8    5    6 ar 
     9    5    7 ar 
    10    6    8 1  
    11    9   10 ar 
    12    9   14 ar 
    13   10   11 ar 
    14   11   12 ar 
    15   12   13 ar 
    16   13   14 ar 
    17   15   16 ar 
    18   15   20 ar 
    19   16   17 ar 
    20   17   18 ar 
    21   18   19 ar 
    22   19   20 ar 
    23    4   21 1  
    24    7   22 1  
    25    7   23 1  
    26    8   24 1  
    27    8   25 1  
    28    8   26 1  
    29   10   27 1  
    30   11   28 1  
    31   12   29 1  
    32   13   30 1  
    33   14   31 1  
    34   16   32 1  
    35   17   33 1  
    36   18   34 1  
    37   19   35 1  
    38   20   36 1  
@<TRIPOS>SUBSTRUCTURE
     1 0KK         1

