### 
### Created by X-TOOL on Mon Sep 10 21:13:10 2018
### 

@<TRIPOS>MOLECULE
4djv_ligand
   50    53     1     0     0
SMALL
GAST_HUCK


@<TRIPOS>ATOM
      1 O1         22.8640   12.9180   22.1510 O.2       1 0KM        -0.3721
      2 C1         22.7760   11.7400   22.4370 C.2       1 0KM         0.1984
      3 C2         22.5330   10.5520   21.4300 C.3       1 0KM         0.1861
      4 N1         22.6980    9.3620   22.3290 N.pl3     1 0KM        -0.2773
      5 C3         22.8530    9.7820   23.5950 C.cat     1 0KM         0.3179
      6 N2         22.9440   11.2000   23.6910 N.am      1 0KM        -0.2211
      7 N3         22.9790    8.9880   24.6570 N.pl3     1 0KM        -0.2550
      8 C4         23.1800   11.9990   24.9000 C.3       1 0KM         0.0234
      9 C5         21.1000   10.5960   20.8630 C.ar      1 0KM        -0.0137
     10 C6         20.3420    9.4330   20.7660 C.ar      1 0KM        -0.0453
     11 C7         19.0400    9.4670   20.2690 C.ar      1 0KM        -0.0390
     12 C8         18.4810   10.6590   19.8700 C.ar      1 0KM        -0.0398
     13 C9         19.2200   11.8240   19.9540 C.ar      1 0KM        -0.0390
     14 C10        20.5250   11.7940   20.4410 C.ar      1 0KM        -0.0453
     15 C11        23.6440   10.6010   20.3640 C.ar      1 0KM        -0.0130
     16 C12        23.3550   10.8820   19.0310 C.ar      1 0KM        -0.0451
     17 C13        24.3740   11.0650   18.1080 C.ar      1 0KM        -0.0383
     18 C14        25.6940   10.9560   18.5040 C.ar      1 0KM        -0.0321
     19 C15        26.0150   10.6440   19.8290 C.ar      1 0KM         0.0021
     20 C16        24.9770   10.4620   20.7510 C.ar      1 0KM        -0.0377
     21 C17        29.9970   10.4940   21.4150 C.ar      1 0KM        -0.0329
     22 C18        27.7730    9.5760   21.2460 C.ar      1 0KM        -0.0254
     23 C19        27.4290   10.5160   20.2730 C.ar      1 0KM        -0.0214
     24 C20        28.4120   11.4120   19.8460 C.ar      1 0KM        -0.0645
     25 C21        29.6820   11.4000   20.4130 C.ar      1 0KM        -0.0697
     26 C22        29.0400    9.5690   21.8180 C.ar      1 0KM         0.0911
     27 O2         29.2030    8.6170   22.7950 O.3       1 0KM        -0.3214
     28 C23        30.4090    8.6530   23.5740 C.3       1 0KM         0.0593
     29 H1         22.6931    8.3784   22.0233 H         1 0KM         0.3068
     30 H2         22.9071    7.9664   24.5476 H         1 0KM         0.3199
     31 H3         23.1484    9.3957   25.5876 H         1 0KM         0.3199
     32 H4         23.1948   13.0669   24.6366 H         1 0KM         0.0484
     33 H5         24.1466   11.7172   25.3429 H         1 0KM         0.0484
     34 H6         22.3753   11.8117   25.6262 H         1 0KM         0.0484
     35 H7         20.7697    8.4881   21.0811 H         1 0KM         0.0795
     36 H8         18.4657    8.5505   20.1966 H         1 0KM         0.0681
     37 H9         17.4656   10.6845   19.4914 H         1 0KM         0.0806
     38 H10        18.7825   12.7647   19.6397 H         1 0KM         0.0681
     39 H11        21.0994   12.7119   20.4924 H         1 0KM         0.0795
     40 H12        22.3221   10.9586   18.7112 H         1 0KM         0.0796
     41 H13        24.1352   11.2936   17.0756 H         1 0KM         0.0682
     42 H14        26.4867   11.1136   17.7816 H         1 0KM         0.0813
     43 H15        25.2123   10.2099   21.7787 H         1 0KM         0.0801
     44 H16        30.9770   10.5069   21.8782 H         1 0KM         0.0545
     45 H17        27.0413    8.8406   21.5602 H         1 0KM         0.0544
     46 H18        28.1821   12.1255   19.0630 H         1 0KM         0.0532
     47 H19        30.4312   12.1040   20.0693 H         1 0KM         0.0590
     48 H20        30.3949    7.8352   24.3095 H         1 0KM         0.0577
     49 H21        30.4778    9.6172   24.0990 H         1 0KM         0.0577
     50 H22        31.2780    8.5341   22.9102 H         1 0KM         0.0577
@<TRIPOS>BOND
     1    2    1 2  
     2    3    2 1  
     3    2    6 am 
     4    3    4 1  
     5    3    9 1  
     6   15    3 1  
     7    4    5 ar 
     8    5    6 1  
     9    5    7 ar 
    10    6    8 1  
    11    9   10 ar 
    12    9   14 ar 
    13   10   11 ar 
    14   11   12 ar 
    15   13   12 ar 
    16   14   13 ar 
    17   15   16 ar 
    18   20   15 ar 
    19   17   16 ar 
    20   18   17 ar 
    21   19   18 ar 
    22   19   20 ar 
    23   23   19 1  
    24   21   25 ar 
    25   26   21 ar 
    26   22   23 ar 
    27   22   26 ar 
    28   23   24 ar 
    29   24   25 ar 
    30   26   27 1  
    31   27   28 1  
    32    4   29 1  
    33    7   30 1  
    34    7   31 1  
    35    8   32 1  
    36    8   33 1  
    37    8   34 1  
    38   10   35 1  
    39   11   36 1  
    40   12   37 1  
    41   13   38 1  
    42   14   39 1  
    43   16   40 1  
    44   17   41 1  
    45   18   42 1  
    46   20   43 1  
    47   21   44 1  
    48   22   45 1  
    49   24   46 1  
    50   25   47 1  
    51   28   48 1  
    52   28   49 1  
    53   28   50 1  
@<TRIPOS>SUBSTRUCTURE
     1 0KM         1

