### 
### Created by X-TOOL on Mon Sep 10 21:13:09 2018
### 

@<TRIPOS>MOLECULE
4djw_ligand
   45    48     1     0     0
SMALL
GAST_HUCK


@<TRIPOS>ATOM
      1 O1         22.3600   13.0630   22.3480 O.2       1 0KP        -0.3721
      2 C1         22.4950   11.8750   22.5810 C.2       1 0KP         0.1985
      3 C2         22.3390   10.6680   21.5610 C.3       1 0KP         0.1863
      4 N1         22.5380    9.4930   22.4640 N.pl3     1 0KP        -0.2773
      5 C3         22.7800    9.9140   23.7010 C.cat     1 0KP         0.3179
      6 N2         22.7860   11.3350   23.8120 N.am      1 0KP        -0.2211
      7 N3         22.9970    9.1110   24.7490 N.pl3     1 0KP        -0.2550
      8 C4         23.0220   12.1410   25.0180 C.3       1 0KP         0.0234
      9 C5         20.9020   10.6270   21.0050 C.ar      1 0KP        -0.0136
     10 C6         20.2720    9.4140   20.7470 C.ar      1 0KP        -0.0453
     11 C7         18.9690    9.3760   20.2600 C.ar      1 0KP        -0.0390
     12 C8         18.2800   10.5440   20.0210 C.ar      1 0KP        -0.0398
     13 C9         18.8920   11.7530   20.2590 C.ar      1 0KP        -0.0390
     14 C10        20.1950   11.7970   20.7440 C.ar      1 0KP        -0.0453
     15 C11        23.4880   10.6920   20.5300 C.ar      1 0KP        -0.0121
     16 C12        23.2110   10.7890   19.1730 C.ar      1 0KP        -0.0445
     17 C13        24.2350   10.8650   18.2430 C.ar      1 0KP        -0.0375
     18 C14        25.5500   10.8410   18.6560 C.ar      1 0KP        -0.0303
     19 C15        25.8710   10.7460   20.0070 C.ar      1 0KP         0.0120
     20 C16        24.8260   10.6610   20.9430 C.ar      1 0KP        -0.0358
     21 C17        29.8540   10.9130   21.4510 C.ar      1 0KP         0.0108
     22 N4         29.1260    9.8230   21.7090 N.ar      1 0KP        -0.2963
     23 C18        27.8830    9.7800   21.2080 C.ar      1 0KP         0.0192
     24 C19        27.3000   10.8010   20.4650 C.ar      1 0KP         0.0150
     25 C20        28.0930   11.9190   20.2200 C.ar      1 0KP        -0.0345
     26 C21        29.3850   11.9780   20.7130 C.ar      1 0KP        -0.0338
     27 H1         22.4941    8.5064   22.1715 H         1 0KP         0.3068
     28 H2         22.9841    8.0885   24.6257 H         1 0KP         0.3199
     29 H3         23.1770    9.5154   25.6791 H         1 0KP         0.3199
     30 H4         22.9577   13.2092   24.7634 H         1 0KP         0.0484
     31 H5         24.0225   11.9189   25.4175 H         1 0KP         0.0484
     32 H6         22.2624   11.8983   25.7757 H         1 0KP         0.0484
     33 H7         20.8029    8.4863   20.9276 H         1 0KP         0.0795
     34 H8         18.4935    8.4211   20.0676 H         1 0KP         0.0681
     35 H9         17.2627   10.5112   19.6480 H         1 0KP         0.0806
     36 H10        18.3562   12.6757   20.0677 H         1 0KP         0.0681
     37 H11        20.6667   12.7568   20.9213 H         1 0KP         0.0795
     38 H12        22.1805   10.8055   18.8370 H         1 0KP         0.0801
     39 H13        24.0015   10.9436   17.1874 H         1 0KP         0.0684
     40 H14        26.3436   10.8968   17.9197 H         1 0KP         0.0820
     41 H15        25.0585   10.5703   21.9979 H         1 0KP         0.0809
     42 H16        30.8640   10.9621   21.8417 H         1 0KP         0.0820
     43 H17        27.2930    8.8899   21.3945 H         1 0KP         0.0831
     44 H18        27.6972   12.7458   19.6413 H         1 0KP         0.0741
     45 H19        30.0127   12.8411   20.5231 H         1 0KP         0.0709
@<TRIPOS>BOND
     1    2    1 2  
     2    3    2 1  
     3    2    6 am 
     4    3    4 1  
     5    3    9 1  
     6   15    3 1  
     7    4    5 ar 
     8    5    6 ar 
     9    5    7 ar 
    10    6    8 1  
    11    9   10 ar 
    12    9   14 ar 
    13   10   11 ar 
    14   11   12 ar 
    15   13   12 ar 
    16   14   13 ar 
    17   15   16 ar 
    18   20   15 ar 
    19   17   16 ar 
    20   18   17 ar 
    21   19   18 ar 
    22   19   20 ar 
    23   24   19 1  
    24   22   21 ar 
    25   21   26 ar 
    26   23   22 ar 
    27   23   24 ar 
    28   24   25 ar 
    29   25   26 ar 
    30    4   27 1  
    31    7   28 1  
    32    7   29 1  
    33    8   30 1  
    34    8   31 1  
    35    8   32 1  
    36   10   33 1  
    37   11   34 1  
    38   12   35 1  
    39   13   36 1  
    40   14   37 1  
    41   16   38 1  
    42   17   39 1  
    43   18   40 1  
    44   20   41 1  
    45   21   42 1  
    46   23   43 1  
    47   25   44 1  
    48   26   45 1  
@<TRIPOS>SUBSTRUCTURE
     1 0KP         1

