### 
### Created by X-TOOL on Mon Sep 10 21:13:09 2018
### 

@<TRIPOS>MOLECULE
4djx_ligand
   42    45     1     0     0
SMALL
GAST_HUCK


@<TRIPOS>ATOM
      1 C1         22.5500   11.8310   22.8170 C.2       1 0KQ         0.2168
      2 C2         22.3730   10.6620   21.8140 C.3       1 0KQ         0.1852
      3 N1         22.5910    9.4540   22.6840 N.pl3     1 0KQ        -0.2617
      4 C3         22.7060    9.8770   23.9680 C.cat     1 0KQ         0.3221
      5 N2         22.7440   11.2800   24.0610 N.am      1 0KQ        -0.2168
      6 N3         22.8490    9.1120   25.0430 N.pl3     1 0KQ        -0.2546
      7 C4         22.9510   12.0640   25.2770 C.3       1 0KQ         0.0238
      8 O1         22.5400   13.0220   22.5650 O.2       1 0KQ        -0.3608
      9 C5         23.4570   10.7360   20.7400 C.ar      1 0KQ         0.0090
     10 C6         20.9140   10.7470   21.3480 C.3       1 0KQ        -0.0078
     11 C7         23.1270   10.9510   19.4040 C.ar      1 0KQ        -0.0341
     12 C8         24.1210   11.1010   18.4510 C.ar      1 0KQ        -0.0306
     13 C9         25.4530   11.0630   18.8270 C.ar      1 0KQ        -0.0242
     14 C10        25.8130   10.8510   20.1640 C.ar      1 0KQ         0.0188
     15 C11        24.8020   10.6620   21.1060 C.ar      1 0KQ        -0.0255
     16 C12        27.2440   10.8520   20.5880 C.ar      1 0KQ         0.0169
     17 C13        28.1840   11.7050   20.0240 C.ar      1 0KQ         0.0193
     18 C15        29.8270   11.0800   21.5030 C.ar      1 0KQ         0.0248
     19 C16        27.6670   10.0400   21.6440 C.ar      1 0KQ        -0.0204
     20 N5         29.4450   11.8280   20.4560 N.ar      1 0KQ        -0.2959
     21 C17        20.2010    9.4730   20.9960 C.3       1 0KQ        -0.0537
     22 C18        19.7710   10.2720   22.1860 C.3       1 0KQ        -0.0537
     23 C19        28.9610   10.1830   22.0930 C.ar      1 0KQ         0.0686
     24 CL1        29.5100    9.2030   23.4200 Cl        1 0KQ        -0.0610
     25 H1         22.6437    8.4772   22.3614 H         1 0KQ         0.3117
     26 H2         22.8180    8.0864   24.9531 H         1 0KQ         0.3199
     27 H3         22.9910    9.5439   25.9673 H         1 0KQ         0.3199
     28 H4         22.9293   13.1358   25.0304 H         1 0KQ         0.0484
     29 H5         23.9265   11.8086   25.7164 H         1 0KQ         0.0484
     30 H6         22.1529   11.8378   25.9994 H         1 0KQ         0.0484
     31 H7         20.7851   11.6468   20.7286 H         1 0KQ         0.0249
     32 H8         22.0854   11.0013   19.1081 H         1 0KQ         0.0857
     33 H9         23.8559   11.2482   17.4103 H         1 0KQ         0.0702
     34 H10        26.2255   11.1988   18.0787 H         1 0KQ         0.0872
     35 H11        25.0645   10.4547   22.1371 H         1 0KQ         0.0864
     36 H12        27.8764   12.3105   19.1791 H         1 0KQ         0.0831
     37 H13        30.8337   11.1826   21.8917 H         1 0KQ         0.0825
     38 H14        26.9961    9.3187   22.0964 H         1 0KQ         0.0746
     39 H15        20.7033    8.5044   21.1356 H         1 0KQ         0.0261
     40 H16        19.5614    9.4290   20.1022 H         1 0KQ         0.0261
     41 H17        18.8138   10.8136   22.1671 H         1 0KQ         0.0261
     42 H18        19.9557    9.8890   23.2005 H         1 0KQ         0.0261
@<TRIPOS>BOND
     1    1    2 1  
     2    1    5 am 
     3    1    8 2  
     4    2    3 1  
     5    2    9 1  
     6    2   10 1  
     7    3    4 ar 
     8    4    5 ar 
     9    4    6 ar 
    10    5    7 1  
    11    9   11 ar 
    12    9   15 ar 
    13   10   21 1  
    14   10   22 1  
    15   11   12 ar 
    16   12   13 ar 
    17   13   14 ar 
    18   14   15 ar 
    19   14   16 1  
    20   16   17 ar 
    21   16   19 ar 
    22   17   20 ar 
    23   20   18 ar 
    24   18   23 ar 
    25   19   23 ar 
    26   21   22 1  
    27   23   24 1  
    28    3   25 1  
    29    6   26 1  
    30    6   27 1  
    31    7   28 1  
    32    7   29 1  
    33    7   30 1  
    34   10   31 1  
    35   11   32 1  
    36   12   33 1  
    37   13   34 1  
    38   15   35 1  
    39   17   36 1  
    40   18   37 1  
    41   19   38 1  
    42   21   39 1  
    43   21   40 1  
    44   22   41 1  
    45   22   42 1  
@<TRIPOS>SUBSTRUCTURE
     1 0KQ         1

