### 
### Created by X-TOOL on Mon Sep 10 21:13:11 2018
### 

@<TRIPOS>MOLECULE
4dk7_ligand
   40    41     1     0     0
SMALL
GAST_HUCK


@<TRIPOS>ATOM
      1 C1         41.5400   68.0850   41.2280 C.ar      1 0KS        -0.0342
      2 C2         40.6920   67.3820   42.1320 C.ar      1 0KS        -0.0506
      3 C3         40.9840   68.4550   39.9750 C.ar      1 0KS        -0.0506
      4 C4         39.3670   67.0720   41.7960 C.ar      1 0KS        -0.0071
      5 C5         39.6690   68.1470   39.6380 C.ar      1 0KS        -0.0071
      6 C6         38.8240   67.4450   40.5480 C.ar      1 0KS         0.1125
      7 N1         37.4590   67.0790   40.2750 N.am      1 0KS        -0.1467
      8 S2         36.9630   65.4040   40.0170 S.o2      1 0KS         0.1032
      9 O4         35.6080   65.4530   39.5150 O.2       1 0KS        -0.1412
     10 O5         37.1310   64.7550   41.2970 O.2       1 0KS        -0.1412
     11 C8         38.0180   64.5890   38.8050 C.ar      1 0KS         0.1176
     12 C9         39.2110   63.9300   39.2230 C.ar      1 0KS        -0.0342
     13 C10        37.6440   64.6020   37.4290 C.ar      1 0KS        -0.0342
     14 C11        38.4550   63.9600   36.4670 C.ar      1 0KS        -0.0599
     15 C12        40.0210   63.2870   38.2650 C.ar      1 0KS        -0.0599
     16 C13        39.6330   63.3100   36.8980 C.ar      1 0KS        -0.0616
     17 C7         36.9780   67.9490   39.1720 C.3       1 0KS         0.0595
     18 C18        42.9970   68.4480   41.5400 C.3       1 0KS         0.2176
     19 C19        43.9500   67.2380   41.2270 C.3       1 0KS         0.3869
     20 C20        43.1470   69.0520   43.0080 C.3       1 0KS         0.3869
     21 F5         45.2500   67.5470   41.4750 F         1 0KS        -0.1800
     22 F4         43.8540   66.8780   39.9130 F         1 0KS        -0.1800
     23 F6         43.6550   66.1270   41.9650 F         1 0KS        -0.1800
     24 F7         44.4370   69.4030   43.2610 F         1 0KS        -0.1800
     25 F9         42.8110   68.1670   43.9780 F         1 0KS        -0.1800
     26 F8         42.3410   70.1610   43.1720 F         1 0KS        -0.1800
     27 O1         43.4470   69.5230   40.6980 O.3       1 0KS        -0.4296
     28 H          41.0814   67.0793   43.1040 H         1 0KS         0.0796
     29 H          41.6031   68.9944   39.2582 H         1 0KS         0.0796
     30 H          38.7452   66.5334   42.5111 H         1 0KS         0.0617
     31 H          39.2795   68.4465   38.6650 H         1 0KS         0.0617
     32 H          39.4947   63.9233   40.2754 H         1 0KS         0.0637
     33 H          36.7301   65.1086   37.1188 H         1 0KS         0.0637
     34 H          38.1774   63.9660   35.4130 H         1 0KS         0.0618
     35 H          40.9352   62.7776   38.5695 H         1 0KS         0.0618
     36 H          40.2625   62.8117   36.1607 H         1 0KS         0.0618
     37 H          37.3957   67.6004   38.2275 H         1 0KS         0.0562
     38 H          35.8897   67.9078   39.1267 H         1 0KS         0.0562
     39 H          37.2968   68.9752   39.3550 H         1 0KS         0.0562
     40 H          42.8975   70.2960   40.8467 H         1 0KS         0.1901
@<TRIPOS>BOND
     1    1    2 ar 
     2    1    3 ar 
     3    1   18 1  
     4    2    4 ar 
     5    3    5 ar 
     6    4    6 ar 
     7    5    6 ar 
     8    6    7 1  
     9    7    8 am 
    10    7   17 1  
    11    8    9 2  
    12    8   10 2  
    13    8   11 1  
    14   11   12 ar 
    15   11   13 ar 
    16   12   15 ar 
    17   13   14 ar 
    18   14   16 ar 
    19   15   16 ar 
    20   18   19 1  
    21   18   20 1  
    22   18   27 1  
    23   19   21 1  
    24   19   22 1  
    25   19   23 1  
    26   20   24 1  
    27   20   25 1  
    28   20   26 1  
    29    2   28 1  
    30    3   29 1  
    31    4   30 1  
    32    5   31 1  
    33   12   32 1  
    34   13   33 1  
    35   14   34 1  
    36   15   35 1  
    37   16   36 1  
    38   17   37 1  
    39   17   38 1  
    40   17   39 1  
    41   27   40 1  
@<TRIPOS>SUBSTRUCTURE
     1 0KS         1

