### 
### Created by X-TOOL on Mon Sep 10 21:13:11 2018
### 

@<TRIPOS>MOLECULE
4dk8_ligand
   55    57     1     0     0
SMALL
GAST_HUCK


@<TRIPOS>ATOM
      1 C1         39.7500   66.6120   40.6160 C.ar      1 0KT        -0.0767
      2 C2         40.3300   67.6170   39.7780 C.ar      1 0KT        -0.0686
      3 C3         40.3160   66.4070   41.8860 C.ar      1 0KT        -0.0686
      4 C4         41.4400   68.3570   40.1960 C.ar      1 0KT        -0.0214
      5 C5         41.4160   67.1440   42.3030 C.ar      1 0KT        -0.0214
      6 C6         41.9980   68.1270   41.4680 C.ar      1 0KT         0.0957
      7 N1         43.1560   68.8610   41.8240 N.am      1 0KT        -0.1574
      8 S2         44.6620   67.9600   42.2360 S.o2      1 0KT         0.0990
      9 O4         45.6370   68.9900   42.4930 O.2       1 0KT        -0.1424
     10 O5         44.9010   67.0860   41.0990 O.2       1 0KT        -0.1424
     11 C8         44.5620   66.9670   43.7150 C.ar      1 0KT         0.1164
     12 C9         44.0600   65.6450   43.6590 C.ar      1 0KT        -0.0344
     13 C10        44.9920   67.5230   44.9450 C.ar      1 0KT        -0.0344
     14 C11        44.9180   66.7550   46.1280 C.ar      1 0KT        -0.0599
     15 C12        43.9850   64.8780   44.8450 C.ar      1 0KT        -0.0599
     16 C13        44.4130   65.4330   46.0800 C.ar      1 0KT        -0.0616
     17 C7         42.7030   69.8220   42.8590 C.3       1 0KT         0.0542
     18 C18        38.5660   65.7660   40.1740 C.3       1 0KT         0.1314
     19 C19        38.9420   65.0480   38.8500 C.2       1 0KT         0.0284
     20 C20        37.2750   66.6600   40.0470 C.3       1 0KT         0.3641
     21 F7         36.2290   65.9220   39.6680 F         1 0KT        -0.1872
     22 F9         37.4060   67.6240   39.1410 F         1 0KT        -0.1872
     23 F8         37.0090   67.2440   41.2140 F         1 0KT        -0.1872
     24 O1         38.2230   64.8110   41.1770 O.3       1 0KT        -0.4612
     25 C14        38.3660   65.2280   37.5690 C.2       1 0KT        -0.0514
     26 N2         39.9370   64.1040   38.7280 N.pl3     1 0KT        -0.2585
     27 C16        39.9770   63.7130   37.4250 C.2       1 0KT         0.0597
     28 C17        39.0160   64.3930   36.6890 C.2       1 0KT        -0.0323
     29 C15        40.8640   63.5380   39.7500 C.3       1 0KT         0.0823
     30 C21        40.4650   62.1210   40.1620 C.3       1 0KT         0.0757
     31 O2         39.0870   62.0010   40.4670 O.3       1 0KT        -0.3801
     32 C23        38.8170   60.8850   41.2930 C.3       1 0KT         0.0366
     33 H          39.8982   67.8089   38.7957 H         1 0KT         0.0710
     34 H          39.8856   65.6594   42.5523 H         1 0KT         0.0710
     35 H          41.8727   69.1108   39.5382 H         1 0KT         0.0568
     36 H          41.8389   66.9623   43.2911 H         1 0KT         0.0568
     37 H          43.7337   65.2212   42.7093 H         1 0KT         0.0637
     38 H          45.3792   68.5414   44.9783 H         1 0KT         0.0637
     39 H          45.2490   67.1791   47.0760 H         1 0KT         0.0618
     40 H          43.5981   63.8595   44.8110 H         1 0KT         0.0618
     41 H          44.3527   64.8403   46.9927 H         1 0KT         0.0618
     42 H          42.5056   69.2872   43.7880 H         1 0KT         0.0546
     43 H          43.4803   70.5677   43.0257 H         1 0KT         0.0546
     44 H          41.7913   70.3148   42.5212 H         1 0KT         0.0546
     45 H          38.9725   64.2325   41.3361 H         1 0KT         0.1805
     46 H          37.5508   65.9085   37.3230 H         1 0KT         0.0650
     47 H          40.6649   62.9721   37.0176 H         1 0KT         0.1215
     48 H          38.8156   64.2864   35.6229 H         1 0KT         0.0469
     49 H          40.8258   64.1739   40.6345 H         1 0KT         0.0650
     50 H          41.8643   63.4988   39.3187 H         1 0KT         0.0650
     51 H          41.0275   61.8654   41.0600 H         1 0KT         0.0589
     52 H          40.6784   61.4586   39.3231 H         1 0KT         0.0589
     53 H          39.1322   59.9737   40.7848 H         1 0KT         0.0524
     54 H          39.3639   60.9875   42.2303 H         1 0KT         0.0524
     55 H          37.7476   60.8367   41.4982 H         1 0KT         0.0524
@<TRIPOS>BOND
     1    1    2 ar 
     2    1    3 ar 
     3    1   18 1  
     4    2    4 ar 
     5    3    5 ar 
     6    4    6 ar 
     7    5    6 ar 
     8    6    7 1  
     9    7    8 am 
    10    7   17 1  
    11    8    9 2  
    12    8   10 2  
    13    8   11 1  
    14   11   12 ar 
    15   11   13 ar 
    16   12   15 ar 
    17   13   14 ar 
    18   14   16 ar 
    19   15   16 ar 
    20   18   19 1  
    21   18   20 1  
    22   18   24 1  
    23   19   25 2  
    24   19   26 1  
    25   20   21 1  
    26   20   22 1  
    27   20   23 1  
    28   25   28 1  
    29   26   27 1  
    30   26   29 1  
    31   27   28 2  
    32   29   30 1  
    33   30   31 1  
    34   31   32 1  
    35    2   33 1  
    36    3   34 1  
    37    4   35 1  
    38    5   36 1  
    39   12   37 1  
    40   13   38 1  
    41   14   39 1  
    42   15   40 1  
    43   16   41 1  
    44   17   42 1  
    45   17   43 1  
    46   17   44 1  
    47   24   45 1  
    48   25   46 1  
    49   27   47 1  
    50   28   48 1  
    51   29   49 1  
    52   29   50 1  
    53   30   51 1  
    54   30   52 1  
    55   32   53 1  
    56   32   54 1  
    57   32   55 1  
@<TRIPOS>SUBSTRUCTURE
     1 0KT         1

