### 
### Created by X-TOOL on Mon Sep 10 21:13:10 2018
### 

@<TRIPOS>MOLECULE
4dko_ligand
   51    52     1     0     0
SMALL
GAST_HUCK


@<TRIPOS>ATOM
      1 C10        28.1020  -15.4540   37.4700 C.2       1 0LM         0.2910
      2 C13        28.4590  -15.3320   34.9130 C.3       1 0LM         0.0536
      3 C15        28.2240  -13.3160   33.4590 C.3       1 0LM        -0.0134
      4 C17        30.3380  -13.6710   34.7480 C.3       1 0LM        -0.0134
      5 C20        31.7850  -13.6890   34.3800 C.3       1 0LM        -0.0189
      6 C21        27.3240  -12.3480   34.1470 C.3       1 0LM        -0.0189
      7 C22        27.9760  -13.1160   31.9980 C.3       1 0LM        -0.0189
      8 C01        27.2230  -14.7080   43.5510 C.ar      1 0LM        -0.0630
      9 C02        25.8460  -14.5560   43.6230 C.ar      1 0LM         0.0570
     10 C03        25.0720  -14.7230   42.4840 C.ar      1 0LM         0.1334
     11 C04        25.6730  -15.0430   41.2750 C.ar      1 0LM        -0.0073
     12 C05        27.0540  -15.1890   41.1960 C.ar      1 0LM         0.0659
     13 C06        27.8230  -15.0280   42.3400 C.ar      1 0LM        -0.0442
     14 N07        27.7050  -15.5290   39.9590 N.am      1 0LM        -0.2228
     15 C08        27.3400  -15.0090   38.6740 C.2       1 0LM         0.3120
     16 O09        26.4280  -14.2070   38.5420 O.2       1 0LM        -0.3460
     17 N11        27.7540  -14.9350   36.1830 N.am      1 0LM        -0.2713
     18 O12        29.0140  -16.2570   37.6060 O.2       1 0LM        -0.3581
     19 C14        27.8110  -14.7220   33.7860 C.3       1 0LM         0.0160
     20 N16        29.6200  -12.9590   33.7090 N.4       1 0LM         0.2410
     21 C18        29.9160  -15.0810   34.9430 C.3       1 0LM         0.0160
     22 C19        30.2240  -12.9400   36.0450 C.3       1 0LM        -0.0189
     23 C23        30.1050  -11.6550   33.3590 C.3       1 0LM        -0.0421
     24 CL         25.0910  -14.1580   45.1260 Cl        1 0LM        -0.0860
     25 F25        23.7520  -14.5770   42.5560 F         1 0LM        -0.1867
     26 H1         28.3355  -16.4197   34.8056 H         1 0LM         0.0562
     27 H2         32.3536  -14.2249   35.1543 H         1 0LM         0.0287
     28 H3         32.1562  -12.6565   34.3012 H         1 0LM         0.0287
     29 H4         31.9113  -14.1989   33.4135 H         1 0LM         0.0287
     30 H5         26.2760  -12.6217   33.9553 H         1 0LM         0.0287
     31 H6         27.5142  -11.3345   33.7640 H         1 0LM         0.0287
     32 H7         27.5173  -12.3732   35.2296 H         1 0LM         0.0287
     33 H8         28.6117  -13.8035   31.4207 H         1 0LM         0.0287
     34 H9         28.2155  -12.0779   31.7241 H         1 0LM         0.0287
     35 H10        26.9184  -13.3196   31.7743 H         1 0LM         0.0287
     36 H11        27.8303  -14.5771   44.4393 H         1 0LM         0.0575
     37 H12        25.0640  -15.1797   40.3887 H         1 0LM         0.0488
     38 H13        28.8985  -15.1528   42.2881 H         1 0LM         0.0472
     39 H14        28.4674  -16.1749   39.9984 H         1 0LM         0.2273
     40 H15        27.0048  -14.2753   36.1238 H         1 0LM         0.1868
     41 H16        26.7292  -14.7153   33.9852 H         1 0LM         0.0345
     42 H17        28.0175  -15.3453   32.9035 H         1 0LM         0.0345
     43 H18        30.0111  -13.4513   32.9211 H         1 0LM         0.2041
     44 H19        30.3777  -15.6835   34.1469 H         1 0LM         0.0345
     45 H20        30.2946  -15.4133   35.9208 H         1 0LM         0.0345
     46 H21        30.7721  -13.4891   36.8248 H         1 0LM         0.0287
     47 H22        29.1643  -12.8601   36.3290 H         1 0LM         0.0287
     48 H23        30.6517  -11.9324   35.9368 H         1 0LM         0.0287
     49 H24        29.4740  -11.2302   32.5644 H         1 0LM         0.0778
     50 H25        31.1422  -11.7334   33.0011 H         1 0LM         0.0778
     51 H26        30.0706  -11.0015   34.2431 H         1 0LM         0.0778
@<TRIPOS>BOND
     1   15    1 1  
     2    1   17 am 
     3    1   18 2  
     4   17    2 1  
     5    2   19 1  
     6    2   21 1  
     7    3    6 1  
     8    3    7 1  
     9   19    3 1  
    10    3   20 1  
    11    4    5 1  
    12    4   20 1  
    13   21    4 1  
    14    4   22 1  
    15    8    9 ar 
    16   13    8 ar 
    17   10    9 ar 
    18    9   24 1  
    19   11   10 ar 
    20   10   25 1  
    21   12   11 ar 
    22   12   13 ar 
    23   14   12 1  
    24   14   15 am 
    25   15   16 2  
    26   20   23 1  
    27    2   26 1  
    28    5   27 1  
    29    5   28 1  
    30    5   29 1  
    31    6   30 1  
    32    6   31 1  
    33    6   32 1  
    34    7   33 1  
    35    7   34 1  
    36    7   35 1  
    37    8   36 1  
    38   11   37 1  
    39   13   38 1  
    40   14   39 1  
    41   17   40 1  
    42   19   41 1  
    43   19   42 1  
    44   20   43 1  
    45   21   44 1  
    46   21   45 1  
    47   22   46 1  
    48   22   47 1  
    49   22   48 1  
    50   23   49 1  
    51   23   50 1  
    52   23   51 1  
@<TRIPOS>SUBSTRUCTURE
     1 0LM         1

