### 
### Created by X-TOOL on Mon Sep 10 21:13:10 2018
### 

@<TRIPOS>MOLECULE
4dkp_ligand
   40    42     1     0     0
SMALL
GAST_HUCK


@<TRIPOS>ATOM
      1 C13        27.1830  -14.8660   38.9990 C.2       1 0LL         0.3121
      2 C15        26.8590  -15.0220   41.5330 C.ar      1 0LL         0.0659
      3 C20        25.4430  -14.5530   43.9530 C.ar      1 0LL         0.0570
      4 C21        24.7850  -14.5850   42.7360 C.ar      1 0LL         0.1334
      5 C22        25.4700  -14.8040   41.5340 C.ar      1 0LL        -0.0073
      6 C01        25.9120  -14.3330   32.0590 C.ar      1 0LL        -0.0754
      7 C02        26.4890  -14.9600   33.1720 C.ar      1 0LL        -0.0644
      8 C03        27.4570  -14.3210   33.9320 C.ar      1 0LL        -0.0101
      9 C04        27.8400  -13.0140   33.5570 C.ar      1 0LL        -0.0330
     10 C05        27.2720  -12.3800   32.4500 C.ar      1 0LL        -0.0666
     11 C06        26.2970  -13.0460   31.6920 C.ar      1 0LL        -0.0755
     12 C07        28.2110  -14.8030   35.1750 C.3       1 0LL         0.1182
     13 C08        29.4170  -13.7810   35.2310 C.3       1 0LL         0.0164
     14 C09        28.8880  -12.5100   34.4980 C.3       1 0LL         0.0256
     15 N10        30.5980  -14.3520   34.5740 N.4       1 0LL         0.2251
     16 N11        27.5180  -14.7010   36.4720 N.am      1 0LL        -0.2559
     17 C12        28.0340  -15.0650   37.7020 C.2       1 0LL         0.2928
     18 N14        27.5970  -15.2220   40.3030 N.am      1 0LL        -0.2228
     19 O16        26.0670  -14.3700   38.8060 O.2       1 0LL        -0.3460
     20 O17        29.1620  -15.5640   37.8220 O.2       1 0LL        -0.3579
     21 C18        27.5160  -14.9700   42.7930 C.ar      1 0LL        -0.0442
     22 C19        26.8140  -14.7470   43.9720 C.ar      1 0LL        -0.0630
     23 CL         24.5550  -14.2660   45.3710 Cl        1 0LL        -0.0860
     24 F24        23.4710  -14.4040   42.7100 F         1 0LL        -0.1867
     25 H1         24.9249  -14.8054   40.5970 H         1 0LL         0.0488
     26 H2         25.1594  -14.8546   31.4788 H         1 0LL         0.0541
     27 H3         26.1733  -15.9609   33.4431 H         1 0LL         0.0538
     28 H4         27.5829  -11.3779   32.1775 H         1 0LL         0.0537
     29 H5         25.8486  -12.5643   30.8306 H         1 0LL         0.0541
     30 H6         28.5493  -15.8396   35.0299 H         1 0LL         0.0765
     31 H7         29.6695  -13.5387   36.2738 H         1 0LL         0.0917
     32 H8         28.4527  -11.8015   35.2181 H         1 0LL         0.0469
     33 H9         29.7004  -12.0170   33.9439 H         1 0LL         0.0469
     34 H10        30.9029  -15.1681   35.0810 H         1 0LL         0.2001
     35 H11        31.3387  -13.6684   34.5610 H         1 0LL         0.2001
     36 H12        30.3639  -14.6119   33.6286 H         1 0LL         0.2001
     37 H13        26.5877  -14.3343   36.4613 H         1 0LL         0.1896
     38 H14        28.4934  -15.6576   40.3847 H         1 0LL         0.2273
     39 H15        28.5904  -15.1076   42.8352 H         1 0LL         0.0472
     40 H16        27.3456  -14.7247   44.9165 H         1 0LL         0.0575
@<TRIPOS>BOND
     1   17    1 1  
     2    1   18 am 
     3    1   19 2  
     4    2    5 ar 
     5   18    2 1  
     6    2   21 ar 
     7    4    3 ar 
     8    3   22 ar 
     9    3   23 1  
    10    5    4 ar 
    11    4   24 1  
    12    7    6 ar 
    13    6   11 ar 
    14    8    7 ar 
    15    8    9 ar 
    16   12    8 1  
    17    9   10 ar 
    18   14    9 1  
    19   10   11 ar 
    20   12   13 1  
    21   16   12 1  
    22   13   14 1  
    23   13   15 1  
    24   16   17 am 
    25   17   20 2  
    26   21   22 ar 
    27    5   25 1  
    28    6   26 1  
    29    7   27 1  
    30   10   28 1  
    31   11   29 1  
    32   12   30 1  
    33   13   31 1  
    34   14   32 1  
    35   14   33 1  
    36   15   34 1  
    37   15   35 1  
    38   15   36 1  
    39   16   37 1  
    40   18   38 1  
    41   21   39 1  
    42   22   40 1  
@<TRIPOS>SUBSTRUCTURE
     1 0LL         1

