### 
### Created by X-TOOL on Mon Sep 10 21:13:10 2018
### 

@<TRIPOS>MOLECULE
4dkq_ligand
   45    47     1     0     0
SMALL
GAST_HUCK


@<TRIPOS>ATOM
      1 C13        -3.8260  -15.8600   13.8350 C.2       1 0LK         0.3121
      2 C15        -4.0550  -15.7730   16.2360 C.ar      1 0LK         0.0659
      3 C20        -5.4280  -15.2510   18.7170 C.ar      1 0LK         0.0570
      4 C21        -6.1430  -15.3690   17.5400 C.ar      1 0LK         0.1334
      5 C22        -5.4860  -15.6230   16.2930 C.ar      1 0LK        -0.0073
      6 C01        -4.7840  -15.0910    7.1930 C.ar      1 0LK        -0.0754
      7 C02        -4.1900  -15.8270    8.2640 C.ar      1 0LK        -0.0645
      8 C03        -3.2570  -15.2320    9.0490 C.ar      1 0LK        -0.0119
      9 C04        -2.9020  -13.9170    8.7840 C.ar      1 0LK        -0.0348
     10 C05        -3.4830  -13.1850    7.7370 C.ar      1 0LK        -0.0667
     11 C06        -4.4260  -13.7940    6.9490 C.ar      1 0LK        -0.0755
     12 C07        -2.5120  -15.7850   10.1840 C.3       1 0LK         0.1114
     13 C08        -1.3640  -14.6510   10.4150 C.3       1 0LK         0.1135
     14 C09        -1.8660  -13.4420    9.7450 C.3       1 0LK         0.0186
     15 N10        -0.0380  -15.0850    9.7750 N.pl3     1 0LK        -0.2642
     16 N11        -3.3590  -15.9780   11.4590 N.am      1 0LK        -0.2577
     17 C12        -2.8950  -16.1300   12.6930 C.2       1 0LK         0.2928
     18 N14        -3.3810  -15.9950   15.0670 N.am      1 0LK        -0.2228
     19 O16        -5.0640  -15.5020   13.5190 O.2       1 0LK        -0.3460
     20 O17        -1.7190  -16.4870   12.9070 O.2       1 0LK        -0.3579
     21 C18        -3.3560  -15.6370   17.4170 C.ar      1 0LK        -0.0442
     22 C19        -4.0600  -15.3740   18.6870 C.ar      1 0LK        -0.0630
     23 CL         -6.2800  -14.9340   20.2090 Cl        1 0LK        -0.0860
     24 F24        -7.4520  -15.2540   17.5610 F         1 0LK        -0.1867
     25 C25         0.5970  -16.1340   10.0420 C.cat     1 0LK         0.2887
     26 N26         0.1800  -17.0470   10.9990 N.pl3     1 0LK        -0.2848
     27 N27         1.7930  -16.4120    9.3670 N.pl3     1 0LK        -0.2848
     28 H1         -6.0712  -15.7030   15.3840 H         1 0LK         0.0488
     29 H2         -5.5285  -15.5672    6.5654 H         1 0LK         0.0541
     30 H3         -4.4830  -16.8543    8.4482 H         1 0LK         0.0538
     31 H4         -3.1917  -12.1569    7.5544 H         1 0LK         0.0537
     32 H5         -4.8869  -13.2479    6.1339 H         1 0LK         0.0541
     33 H6         -2.0627  -16.7515    9.9120 H         1 0LK         0.0746
     34 H7         -1.2142  -14.4669   11.4891 H         1 0LK         0.0793
     35 H8         -2.3098  -12.7528   10.4785 H         1 0LK         0.0451
     36 H9         -1.0507  -12.9329    9.2101 H         1 0LK         0.0451
     37 H10         0.3664  -14.4598    9.0633 H         1 0LK         0.2648
     38 H11        -4.3524  -15.9897   11.3446 H         1 0LK         0.1895
     39 H12        -2.4323  -16.2974   15.1592 H         1 0LK         0.2273
     40 H13        -2.2755  -15.7244   17.4123 H         1 0LK         0.0472
     41 H14        -3.4922  -15.2769   19.6053 H         1 0LK         0.0575
     42 H15         0.7378  -17.8936   11.1807 H         1 0LK         0.2615
     43 H16        -0.6875  -16.8785   11.5281 H         1 0LK         0.2615
     44 H17         2.1416  -15.7621    8.6480 H         1 0LK         0.2615
     45 H18         2.3236  -17.2663    9.5898 H         1 0LK         0.2615
@<TRIPOS>BOND
     1   17    1 1  
     2    1   18 am 
     3    1   19 2  
     4    2    5 ar 
     5   18    2 1  
     6    2   21 ar 
     7    4    3 ar 
     8    3   22 ar 
     9    3   23 1  
    10    5    4 ar 
    11    4   24 1  
    12    7    6 ar 
    13    6   11 ar 
    14    8    7 ar 
    15    8    9 ar 
    16   12    8 1  
    17    9   10 ar 
    18   14    9 1  
    19   10   11 ar 
    20   12   13 1  
    21   16   12 1  
    22   13   14 1  
    23   13   15 1  
    24   15   25 ar 
    25   16   17 am 
    26   17   20 2  
    27   21   22 ar 
    28   25   26 ar 
    29   25   27 ar 
    30    5   28 1  
    31    6   29 1  
    32    7   30 1  
    33   10   31 1  
    34   11   32 1  
    35   12   33 1  
    36   13   34 1  
    37   14   35 1  
    38   14   36 1  
    39   15   37 1  
    40   16   38 1  
    41   18   39 1  
    42   21   40 1  
    43   22   41 1  
    44   26   42 1  
    45   26   43 1  
    46   27   44 1  
    47   27   45 1  
@<TRIPOS>SUBSTRUCTURE
     1 0LK         1

