### 
### Created by X-TOOL on Mon Sep 10 21:13:10 2018
### 

@<TRIPOS>MOLECULE
4dkr_ligand
   45    47     1     0     0
SMALL
GAST_HUCK


@<TRIPOS>ATOM
      1 C10        27.5100  -15.1910   38.5030 C.2       1 0LJ         0.3121
      2 C15        29.0220  -15.2890   34.9760 C.3       1 0LJ         0.1114
      3 C17        29.0210  -15.4480   32.6730 C.3       1 0LJ         0.0186
      4 C21        29.6400  -12.9080   32.2470 C.ar      1 0LJ        -0.0667
      5 C22        29.9250  -11.6840   32.8650 C.ar      1 0LJ        -0.0755
      6 C24        29.6440  -12.7080   35.0420 C.ar      1 0LJ        -0.0645
      7 C01        27.1090  -15.3940   43.4550 C.ar      1 0LJ        -0.0630
      8 C02        25.7620  -15.0520   43.4290 C.ar      1 0LJ         0.0570
      9 C03        25.1160  -14.8560   42.2230 C.ar      1 0LJ         0.1334
     10 C04        25.8060  -15.0020   41.0380 C.ar      1 0LJ        -0.0073
     11 C05        27.1550  -15.3540   41.0550 C.ar      1 0LJ         0.0659
     12 C06        27.7970  -15.5390   42.2690 C.ar      1 0LJ        -0.0442
     13 CL7        24.8930  -14.8660   44.8920 Cl        1 0LJ        -0.0860
     14 F08        23.8280  -14.5290   42.2120 F         1 0LJ        -0.1867
     15 N09        27.9410  -15.5030   39.8420 N.am      1 0LJ        -0.2228
     16 O11        26.3910  -14.7820   38.2440 O.2       1 0LJ        -0.3460
     17 C12        28.5080  -15.3980   37.3610 C.2       1 0LJ         0.2928
     18 N13        28.1150  -15.1110   36.0140 N.am      1 0LJ        -0.2577
     19 O14        29.6520  -15.8170   37.6050 O.2       1 0LJ        -0.3579
     20 C16        28.3820  -15.9970   33.8470 C.3       1 0LJ         0.1135
     21 C18        29.3550  -14.0420   33.0310 C.ar      1 0LJ        -0.0348
     22 C19        29.3600  -13.9420   34.4150 C.ar      1 0LJ        -0.0119
     23 N20        28.6540  -17.3930   33.9520 N.pl3     1 0LJ        -0.2642
     24 C23        29.9250  -11.5850   34.2630 C.ar      1 0LJ        -0.0754
     25 C25        27.7420  -18.3370   33.4100 C.cat     1 0LJ         0.2887
     26 N26        26.6540  -17.9200   32.8100 N.pl3     1 0LJ        -0.2848
     27 N27        27.9910  -19.6150   33.5090 N.pl3     1 0LJ        -0.2848
     28 H1         29.9164  -15.8225   35.3302 H         1 0LJ         0.0746
     29 H2         28.3357  -15.4745   31.8130 H         1 0LJ         0.0451
     30 H3         29.9342  -16.0118   32.4318 H         1 0LJ         0.0451
     31 H4         29.6389  -12.9822   31.1655 H         1 0LJ         0.0537
     32 H5         30.1460  -10.8115   32.2609 H         1 0LJ         0.0541
     33 H6         29.6436  -12.6341   36.1235 H         1 0LJ         0.0538
     34 H7         27.6152  -15.5457   44.4015 H         1 0LJ         0.0575
     35 H8         25.2994  -14.8430   40.0929 H         1 0LJ         0.0488
     36 H9         28.8490  -15.7999   42.2864 H         1 0LJ         0.0472
     37 H10        28.8707  -15.8561   39.9466 H         1 0LJ         0.2273
     38 H11        27.1902  -14.7833   35.8208 H         1 0LJ         0.1895
     39 H12        27.2962  -15.8221   33.8271 H         1 0LJ         0.0793
     40 H13        29.5120  -17.7166   34.4210 H         1 0LJ         0.2648
     41 H14        30.1433  -10.6359   34.7391 H         1 0LJ         0.0541
     42 H15        25.9900  -18.6015   32.4156 H         1 0LJ         0.2615
     43 H16        26.4629  -16.9108   32.7329 H         1 0LJ         0.2615
     44 H17        28.8474  -19.9377   33.9815 H         1 0LJ         0.2615
     45 H18        27.3310  -20.3004   33.1146 H         1 0LJ         0.2615
@<TRIPOS>BOND
     1    1   15 am 
     2    1   16 2  
     3   17    1 1  
     4   18    2 1  
     5    2   20 1  
     6    2   22 1  
     7   20    3 1  
     8    3   21 1  
     9    5    4 ar 
    10   21    4 ar 
    11   24    5 ar 
    12   22    6 ar 
    13    6   24 ar 
    14    7    8 ar 
    15   12    7 ar 
    16    9    8 ar 
    17    8   13 1  
    18   10    9 ar 
    19    9   14 1  
    20   11   10 ar 
    21   11   12 ar 
    22   15   11 1  
    23   17   18 am 
    24   17   19 2  
    25   20   23 1  
    26   21   22 ar 
    27   23   25 ar 
    28   25   26 ar 
    29   25   27 ar 
    30    2   28 1  
    31    3   29 1  
    32    3   30 1  
    33    4   31 1  
    34    5   32 1  
    35    6   33 1  
    36    7   34 1  
    37   10   35 1  
    38   12   36 1  
    39   15   37 1  
    40   18   38 1  
    41   20   39 1  
    42   23   40 1  
    43   24   41 1  
    44   26   42 1  
    45   26   43 1  
    46   27   44 1  
    47   27   45 1  
@<TRIPOS>SUBSTRUCTURE
     1 0LJ         1

