### 
### Created by X-TOOL on Mon Sep 10 21:13:10 2018
### 

@<TRIPOS>MOLECULE
4dld_ligand
   33    33     1     0     0
SMALL
GAST_HUCK


@<TRIPOS>ATOM
      1 N1          3.3020   35.1610  102.0110 N.2       1 TZG         0.3081
      2 C4          0.3810   33.4090  103.2700 C.ar      1 TZG        -0.0438
      3 C5          1.7160   33.7160  103.0610 C.ar      1 TZG         0.0700
      4 C6          2.0380   34.8030  102.2580 C.ar      1 TZG         0.1996
      5 C7         -2.0590   33.7680  102.9980 C.3       1 TZG         0.0365
      6 C8         -2.6130   34.6330  104.1570 C.3       1 TZG         0.0376
      7 C10        -1.0050   37.6500  101.1960 C.3       1 TZG         0.0090
      8 O4         -4.8960   34.6360  103.5290 O.co2     1 TZG        -0.5641
      9 C12        -4.0640   34.2360  104.3720 C.2       1 TZG         0.0866
     10 O5         -4.2900   33.4930  105.3440 O.co2     1 TZG        -0.5641
     11 N2         -1.8730   34.3300  105.3870 N.4       1 TZG         0.2341
     12 C3         -0.6270   34.1780  102.6990 C.ar      1 TZG        -0.0272
     13 CL1         2.9310   32.7310  103.8120 Cl        1 TZG        -0.0699
     14 O1          3.5940   36.5220  101.7250 O.2       1 TZG         0.1749
     15 O2          4.3420   34.2130  101.9890 O.2       1 TZG         0.1749
     16 C1          1.0330   35.5630  101.6850 C.ar      1 TZG        -0.0233
     17 C2         -0.3070   35.2710  101.9000 C.ar      1 TZG        -0.0305
     18 C9         -1.3600   36.1580  101.2080 C.3       1 TZG        -0.0086
     19 C11        -1.3510   38.2940  102.5460 C.2       1 TZG         0.0366
     20 O7         -2.4750   38.0500  103.0290 O.co2     1 TZG        -0.5689
     21 O6         -0.4850   39.0230  103.0620 O.co2     1 TZG        -0.5689
     22 H1          0.1188   32.5574  103.8873 H         1 TZG         0.0561
     23 H2         -2.6779   33.9173  102.1010 H         1 TZG         0.0498
     24 H3         -2.0836   32.7072  103.2881 H         1 TZG         0.0498
     25 H4         -2.5322   35.7026  103.9133 H         1 TZG         0.1048
     26 H5         -1.5738   38.1514  100.3991 H         1 TZG         0.0451
     27 H6          0.0723   37.7646  101.0054 H         1 TZG         0.0451
     28 H7         -2.2324   34.8923  106.1425 H         1 TZG         0.2012
     29 H8         -0.8957   34.5358  105.2505 H         1 TZG         0.2012
     30 H9         -1.9825   33.3538  105.6132 H         1 TZG         0.2012
     31 H10         1.2980   36.4043  101.0548 H         1 TZG         0.0611
     32 H11        -1.4679   35.8193  100.1670 H         1 TZG         0.0431
     33 H12        -2.3175   36.0341  101.7351 H         1 TZG         0.0431
@<TRIPOS>BOND
     1    4    1 1  
     2    1   14 2  
     3    1   15 2  
     4    2    3 ar 
     5   12    2 ar 
     6    4    3 ar 
     7    3   13 1  
     8   16    4 ar 
     9    5    6 1  
    10   12    5 1  
    11    6    9 1  
    12    6   11 1  
    13   18    7 1  
    14    7   19 1  
    15    9    8 ar 
    16    9   10 ar 
    17   17   12 ar 
    18   17   16 ar 
    19   17   18 1  
    20   19   20 ar 
    21   19   21 ar 
    22    2   22 1  
    23    5   23 1  
    24    5   24 1  
    25    6   25 1  
    26    7   26 1  
    27    7   27 1  
    28   11   28 1  
    29   11   29 1  
    30   11   30 1  
    31   16   31 1  
    32   18   32 1  
    33   18   33 1  
@<TRIPOS>SUBSTRUCTURE
     1 TZG         1

