### 
### Created by X-TOOL on Fri Sep 26 17:35:01 2014
### 

@<TRIPOS>MOLECULE
4dli_ligand
   37    40     1     0     0
SMALL
GAST_HUCK


@<TRIPOS>ATOM
      1 N1         23.9510  -17.0200  -10.7870 N.ar      1 IRG        -0.2577
      2 C2         23.7610  -17.7670   -9.6720 C.ar      1 IRG         0.0922
      3 N3         24.0140  -17.2130   -8.4700 N.ar      1 IRG        -0.3000
      4 C4         24.4770  -15.9560   -8.3730 C.ar      1 IRG         0.0275
      5 C5         24.6550  -15.1760   -9.5110 C.ar      1 IRG         0.0437
      6 C6         24.4140  -15.7530  -10.7530 C.ar      1 IRG         0.1347
      7 NAA        25.4880  -13.5930   -5.7910 N.pl3     1 IRG        -0.3325
      8 CAB        22.0700  -21.6240  -10.1730 C.ar      1 IRG        -0.0580
      9 CAC        22.3560  -20.8030  -11.2580 C.ar      1 IRG        -0.0569
     10 CAD        22.3690  -21.1600   -8.8750 C.ar      1 IRG        -0.0569
     11 CAE        22.9280  -19.5440  -11.0690 C.ar      1 IRG        -0.0465
     12 CAF        22.9540  -19.8950   -8.6880 C.ar      1 IRG        -0.0465
     13 CAG        25.4390  -13.2950   -8.1480 C.ar      1 IRG        -0.0324
     14 CAH        25.1500  -13.8640   -9.3930 C.ar      1 IRG        -0.0457
     15 CAI        24.7850  -15.4040   -7.1300 C.ar      1 IRG        -0.0279
     16 CAJ        25.6170  -16.2920  -13.8110 C.3       1 IRG        -0.0267
     17 CAK        25.1050  -14.9780  -14.3790 C.3       1 IRG        -0.0267
     18 NAN        24.5870  -15.0370  -11.8930 N.pl3     1 IRG        -0.2913
     19 CAO        25.2360  -14.0890   -7.0050 C.ar      1 IRG         0.0422
     20 CAP        23.2420  -19.0650   -9.7990 C.ar      1 IRG         0.0142
     21 CAU        24.3650  -15.6630  -13.1980 C.3       1 IRG         0.0439
     22 H1         25.8211  -12.6236   -5.6897 H         1 IRG         0.1750
     23 H2         25.3493  -14.1798   -4.9559 H         1 IRG         0.1750
     24 H3         21.6259  -22.6016  -10.3217 H         1 IRG         0.0649
     25 H4         22.1322  -21.1446  -12.2621 H         1 IRG         0.0628
     26 H5         22.1464  -21.7826   -8.0160 H         1 IRG         0.0628
     27 H6         23.1333  -18.9225  -11.9331 H         1 IRG         0.0661
     28 H7         23.1863  -19.5525   -7.6861 H         1 IRG         0.0661
     29 H8         25.8063  -12.2783   -8.0672 H         1 IRG         0.0573
     30 H9         25.3117  -13.2785  -10.2908 H         1 IRG         0.0672
     31 H10        24.6714  -16.0110   -6.2391 H         1 IRG         0.0469
     32 H11        26.5557  -16.3109  -13.2379 H         1 IRG         0.0289
     33 H12        25.5308  -17.2144  -14.4041 H         1 IRG         0.0289
     34 H13        24.6437  -14.9519  -15.3772 H         1 IRG         0.0289
     35 H14        25.6686  -14.0484  -14.2110 H         1 IRG         0.0289
     36 H15        24.8755  -14.0497  -11.8400 H         1 IRG         0.1910
     37 H16        23.3622  -16.1041  -13.2969 H         1 IRG         0.0568
@<TRIPOS>BOND
     1    1    2 ar 
     2    6    1 ar 
     3    2    3 ar 
     4    2   20 1  
     5    4    3 ar 
     6    5    4 ar 
     7    4   15 ar 
     8    6    5 ar 
     9    5   14 ar 
    10   18    6 1  
    11   19    7 1  
    12    9    8 ar 
    13   10    8 ar 
    14   11    9 ar 
    15   12   10 ar 
    16   20   11 ar 
    17   20   12 ar 
    18   14   13 ar 
    19   13   19 ar 
    20   15   19 ar 
    21   17   16 1  
    22   21   16 1  
    23   21   17 1  
    24   18   21 1  
    25    7   22 1  
    26    7   23 1  
    27    8   24 1  
    28    9   25 1  
    29   10   26 1  
    30   11   27 1  
    31   12   28 1  
    32   13   29 1  
    33   14   30 1  
    34   15   31 1  
    35   16   32 1  
    36   16   33 1  
    37   17   34 1  
    38   17   35 1  
    39   18   36 1  
    40   21   37 1  
@<TRIPOS>SUBSTRUCTURE
     1 IRG         1

