### 
### Created by X-TOOL on Mon Sep 10 21:13:15 2018
### 

@<TRIPOS>MOLECULE
4dlj_ligand
   46    49     1     0     0
SMALL
GAST_HUCK


@<TRIPOS>ATOM
      1 N1         23.8750  -16.6430  -11.0000 N.ar      1 6RG        -0.2577
      2 C2         23.8420  -17.3970   -9.8840 C.ar      1 6RG         0.0922
      3 N3         24.2590  -16.9060   -8.7020 N.ar      1 6RG        -0.3000
      4 C4         24.7330  -15.6440   -8.6280 C.ar      1 6RG         0.0275
      5 C5         24.7970  -14.8650   -9.7920 C.ar      1 6RG         0.0437
      6 C6         24.3690  -15.3920  -11.0050 C.ar      1 6RG         0.1346
      7 NAA        26.1130  -13.2400   -6.2330 N.pl3     1 6RG        -0.3325
      8 CAB        26.6110  -17.4210  -17.4640 C.ar      1 6RG        -0.0687
      9 CAC        22.0940  -21.2090  -10.0330 C.ar      1 6RG        -0.0580
     10 CAD        25.2160  -17.4690  -17.4860 C.ar      1 6RG        -0.0686
     11 CAE        27.2430  -16.9350  -16.3100 C.ar      1 6RG        -0.0686
     12 CAF        22.5340  -20.6980   -8.8190 C.ar      1 6RG        -0.0569
     13 CAG        22.2620  -20.4520  -11.1800 C.ar      1 6RG        -0.0569
     14 CAH        24.4900  -17.0320  -16.3550 C.ar      1 6RG        -0.0603
     15 CAI        26.5140  -16.5030  -15.1880 C.ar      1 6RG        -0.0603
     16 CAJ        23.1210  -19.4240   -8.7730 C.ar      1 6RG        -0.0465
     17 CAK        22.8610  -19.1860  -11.1490 C.ar      1 6RG        -0.0465
     18 CAL        25.7420  -13.0290   -8.5430 C.ar      1 6RG        -0.0324
     19 CAM        25.2890  -13.5540   -9.7470 C.ar      1 6RG        -0.0457
     20 CAN        25.1860  -15.1140   -7.4160 C.ar      1 6RG        -0.0279
     21 CAO        24.9550  -14.8920  -13.4060 C.3       1 6RG         0.0422
     22 CAP        24.3150  -16.1110  -14.0150 C.3       1 6RG         0.0021
     23 NAS        24.3730  -14.5990  -12.1070 N.pl3     1 6RG        -0.2924
     24 CAT        25.6810  -13.8000   -7.3730 C.ar      1 6RG         0.0422
     25 CAU        25.1290  -16.5520  -15.2070 C.ar      1 6RG        -0.0410
     26 CAV        23.3020  -18.6740   -9.9410 C.ar      1 6RG         0.0142
     27 H1         26.4700  -12.2738   -6.2368 H         1 6RG         0.1750
     28 H2         26.0877  -13.7762   -5.3539 H         1 6RG         0.1750
     29 H3         27.1915  -17.7512  -18.3178 H         1 6RG         0.0559
     30 H4         21.6262  -22.1856  -10.0818 H         1 6RG         0.0649
     31 H5         24.6948  -17.8378  -18.3620 H         1 6RG         0.0599
     32 H6         28.3258  -16.8911  -16.2823 H         1 6RG         0.0599
     33 H7         22.4246  -21.2803   -7.9113 H         1 6RG         0.0628
     34 H8         21.9205  -20.8501  -12.1286 H         1 6RG         0.0628
     35 H9         23.4069  -17.0699  -16.3778 H         1 6RG         0.0557
     36 H10        27.0333  -16.1330  -14.3114 H         1 6RG         0.0557
     37 H11        23.4384  -19.0154   -7.8204 H         1 6RG         0.0661
     38 H12        22.9779  -18.6132  -12.0618 H         1 6RG         0.0661
     39 H13        26.1430  -12.0225   -8.5079 H         1 6RG         0.0573
     40 H14        25.3161  -12.9517  -10.6479 H         1 6RG         0.0672
     41 H15        25.1554  -15.7142   -6.5138 H         1 6RG         0.0469
     42 H16        24.7996  -14.0315  -14.0733 H         1 6RG         0.0555
     43 H17        26.0334  -15.0727  -13.2857 H         1 6RG         0.0555
     44 H18        23.2918  -15.8679  -14.3372 H         1 6RG         0.0447
     45 H19        24.2826  -16.9207  -13.2711 H         1 6RG         0.0447
     46 H20        23.9100  -13.6839  -12.0113 H         1 6RG         0.1908
@<TRIPOS>BOND
     1    1    2 ar 
     2    6    1 ar 
     3    2    3 ar 
     4    2   26 1  
     5    4    3 ar 
     6    5    4 ar 
     7    4   20 ar 
     8    6    5 ar 
     9    5   19 ar 
    10   23    6 1  
    11   24    7 1  
    12   10    8 ar 
    13   11    8 ar 
    14   12    9 ar 
    15   13    9 ar 
    16   14   10 ar 
    17   15   11 ar 
    18   16   12 ar 
    19   17   13 ar 
    20   25   14 ar 
    21   25   15 ar 
    22   26   16 ar 
    23   26   17 ar 
    24   19   18 ar 
    25   18   24 ar 
    26   20   24 ar 
    27   22   21 1  
    28   21   23 1  
    29   22   25 1  
    30    7   27 1  
    31    7   28 1  
    32    8   29 1  
    33    9   30 1  
    34   10   31 1  
    35   11   32 1  
    36   12   33 1  
    37   13   34 1  
    38   14   35 1  
    39   15   36 1  
    40   16   37 1  
    41   17   38 1  
    42   18   39 1  
    43   19   40 1  
    44   20   41 1  
    45   21   42 1  
    46   21   43 1  
    47   22   44 1  
    48   22   45 1  
    49   23   46 1  
@<TRIPOS>SUBSTRUCTURE
     1 6RG         1

