### 
### Created by X-TOOL on Mon Sep 10 21:13:11 2018
### 

@<TRIPOS>MOLECULE
4dmn_ligand
   39    41     1     0     0
SMALL
GAST_HUCK


@<TRIPOS>ATOM
      1 CL1       -39.6380   14.2750   29.4340 Cl        1 0L9        -0.0695
      2 C19       -41.3710   14.5930   29.0570 C.ar      1 0L9         0.0415
      3 C20       -42.3820   14.4270   30.0180 C.ar      1 0L9        -0.0464
      4 C21       -43.7500   14.6670   29.7240 C.ar      1 0L9        -0.0522
      5 C18       -41.7250   14.9870   27.7950 C.ar      1 0L9        -0.0464
      6 C17       -43.0840   15.2080   27.4840 C.ar      1 0L9        -0.0522
      7 C10       -44.1010   15.0620   28.4400 C.ar      1 0L9        -0.0125
      8 C9        -45.4660   15.3440   27.9010 C.ar      1 0L9         0.0111
      9 C8        -46.2820   14.2740   27.5640 C.ar      1 0L9         0.0409
     10 C11       -45.7850   12.8760   27.8690 C.3       1 0L9         0.1496
     11 O13       -45.8670   11.9890   26.7420 O.3       1 0L9        -0.3529
     12 C14       -44.6120   11.8980   26.0760 C.3       1 0L9         0.0417
     13 C12       -46.3800   12.3160   29.1940 C.2       1 0L9         0.0766
     14 O1        -46.4860   13.0780   30.1830 O.co2     1 0L9        -0.5639
     15 O2        -46.7190   11.1060   29.3550 O.co2     1 0L9        -0.5639
     16 C5        -45.8680   16.6700   27.6450 C.ar      1 0L9         0.0045
     17 C6        -45.0470   17.7560   27.9750 C.ar      1 0L9        -0.0420
     18 C1        -45.4350   19.1020   27.7510 C.ar      1 0L9         0.0137
     19 BR        -44.2130   20.4840   28.2860 Br        1 0L9        -0.0502
     20 C2        -46.6880   19.3590   27.1720 C.ar      1 0L9        -0.0526
     21 C3        -47.5370   18.2640   26.8420 C.ar      1 0L9        -0.0454
     22 C4        -47.1250   16.9190   27.0910 C.ar      1 0L9         0.0329
     23 N         -47.9150   15.8460   26.7760 N.ar      1 0L9        -0.3041
     24 C7        -47.5280   14.5510   27.0000 C.ar      1 0L9         0.0329
     25 C16       -48.4980   13.4540   26.6240 C.3       1 0L9        -0.0144
     26 H1        -42.1088   14.1052   31.0164 H         1 0L9         0.0625
     27 H2        -44.5079   14.5439   30.4892 H         1 0L9         0.0631
     28 H3        -40.9638   15.1289   27.0364 H         1 0L9         0.0625
     29 H4        -43.3506   15.4998   26.4746 H         1 0L9         0.0631
     30 H5        -44.7079   12.9850   28.0639 H         1 0L9         0.0935
     31 H6        -44.7006   11.2145   25.2187 H         1 0L9         0.0527
     32 H7        -43.8534   11.5141   26.7740 H         1 0L9         0.0527
     33 H8        -44.3123   12.8949   25.7207 H         1 0L9         0.0527
     34 H9        -44.0776   17.5602   28.4188 H         1 0L9         0.0665
     35 H10       -47.0051   20.3774   26.9787 H         1 0L9         0.0640
     36 H11       -48.5070   18.4534   26.3967 H         1 0L9         0.0617
     37 H12       -49.4095   13.9002   26.1997 H         1 0L9         0.0426
     38 H13       -48.7579   12.8713   27.5200 H         1 0L9         0.0426
     39 H14       -48.0324   12.7924   25.8786 H         1 0L9         0.0426
@<TRIPOS>BOND
     1    1    2 1  
     2    2    3 ar 
     3    2    5 ar 
     4    3    4 ar 
     5    4    7 ar 
     6    5    6 ar 
     7    6    7 ar 
     8    7    8 1  
     9    8    9 ar 
    10    8   16 ar 
    11    9   10 1  
    12    9   24 ar 
    13   10   11 1  
    14   10   13 1  
    15   11   12 1  
    16   13   14 ar 
    17   13   15 ar 
    18   16   17 ar 
    19   16   22 ar 
    20   17   18 ar 
    21   18   19 1  
    22   18   20 ar 
    23   20   21 ar 
    24   21   22 ar 
    25   22   23 ar 
    26   23   24 ar 
    27   24   25 1  
    28    3   26 1  
    29    4   27 1  
    30    5   28 1  
    31    6   29 1  
    32   10   30 1  
    33   12   31 1  
    34   12   32 1  
    35   12   33 1  
    36   17   34 1  
    37   20   35 1  
    38   21   36 1  
    39   25   37 1  
    40   25   38 1  
    41   25   39 1  
@<TRIPOS>SUBSTRUCTURE
     1 0L9         1

