### 
### Created by X-TOOL on Mon Sep 10 21:13:08 2018
### 

@<TRIPOS>MOLECULE
4do4_ligand
   31    31     1     0     0
SMALL
GAST_HUCK


@<TRIPOS>ATOM
      1 O7         58.0300   -1.9300   18.0920 O.2       1 DJN        -0.3974
      2 C7         57.3240   -2.5520   18.8880 C.2       1 DJN         0.1734
      3 C8         56.4130   -1.8710   19.8950 C.3       1 DJN         0.0257
      4 N2         57.3220   -3.8880   18.8960 N.am      1 DJN        -0.2764
      5 C2         58.2610   -4.6800   18.1140 C.3       1 DJN         0.1099
      6 C3         57.6440   -5.5760   17.0750 C.3       1 DJN         0.1141
      7 O3         56.7370   -4.8760   16.2140 O.3       1 DJN        -0.3865
      8 C4         58.7910   -6.1900   16.2720 C.3       1 DJN         0.1277
      9 O4         59.5020   -5.1490   15.5950 O.3       1 DJN        -0.3835
     10 C5         59.7340   -6.9340   17.2110 C.3       1 DJN         0.0301
     11 C6         60.9630   -7.4480   16.4340 C.3       1 DJN         0.0893
     12 O6         61.8690   -8.1030   17.3410 O.3       1 DJN        -0.3894
     13 N5         60.1930   -6.2030   18.3970 N.4       1 DJN         0.2344
     14 C1         59.0680   -5.5520   19.0820 C.3       1 DJN        -0.0071
     15 H1         55.8890   -2.6337   20.4898 H         1 DJN         0.0467
     16 H2         55.6764   -1.2513   19.3627 H         1 DJN         0.0467
     17 H3         57.0139   -1.2350   20.5617 H         1 DJN         0.0467
     18 H4         56.6484   -4.3634   19.4619 H         1 DJN         0.1857
     19 H5         58.9401   -3.9852   17.5983 H         1 DJN         0.0636
     20 H6         57.0864   -6.3775   17.5816 H         1 DJN         0.0646
     21 H7         56.3749   -5.4816   15.5779 H         1 DJN         0.2100
     22 H8         58.3835   -6.8949   15.5323 H         1 DJN         0.0678
     23 H9         60.2155   -5.5277   15.0951 H         1 DJN         0.2102
     24 H10        59.1774   -7.8088   17.5782 H         1 DJN         0.0900
     25 H11        61.4742   -6.5999   15.9550 H         1 DJN         0.0614
     26 H12        60.6366   -8.1620   15.6636 H         1 DJN         0.0614
     27 H13        62.6246   -8.4183   16.8593 H         1 DJN         0.2097
     28 H14        60.8580   -5.5002   18.1143 H         1 DJN         0.2019
     29 H15        60.6360   -6.8489   19.0315 H         1 DJN         0.2019
     30 H16        58.4087   -6.3249   19.5038 H         1 DJN         0.0838
     31 H17        59.4587   -4.9206   19.8935 H         1 DJN         0.0838
@<TRIPOS>BOND
     1    1    2 2  
     2    2    3 1  
     3    2    4 am 
     4    4    5 1  
     5    5    6 1  
     6    5   14 1  
     7    6    7 1  
     8    6    8 1  
     9    8    9 1  
    10    8   10 1  
    11   10   11 1  
    12   10   13 1  
    13   11   12 1  
    14   13   14 1  
    15    3   15 1  
    16    3   16 1  
    17    3   17 1  
    18    4   18 1  
    19    5   19 1  
    20    6   20 1  
    21    7   21 1  
    22    8   22 1  
    23    9   23 1  
    24   10   24 1  
    25   11   25 1  
    26   11   26 1  
    27   12   27 1  
    28   13   28 1  
    29   13   29 1  
    30   14   30 1  
    31   14   31 1  
@<TRIPOS>SUBSTRUCTURE
     1 DJN         1

