### 
### Created by X-TOOL on Mon Sep 10 21:13:10 2018
### 

@<TRIPOS>MOLECULE
4dpf_ligand
   91    94     1     0     0
SMALL
GAST_HUCK


@<TRIPOS>ATOM
      1 O14         7.5780   -0.4430  -10.6280 O.2       1 0LG        -0.1500
      2 S11         7.3040   -1.1830  -11.7790 S.o2      1 0LG         0.0593
      3 O13         5.9760   -1.6610  -11.7930 O.2       1 0LG        -0.1500
      4 C12         8.4810   -2.4350  -11.8480 C.3       1 0LG         0.0790
      5 N7          7.5460   -0.1170  -13.0160 N.am      1 0LG        -0.1796
      6 C10         8.8770    0.5160  -13.0700 C.3       1 0LG         0.0445
      7 C6          6.9980   -0.4060  -14.3180 C.ar      1 0LG         0.0754
      8 C1          6.4810   -1.6510  -14.6830 C.ar      1 0LG        -0.0214
      9 C2          5.9540   -1.8230  -15.9310 C.ar      1 0LG         0.0398
     10 C5          6.9870    0.6680  -15.2270 C.ar      1 0LG        -0.0214
     11 C4          6.4310    0.4680  -16.4850 C.ar      1 0LG         0.0397
     12 C3          5.9280   -0.7750  -16.8360 C.ar      1 0LG        -0.0393
     13 C8          6.3730    1.5850  -17.4780 C.2       1 0LG         0.2024
     14 O15         7.2760    2.3960  -17.5970 O.2       1 0LG        -0.3847
     15 N16         5.2450    1.5860  -18.1650 N.am      1 0LG        -0.2783
     16 C17         4.8980    2.4830  -19.2910 C.3       1 0LG         0.0958
     17 C18         3.9740    3.6200  -18.7920 C.3       1 0LG         0.1196
     18 C19         4.6910    4.5020  -17.7770 C.3       1 0LG        -0.0034
     19 N20         3.9380    5.6950  -17.4350 N.4       1 0LG         0.2409
     20 C37         4.6560    6.8050  -16.8220 C.3       1 0LG        -0.0014
     21 C38         5.7220    7.3850  -17.7290 C.ar      1 0LG        -0.0054
     22 C39         5.3590    7.9170  -18.9450 C.ar      1 0LG        -0.0539
     23 C40         6.2920    8.4520  -19.8100 C.ar      1 0LG        -0.0471
     24 C44         5.7980    8.9570  -21.1210 C.3       1 0LG        -0.0146
     25 C45         5.0330   10.2400  -20.9540 C.3       1 0LG        -0.0529
     26 C46         6.9320    9.1060  -22.1170 C.3       1 0LG        -0.0529
     27 C41         7.6410    8.4400  -19.4490 C.ar      1 0LG        -0.0670
     28 C42         8.0050    7.8980  -18.2150 C.ar      1 0LG        -0.0750
     29 C43         7.0720    7.3800  -17.3280 C.ar      1 0LG        -0.0622
     30 O21         3.5880    4.4510  -19.9130 O.3       1 0LG        -0.3841
     31 C22         4.1810    1.6140  -20.3580 C.3       1 0LG         0.0754
     32 O34         4.8280    0.3110  -20.5180 O.3       1 0LG        -0.3685
     33 C35         3.9460   -0.7780  -20.9130 C.3       1 0LG         0.0651
     34 C36         4.5040   -2.1700  -20.5860 C.2       1 0LG        -0.0731
     35 C33         3.9550   -3.0700  -19.7950 C.2       1 0LG        -0.0924
     36 C26         4.7130   -4.3800  -19.6330 C.3       1 0LG        -0.0033
     37 C25         4.8420   -4.7240  -18.1370 C.3       1 0LG         0.0816
     38 N23         5.5020   -3.5510  -17.5570 N.am      1 0LG        -0.2705
     39 C9          5.3080   -3.1100  -16.3360 C.2       1 0LG         0.2042
     40 O24         4.5210   -3.6290  -15.5340 O.2       1 0LG        -0.3845
     41 C27         5.5670   -5.9990  -17.9190 C.ar      1 0LG        -0.0163
     42 C28         6.9250   -6.1660  -18.1940 C.ar      1 0LG        -0.0580
     43 C29         7.4990   -7.3960  -17.9330 C.ar      1 0LG        -0.0685
     44 C30         6.7320   -8.4550  -17.4050 C.ar      1 0LG        -0.0687
     45 C31         5.3740   -8.3040  -17.1460 C.ar      1 0LG        -0.0685
     46 C32         4.8030   -7.0630  -17.4030 C.ar      1 0LG        -0.0580
     47 H1          9.4881   -1.9927  -11.8335 H         1 0LG         0.0487
     48 H2          8.3477   -3.0129  -12.7744 H         1 0LG         0.0487
     49 H3          8.3602   -3.1001  -10.9802 H         1 0LG         0.0487
     50 H4          8.9223    1.2017  -13.9289 H         1 0LG         0.0517
     51 H5          9.6482   -0.2606  -13.1798 H         1 0LG         0.0517
     52 H6          9.0532    1.0791  -12.1417 H         1 0LG         0.0517
     53 H7          6.4980   -2.4758  -13.9799 H         1 0LG         0.0566
     54 H8          7.4031    1.6305  -14.9521 H         1 0LG         0.0566
     55 H9          5.5116   -0.9278  -17.8251 H         1 0LG         0.0576
     56 H10         4.5555    0.9129  -17.8977 H         1 0LG         0.1850
     57 H11         5.8118    2.9204  -19.7195 H         1 0LG         0.0606
     58 H12         3.0785    3.1809  -18.3280 H         1 0LG         0.0671
     59 H13         5.6597    4.8073  -18.1993 H         1 0LG         0.0840
     60 H14         4.8584    3.9176  -16.8602 H         1 0LG         0.0840
     61 H15         3.2115    5.4174  -16.7937 H         1 0LG         0.2029
     62 H16         3.5215    6.0406  -18.2854 H         1 0LG         0.2029
     63 H17         5.1360    6.4468  -15.8994 H         1 0LG         0.0979
     64 H18         3.9342    7.5977  -16.5759 H         1 0LG         0.0979
     65 H19         4.3134    7.9159  -19.2309 H         1 0LG         0.0496
     66 H20         5.1015    8.2072  -21.5242 H         1 0LG         0.0455
     67 H21         4.6816   10.5879  -21.9366 H         1 0LG         0.0254
     68 H22         5.6886   11.0025  -20.5081 H         1 0LG         0.0254
     69 H23         4.1689   10.0686  -20.2952 H         1 0LG         0.0254
     70 H24         7.4657    8.1487  -22.2108 H         1 0LG         0.0254
     71 H25         7.6288    9.8814  -21.7660 H         1 0LG         0.0254
     72 H26         6.5240    9.3958  -23.0965 H         1 0LG         0.0254
     73 H27         8.3933    8.8450  -20.1161 H         1 0LG         0.0500
     74 H28         9.0534    7.8812  -17.9401 H         1 0LG         0.0582
     75 H29         7.3709    6.9865  -16.3632 H         1 0LG         0.0501
     76 H30         3.1382    3.9198  -20.5595 H         1 0LG         0.2101
     77 H31         4.2022    2.1434  -21.3220 H         1 0LG         0.0586
     78 H32         3.1371    1.4581  -20.0482 H         1 0LG         0.0586
     79 H33         3.7812   -0.7157  -21.9988 H         1 0LG         0.0685
     80 H34         2.9866   -0.6561  -20.3889 H         1 0LG         0.0685
     81 H35         5.4487   -2.4413  -21.0548 H         1 0LG         0.0472
     82 H36         3.0104   -2.8864  -19.2851 H         1 0LG         0.0453
     83 H37         5.7162   -4.2787  -20.0726 H         1 0LG         0.0433
     84 H38         4.1668   -5.1845  -20.1473 H         1 0LG         0.0433
     85 H39         3.8404   -4.8305  -17.6948 H         1 0LG         0.0740
     86 H40         6.1473   -3.0500  -18.1336 H         1 0LG         0.1876
     87 H41         7.5142   -5.3525  -18.6016 H         1 0LG         0.0557
     88 H42         8.5527   -7.5486  -18.1369 H         1 0LG         0.0599
     89 H43         7.2102   -9.4053  -17.1969 H         1 0LG         0.0559
     90 H44         4.7819   -9.1248  -16.7576 H         1 0LG         0.0599
     91 H45         3.7486   -6.9115  -17.2021 H         1 0LG         0.0557
@<TRIPOS>BOND
     1    1    2 2  
     2    2    3 2  
     3    2    4 1  
     4    2    5 am 
     5    5    6 1  
     6    5    7 1  
     7    7    8 ar 
     8    7   10 ar 
     9    8    9 ar 
    10    9   12 ar 
    11    9   39 1  
    12   10   11 ar 
    13   11   12 ar 
    14   11   13 1  
    15   13   14 2  
    16   13   15 am 
    17   15   16 1  
    18   16   17 1  
    19   16   31 1  
    20   17   18 1  
    21   17   30 1  
    22   18   19 1  
    23   19   20 1  
    24   20   21 1  
    25   21   22 ar 
    26   21   29 ar 
    27   22   23 ar 
    28   23   24 1  
    29   23   27 ar 
    30   24   25 1  
    31   24   26 1  
    32   27   28 ar 
    33   28   29 ar 
    34   31   32 1  
    35   32   33 1  
    36   33   34 1  
    37   34   35 2  
    38   35   36 1  
    39   36   37 1  
    40   37   38 1  
    41   37   41 1  
    42   38   39 am 
    43   39   40 2  
    44   41   42 ar 
    45   41   46 ar 
    46   42   43 ar 
    47   43   44 ar 
    48   44   45 ar 
    49   45   46 ar 
    50    4   47 1  
    51    4   48 1  
    52    4   49 1  
    53    6   50 1  
    54    6   51 1  
    55    6   52 1  
    56    8   53 1  
    57   10   54 1  
    58   12   55 1  
    59   15   56 1  
    60   16   57 1  
    61   17   58 1  
    62   18   59 1  
    63   18   60 1  
    64   19   61 1  
    65   19   62 1  
    66   20   63 1  
    67   20   64 1  
    68   22   65 1  
    69   24   66 1  
    70   25   67 1  
    71   25   68 1  
    72   25   69 1  
    73   26   70 1  
    74   26   71 1  
    75   26   72 1  
    76   27   73 1  
    77   28   74 1  
    78   29   75 1  
    79   30   76 1  
    80   31   77 1  
    81   31   78 1  
    82   33   79 1  
    83   33   80 1  
    84   34   81 1  
    85   35   82 1  
    86   36   83 1  
    87   36   84 1  
    88   37   85 1  
    89   38   86 1  
    90   42   87 1  
    91   43   88 1  
    92   44   89 1  
    93   45   90 1  
    94   46   91 1  
@<TRIPOS>SUBSTRUCTURE
     1 0LG         1

