### 
### Created by X-TOOL on Mon Sep 10 21:13:09 2018
### 

@<TRIPOS>MOLECULE
4dpi_ligand
   86    89     1     0     0
SMALL
GAST_HUCK


@<TRIPOS>ATOM
      1 C12        -2.5530   -4.2850   17.3670 C.ar      1 0N1         0.0063
      2 C6         -7.2900   -1.5900   15.3580 C.ar      1 0N1        -0.0472
      3 C1         -7.8740   -0.3620   15.0450 C.ar      1 0N1        -0.0471
      4 C2         -7.5710    0.8070   15.7960 C.ar      1 0N1        -0.0478
      5 C5         -6.3920   -1.6900   16.4540 C.ar      1 0N1         0.0315
      6 C4         -6.1650   -0.5570   17.2340 C.ar      1 0N1        -0.0397
      7 C3         -6.7020    0.6800   16.8830 C.ar      1 0N1         0.0368
      8 C8         -5.7040   -2.9470   16.8500 C.3       1 0N1         0.1162
      9 C17        -2.2010   -5.5540   16.8760 C.ar      1 0N1        -0.0548
     10 C18        -3.8310   -3.9130   19.6080 C.3       1 0N1         0.0172
     11 C19        -3.6130   -2.4890   20.0920 C.2       1 0N1        -0.0893
     12 C37        -5.5210    8.1460   19.1550 C.ar      1 0N1        -0.0539
     13 C38        -5.8240    9.0420   21.3870 C.3       1 0N1        -0.0146
     14 C39        -5.2670   10.4460   21.2630 C.3       1 0N1        -0.0529
     15 C40        -6.6680    8.8170   22.6390 C.3       1 0N1        -0.0529
     16 C41        -4.2620    1.8610   20.4580 C.3       1 0N1         0.0754
     17 C35        -7.7760    8.6230   19.7660 C.ar      1 0N1        -0.0670
     18 C36        -6.4400    8.6080   20.0920 C.ar      1 0N1        -0.0471
     19 C33        -7.2850    7.6800   17.5910 C.ar      1 0N1        -0.0622
     20 C25        -6.4460    1.8840   17.7320 C.2       1 0N1         0.2021
     21 C27        -4.1610    3.9310   19.0150 C.3       1 0N1         0.1196
     22 C29        -4.8840    4.7840   17.9550 C.3       1 0N1        -0.0034
     23 C31        -4.8810    7.1310   16.9430 C.3       1 0N1        -0.0014
     24 C32        -5.9300    7.6610   17.9220 C.ar      1 0N1        -0.0054
     25 O26        -7.3940    2.7290   17.8780 O.2       1 0N1        -0.3847
     26 N24        -5.2480    1.9280   18.3100 N.am      1 0N1        -0.2783
     27 C23        -4.9970    2.7420   19.4720 C.3       1 0N1         0.0958
     28 N30        -4.1300    5.9700   17.5270 N.4       1 0N1         0.2409
     29 C34        -8.2010    8.1320   18.5330 C.ar      1 0N1        -0.0750
     30 O28        -3.7460    4.7230   20.1540 O.3       1 0N1        -0.3841
     31 O22        -4.9760    0.6120   20.6100 O.3       1 0N1        -0.3685
     32 C21        -4.1540   -0.4140   21.2310 C.3       1 0N1         0.0651
     33 C20        -4.5270   -1.8210   20.8140 C.2       1 0N1        -0.0730
     34 C11        -3.8820   -4.0720   18.0850 C.3       1 0N1         0.0214
     35 C16        -0.9920   -5.7390   16.1720 C.ar      1 0N1        -0.0684
     36 C15        -0.1510   -4.6340   15.9610 C.ar      1 0N1        -0.0687
     37 C14        -0.5010   -3.3610   16.4140 C.ar      1 0N1        -0.0684
     38 C13        -1.7190   -3.2030   17.0700 C.ar      1 0N1        -0.0548
     39 N10        -4.5550   -2.9050   17.5850 N.4       1 0N1         0.2760
     40 O9         -6.1840   -4.0010   16.0000 O.3       1 0N1        -0.3408
     41 C7         -8.8380   -0.2240   13.8750 C.3       1 0N1        -0.0318
     42 H          -7.5228   -2.4722   14.7617 H         1 0N1         0.0533
     43 H          -8.0032    1.7722   15.5319 H         1 0N1         0.0550
     44 H          -5.5566   -0.6403   18.1345 H         1 0N1         0.0553
     45 H          -5.8434   -3.3877   17.8371 H         1 0N1         0.1354
     46 H          -2.8666   -6.4014   17.0402 H         1 0N1         0.0559
     47 H          -4.7991   -4.2337   19.9927 H         1 0N1         0.0466
     48 H          -2.9829   -4.5005   19.9597 H         1 0N1         0.0466
     49 H          -2.6767   -1.9897   19.8429 H         1 0N1         0.0454
     50 H          -4.4579    8.1657   19.3951 H         1 0N1         0.0496
     51 H          -4.9923    8.3597   21.5627 H         1 0N1         0.0455
     52 H          -6.0897   11.1603   21.2297 H         1 0N1         0.0254
     53 H          -4.6321   10.6609   22.1226 H         1 0N1         0.0254
     54 H          -4.6800   10.5231   20.3478 H         1 0N1         0.0254
     55 H          -6.0591    9.0015   23.5241 H         1 0N1         0.0254
     56 H          -7.5167    9.5009   22.6312 H         1 0N1         0.0254
     57 H          -7.0287    7.7885   22.6525 H         1 0N1         0.0254
     58 H          -4.2010    2.3655   21.4223 H         1 0N1         0.0586
     59 H          -3.2555    1.6628   20.0896 H         1 0N1         0.0586
     60 H          -8.5040    9.0198   20.4736 H         1 0N1         0.0500
     61 H          -7.6199    7.3456   16.6091 H         1 0N1         0.0501
     62 H          -3.2676    3.5399   18.5282 H         1 0N1         0.0671
     63 H          -5.8138    5.1358   18.4021 H         1 0N1         0.0840
     64 H          -5.0252    4.1557   17.0755 H         1 0N1         0.0840
     65 H          -4.1721    7.9302   16.7267 H         1 0N1         0.0979
     66 H          -5.3878    6.7972   16.0375 H         1 0N1         0.0979
     67 H          -4.4877    1.3709   17.9202 H         1 0N1         0.1850
     68 H          -5.8987    3.1266   19.9485 H         1 0N1         0.0606
     69 H          -3.5242    5.6414   16.7750 H         1 0N1         0.2029
     70 H          -3.7019    6.3331   18.3787 H         1 0N1         0.2029
     71 H          -9.2664    8.1021   18.3045 H         1 0N1         0.0582
     72 H          -3.2207    4.1796   20.7459 H         1 0N1         0.2101
     73 H          -4.2993   -0.3423   22.3089 H         1 0N1         0.0685
     74 H          -3.1239   -0.2420   20.9188 H         1 0N1         0.0685
     75 H          -5.4841   -2.2667   21.0848 H         1 0N1         0.0472
     76 H          -4.4058   -5.0044   17.8743 H         1 0N1         0.1039
     77 H          -0.7150   -6.7245   15.7976 H         1 0N1         0.0599
     78 H           0.7927   -4.7732   15.4336 H         1 0N1         0.0559
     79 H           0.1632   -2.5110   16.2580 H         1 0N1         0.0599
     80 H          -2.0331   -2.2009   17.3621 H         1 0N1         0.0559
     81 H          -4.8499   -2.4310   18.4387 H         1 0N1         0.2076
     82 H          -3.8790   -2.5192   16.9258 H         1 0N1         0.2076
     83 H          -5.5460   -4.1625   15.3011 H         1 0N1         0.2185
     84 H          -8.3301   -0.5047   12.9523 H         1 0N1         0.0390
     85 H          -9.6952   -0.8785   14.0330 H         1 0N1         0.0390
     86 H          -9.1766    0.8097   13.8048 H         1 0N1         0.0390
@<TRIPOS>BOND
     1    1    9 ar 
     2   34    1 1  
     3    1   38 ar 
     4    3    2 ar 
     5    5    2 ar 
     6    4    3 ar 
     7    3   41 1  
     8    7    4 ar 
     9    6    5 ar 
    10    5    8 1  
    11    7    6 ar 
    12   20    7 1  
    13    8   39 1  
    14    8   40 1  
    15    9   35 ar 
    16   11   10 1  
    17   10   34 1  
    18   33   11 2  
    19   12   18 ar 
    20   24   12 ar 
    21   13   14 1  
    22   13   15 1  
    23   18   13 1  
    24   16   27 1  
    25   31   16 1  
    26   18   17 ar 
    27   29   17 ar 
    28   24   19 ar 
    29   19   29 ar 
    30   20   25 2  
    31   26   20 am 
    32   21   22 1  
    33   27   21 1  
    34   21   30 1  
    35   22   28 1  
    36   23   24 1  
    37   28   23 1  
    38   27   26 1  
    39   32   31 1  
    40   32   33 1  
    41   34   39 1  
    42   35   36 ar 
    43   36   37 ar 
    44   37   38 ar 
    45    2   42 1  
    46    4   43 1  
    47    6   44 1  
    48    8   45 1  
    49    9   46 1  
    50   10   47 1  
    51   10   48 1  
    52   11   49 1  
    53   12   50 1  
    54   13   51 1  
    55   14   52 1  
    56   14   53 1  
    57   14   54 1  
    58   15   55 1  
    59   15   56 1  
    60   15   57 1  
    61   16   58 1  
    62   16   59 1  
    63   17   60 1  
    64   19   61 1  
    65   21   62 1  
    66   22   63 1  
    67   22   64 1  
    68   23   65 1  
    69   23   66 1  
    70   26   67 1  
    71   27   68 1  
    72   28   69 1  
    73   28   70 1  
    74   29   71 1  
    75   30   72 1  
    76   32   73 1  
    77   32   74 1  
    78   33   75 1  
    79   34   76 1  
    80   35   77 1  
    81   36   78 1  
    82   37   79 1  
    83   38   80 1  
    84   39   81 1  
    85   39   82 1  
    86   40   83 1  
    87   41   84 1  
    88   41   85 1  
    89   41   86 1  
@<TRIPOS>SUBSTRUCTURE
     1 0N1         1

