### 
### Created by X-TOOL on Mon Sep 10 21:13:14 2018
### 

@<TRIPOS>MOLECULE
4dr9_ligand
   62    62     1     0     0
SMALL
GAST_HUCK


@<TRIPOS>ATOM
      1 C5         36.2650   51.8780    4.4090 C.3       1 BB2         0.0585
      2 C3         35.4980   53.1490    4.6880 C.2       1 BB2         0.2013
      3 O4         34.5060   53.2580    5.3860 O.2       1 BB2        -0.3968
      4 N1         35.8890   54.1890    4.0480 N.am      1 BB2        -0.1641
      5 O2         35.1970   55.3280    4.3480 O.3       1 BB2        -0.2717
      6 C6         35.5840   51.1860    3.2220 C.3       1 BB2         0.0654
      7 C12        35.9210   49.7340    3.2970 C.2       1 BB2         0.1836
      8 O13        37.0670   49.3540    3.2870 O.2       1 BB2        -0.3965
      9 C7         36.0260   51.7780    1.8890 C.3       1 BB2        -0.0311
     10 C8         35.5440   51.0470    0.6130 C.3       1 BB2        -0.0506
     11 C9         34.0370   51.0680    0.4650 C.3       1 BB2        -0.0532
     12 C10        33.6260   50.7650   -0.9840 C.3       1 BB2        -0.0559
     13 C11        33.4270   49.2690   -1.1700 C.3       1 BB2        -0.0653
     14 N14        34.8850   48.8980    3.3610 N.am      1 BB2        -0.2650
     15 C15        34.9840   47.4520    3.3090 C.3       1 BB2         0.1332
     16 C16        34.5580   46.8490    4.6600 C.3       1 BB2        -0.0063
     17 C18        35.0510   45.4250    4.8090 C.3       1 BB2        -0.0584
     18 C17        35.1120   47.6630    5.8280 C.3       1 BB2        -0.0584
     19 C19        34.1090   46.9480    2.1830 C.2       1 BB2         0.2047
     20 O20        32.9120   47.1520    2.2360 O.2       1 BB2        -0.3943
     21 N21        34.5880   46.3080    1.1450 N.am      1 BB2        -0.2661
     22 C22        33.6580   45.7500    0.1650 C.3       1 BB2         0.0681
     23 C23        35.9920   46.1150    0.8230 C.3       1 BB2         0.0344
     24 C24        35.9370   45.6390   -0.6180 C.3       1 BB2        -0.0303
     25 C25        34.5490   45.1230   -0.9010 C.3       1 BB2        -0.0257
     26 C26        32.7100   44.7040    0.7590 C.3       1 BB2         0.0673
     27 O27        33.4340   43.5300    1.1420 O.3       1 BB2        -0.3927
     28 H1         36.2406   51.2221    5.2917 H         1 BB2         0.0529
     29 H2         37.3091   52.1158    4.1576 H         1 BB2         0.0529
     30 H3         36.6374   54.1681    3.3851 H         1 BB2         0.2216
     31 H4         35.2907   55.5195    5.2737 H         1 BB2         0.2490
     32 H5         34.4947   51.3101    3.3116 H         1 BB2         0.0563
     33 H6         37.1259   51.7843    1.8748 H         1 BB2         0.0294
     34 H7         35.6528   52.8117    1.8426 H         1 BB2         0.0294
     35 H8         35.8791   50.0003    0.6586 H         1 BB2         0.0267
     36 H9         35.9911   51.5373   -0.2643 H         1 BB2         0.0267
     37 H10        33.6610   52.0629    0.7458 H         1 BB2         0.0265
     38 H11        33.5988   50.3093    1.1301 H         1 BB2         0.0265
     39 H12        34.4148   51.1144   -1.6664 H         1 BB2         0.0263
     40 H13        32.6856   51.2880   -1.2122 H         1 BB2         0.0263
     41 H14        33.1333   49.0647   -2.2102 H         1 BB2         0.0230
     42 H15        32.6372   48.9168   -0.4901 H         1 BB2         0.0230
     43 H16        34.3665   48.7432   -0.9443 H         1 BB2         0.0230
     44 H17        33.9725   49.2970    3.4515 H         1 BB2         0.1883
     45 H18        36.0269   47.1664    3.1074 H         1 BB2         0.0802
     46 H19        33.4591   46.8539    4.7096 H         1 BB2         0.0343
     47 H20        34.7300   45.0258    5.7825 H         1 BB2         0.0234
     48 H21        36.1493   45.4092    4.7504 H         1 BB2         0.0234
     49 H22        34.6318   44.8055    4.0025 H         1 BB2         0.0234
     50 H23        34.7684   48.7046    5.7446 H         1 BB2         0.0234
     51 H24        36.2114   47.6366    5.8045 H         1 BB2         0.0234
     52 H25        34.7550   47.2340    6.7759 H         1 BB2         0.0234
     53 H26        33.0543   46.5584   -0.2731 H         1 BB2         0.0581
     54 H27        36.4486   45.3559    1.4751 H         1 BB2         0.0522
     55 H28        36.5527   47.0575    0.9090 H         1 BB2         0.0522
     56 H29        36.6702   44.8333   -0.7705 H         1 BB2         0.0285
     57 H30        36.1662   46.4760   -1.2939 H         1 BB2         0.0285
     58 H31        34.2218   45.4301   -1.9053 H         1 BB2         0.0289
     59 H32        34.5239   44.0258   -0.8267 H         1 BB2         0.0289
     60 H33        31.9533   44.4334    0.0079 H         1 BB2         0.0580
     61 H34        32.2129   45.1274    1.6442 H         1 BB2         0.0580
     62 H35        34.0868   43.7601    1.7927 H         1 BB2         0.2095
@<TRIPOS>BOND
     1    1    2 1  
     2    1    6 1  
     3    2    3 2  
     4    2    4 am 
     5    4    5 1  
     6    6    7 1  
     7    6    9 1  
     8    7    8 2  
     9    7   14 am 
    10    9   10 1  
    11   10   11 1  
    12   11   12 1  
    13   12   13 1  
    14   14   15 1  
    15   15   16 1  
    16   15   19 1  
    17   16   17 1  
    18   16   18 1  
    19   19   20 2  
    20   19   21 am 
    21   21   22 1  
    22   21   23 1  
    23   22   25 1  
    24   22   26 1  
    25   23   24 1  
    26   24   25 1  
    27   26   27 1  
    28    1   28 1  
    29    1   29 1  
    30    4   30 1  
    31    5   31 1  
    32    6   32 1  
    33    9   33 1  
    34    9   34 1  
    35   10   35 1  
    36   10   36 1  
    37   11   37 1  
    38   11   38 1  
    39   12   39 1  
    40   12   40 1  
    41   13   41 1  
    42   13   42 1  
    43   13   43 1  
    44   14   44 1  
    45   15   45 1  
    46   16   46 1  
    47   17   47 1  
    48   17   48 1  
    49   17   49 1  
    50   18   50 1  
    51   18   51 1  
    52   18   52 1  
    53   22   53 1  
    54   23   54 1  
    55   23   55 1  
    56   24   56 1  
    57   24   57 1  
    58   25   58 1  
    59   25   59 1  
    60   26   60 1  
    61   26   61 1  
    62   27   62 1  
@<TRIPOS>SUBSTRUCTURE
     1 BB2         1

