### 
### Created by X-TOOL on Mon Sep 10 21:13:09 2018
### 

@<TRIPOS>MOLECULE
4drk_ligand
   82    84     1     0     0
SMALL
GAST_HUCK


@<TRIPOS>ATOM
      1 O42        13.1750  -15.5400   29.8980 O.co2     1 I63        -0.5662
      2 C40        13.3870  -15.8000   28.6980 C.2       1 I63         0.0653
      3 O41        12.5270  -15.7170   27.7910 O.co2     1 I63        -0.5662
      4 C39        14.7510  -16.2980   28.2770 C.3       1 I63         0.1224
      5 O38        15.7300  -16.0680   29.2940 O.3       1 I63        -0.3057
      6 C26        16.3280  -14.8520   29.4810 C.ar      1 I63         0.0868
      7 C25        17.3680  -14.8270   30.4010 C.ar      1 I63        -0.0293
      8 C27        15.9450  -13.6840   28.8130 C.ar      1 I63        -0.0399
      9 C28        16.6120  -12.4740   29.0720 C.ar      1 I63        -0.0771
     10 C29        17.6600  -12.4320   29.9890 C.ar      1 I63        -0.0686
     11 C24        18.0310  -13.6070   30.6640 C.ar      1 I63        -0.0186
     12 C15        19.2030  -13.5170   31.5950 C.3       1 I63         0.1207
     13 C16        18.9360  -14.0850   32.9900 C.3       1 I63        -0.0041
     14 C17        18.1850  -13.0880   33.8540 C.3       1 I63        -0.0222
     15 C18        19.0630  -11.9900   34.4320 C.ar      1 I63        -0.0624
     16 C23        18.9910  -10.6710   33.9580 C.ar      1 I63        -0.0801
     17 C22        19.7790   -9.6430   34.4940 C.ar      1 I63        -0.0479
     18 C21        20.6900   -9.9300   35.5250 C.ar      1 I63         0.1122
     19 O34        21.5250   -9.0290   36.1510 O.3       1 I63        -0.3294
     20 C35        21.3070   -7.6310   35.8790 C.3       1 I63         0.0554
     21 C20        20.7460  -11.2490   35.9910 C.ar      1 I63         0.1132
     22 O36        21.6430  -11.4740   36.9990 O.3       1 I63        -0.3266
     23 C37        21.6390  -12.6820   37.8000 C.3       1 I63         0.0568
     24 C19        19.9730  -12.2800   35.4640 C.ar      1 I63        -0.0398
     25 O1         20.1400  -14.4060   30.9500 O.3       1 I63        -0.2586
     26 C1         21.4900  -14.0060   30.8510 C.2       1 I63         0.2622
     27 O2         21.8440  -12.9750   31.3410 O.2       1 I63        -0.3676
     28 C2         22.4420  -15.0000   30.2300 C.3       1 I63         0.1459
     29 N7         21.7860  -16.1830   29.6390 N.am      1 I63        -0.2403
     30 C6         20.9790  -15.9470   28.3900 C.3       1 I63         0.0376
     31 C5         21.7980  -15.1420   27.3380 C.3       1 I63        -0.0320
     32 C4         22.4240  -13.8820   27.9400 C.3       1 I63        -0.0469
     33 C3         23.2710  -14.2870   29.1560 C.3       1 I63        -0.0106
     34 C8         21.9280  -17.3840   30.2460 C.2       1 I63         0.2727
     35 O3         22.6300  -17.5450   31.2660 O.2       1 I63        -0.3607
     36 C9         21.2740  -18.6190   29.6960 C.2       1 I63         0.2392
     37 O4         21.8130  -19.2080   28.7600 O.2       1 I63        -0.2906
     38 C10        20.0580  -19.2200   30.3990 C.3       1 I63         0.0430
     39 C13        19.2290  -20.0610   29.4280 C.3       1 I63        -0.0545
     40 C14        19.2620  -18.1170   31.1320 C.3       1 I63        -0.0545
     41 C11        20.5690  -20.1790   31.4870 C.3       1 I63        -0.0453
     42 C12        19.5130  -20.7000   32.4280 C.3       1 I63        -0.0659
     43 H1         15.0568  -15.7713   27.3610 H         1 I63         0.0785
     44 H2         14.6910  -17.3779   28.0764 H         1 I63         0.0785
     45 H3         17.6683  -15.7344   30.9124 H         1 I63         0.0479
     46 H4         15.1333  -13.7121   28.0951 H         1 I63         0.0486
     47 H5         16.3097  -11.5698   28.5561 H         1 I63         0.0572
     48 H6         18.1838  -11.5023   30.1797 H         1 I63         0.0465
     49 H7         19.5761  -12.4849   31.6701 H         1 I63         0.0814
     50 H8         19.8964  -14.3239   33.4701 H         1 I63         0.0336
     51 H9         18.3354  -15.0017   32.8953 H         1 I63         0.0336
     52 H10        17.7192  -13.6339   34.6877 H         1 I63         0.0406
     53 H11        17.4022  -12.6184   33.2403 H         1 I63         0.0406
     54 H12        18.3042  -10.4398   33.1518 H         1 I63         0.0436
     55 H13        19.6862   -8.6316   34.1151 H         1 I63         0.0493
     56 H14        22.0381   -7.0301   36.4396 H         1 I63         0.0570
     57 H15        20.2889   -7.3517   36.1880 H         1 I63         0.0570
     58 H16        21.4276   -7.4439   34.8018 H         1 I63         0.0570
     59 H17        22.4494  -12.6325   38.5422 H         1 I63         0.0573
     60 H18        21.7918  -13.5547   37.1481 H         1 I63         0.0573
     61 H19        20.6729  -12.7755   38.3176 H         1 I63         0.0573
     62 H20        20.0711  -13.2907   35.8434 H         1 I63         0.0450
     63 H21        23.1191  -15.3549   31.0209 H         1 I63         0.0820
     64 H22        20.0724  -15.3807   28.6495 H         1 I63         0.0526
     65 H23        20.6940  -16.9174   27.9575 H         1 I63         0.0526
     66 H24        21.1285  -14.8479   26.5162 H         1 I63         0.0285
     67 H25        22.6002  -15.7842   26.9455 H         1 I63         0.0285
     68 H26        21.6305  -13.1888   28.2558 H         1 I63         0.0268
     69 H27        23.0627  -13.3915   27.1907 H         1 I63         0.0268
     70 H28        24.0715  -14.9626   28.8204 H         1 I63         0.0314
     71 H29        23.7153  -13.3816   29.5950 H         1 I63         0.0314
     72 H30        18.3610  -20.4821   29.9565 H         1 I63         0.0219
     73 H31        19.8481  -20.8786   29.0302 H         1 I63         0.0219
     74 H32        18.8814  -19.4274   28.5987 H         1 I63         0.0219
     75 H33        19.9345  -17.5657   31.8056 H         1 I63         0.0219
     76 H34        18.4525  -18.5768   31.7179 H         1 I63         0.0219
     77 H35        18.8324  -17.4232   30.3944 H         1 I63         0.0219
     78 H36        21.3240  -19.6461   32.0837 H         1 I63         0.0252
     79 H37        21.0368  -21.0411   30.9890 H         1 I63         0.0252
     80 H38        19.9774  -21.3730   33.1638 H         1 I63         0.0228
     81 H39        18.7519  -21.2511   31.8562 H         1 I63         0.0228
     82 H40        19.0391  -19.8562   32.9508 H         1 I63         0.0228
@<TRIPOS>BOND
     1    1    2 ar 
     2    2    3 ar 
     3    2    4 1  
     4    4    5 1  
     5    5    6 1  
     6    6    7 ar 
     7    6    8 ar 
     8    7   11 ar 
     9    8    9 ar 
    10    9   10 ar 
    11   10   11 ar 
    12   11   12 1  
    13   12   13 1  
    14   12   25 1  
    15   13   14 1  
    16   14   15 1  
    17   15   16 ar 
    18   15   24 ar 
    19   16   17 ar 
    20   17   18 ar 
    21   18   19 1  
    22   18   21 ar 
    23   19   20 1  
    24   21   22 1  
    25   21   24 ar 
    26   22   23 1  
    27   25   26 1  
    28   26   27 2  
    29   26   28 1  
    30   28   29 1  
    31   28   33 1  
    32   29   30 1  
    33   29   34 am 
    34   30   31 1  
    35   31   32 1  
    36   32   33 1  
    37   34   35 2  
    38   34   36 1  
    39   36   37 2  
    40   36   38 1  
    41   38   39 1  
    42   38   40 1  
    43   38   41 1  
    44   41   42 1  
    45    4   43 1  
    46    4   44 1  
    47    7   45 1  
    48    8   46 1  
    49    9   47 1  
    50   10   48 1  
    51   12   49 1  
    52   13   50 1  
    53   13   51 1  
    54   14   52 1  
    55   14   53 1  
    56   16   54 1  
    57   17   55 1  
    58   20   56 1  
    59   20   57 1  
    60   20   58 1  
    61   23   59 1  
    62   23   60 1  
    63   23   61 1  
    64   24   62 1  
    65   28   63 1  
    66   30   64 1  
    67   30   65 1  
    68   31   66 1  
    69   31   67 1  
    70   32   68 1  
    71   32   69 1  
    72   33   70 1  
    73   33   71 1  
    74   39   72 1  
    75   39   73 1  
    76   39   74 1  
    77   40   75 1  
    78   40   76 1  
    79   40   77 1  
    80   41   78 1  
    81   41   79 1  
    82   42   80 1  
    83   42   81 1  
    84   42   82 1  
@<TRIPOS>SUBSTRUCTURE
     1 I63         1

