### 
### Created by X-TOOL on Mon Sep 10 21:13:09 2018
### 

@<TRIPOS>MOLECULE
4drm_ligand
   90    93     1     0     0
SMALL
GAST_HUCK


@<TRIPOS>ATOM
      1 CAA        26.5360   16.0350  -22.4370 C.3       1 0MC        -0.0651
      2 CAQ        27.7260   15.7860  -21.4930 C.3       1 0MC        -0.0515
      3 CBQ        28.4180   14.4040  -21.6720 C.3       1 0MC        -0.0065
      4 CAX        28.6010   13.9760  -23.1480 C.3       1 0MC        -0.0487
      5 CAS        29.4660   12.6940  -23.2320 C.3       1 0MC        -0.0529
      6 CAU        28.8480   11.5260  -22.4280 C.3       1 0MC        -0.0515
      7 CBB        28.5710   11.9180  -20.9600 C.3       1 0MC        -0.0179
      8 CBT        27.7810   13.2500  -20.8290 C.3       1 0MC         0.1451
      9 OAI        26.4500   13.0000  -21.2620 O.3       1 0MC        -0.3848
     10 CBJ        27.7830   13.6320  -19.3380 C.2       1 0MC         0.2652
     11 OAG        26.7620   13.6290  -18.6570 O.2       1 0MC        -0.2881
     12 CBI        29.0490   14.1080  -18.6270 C.2       1 0MC         0.2752
     13 OAF        29.3210   15.3190  -18.7340 O.2       1 0MC        -0.3606
     14 N          29.7800   13.2670  -17.8810 N.am      1 0MC        -0.2403
     15 CBA        29.4110   11.7890  -17.7400 C.3       1 0MC         0.0376
     16 CAT        29.4020   11.3940  -16.2520 C.3       1 0MC        -0.0320
     17 CAR        30.7330   11.8090  -15.5660 C.3       1 0MC        -0.0469
     18 CB         30.9690   13.3270  -15.7400 C.3       1 0MC        -0.0106
     19 CA         30.9930   13.7590  -17.2200 C.3       1 0MC         0.1459
     20 C          32.2510   13.2290  -17.9100 C.2       1 0MC         0.2622
     21 O          33.3590   13.3900  -17.4090 O.2       1 0MC        -0.3676
     22 OBF        32.1020   12.6040  -19.0770 O.3       1 0MC        -0.2586
     23 CBP        33.2870   12.1460  -19.7830 C.3       1 0MC         0.1207
     24 CAZ        33.5020   13.0620  -20.9810 C.3       1 0MC        -0.0041
     25 CAV        34.9240   12.8360  -21.5870 C.3       1 0MC        -0.0222
     26 CBK        36.1080   13.4320  -20.7540 C.ar      1 0MC        -0.0624
     27 CAO        36.3280   14.8170  -20.7830 C.ar      1 0MC        -0.0398
     28 CAM        36.9390   12.6300  -19.9900 C.ar      1 0MC        -0.0801
     29 CAN        37.9940   13.1740  -19.2410 C.ar      1 0MC        -0.0479
     30 CBN        38.2100   14.5640  -19.2820 C.ar      1 0MC         0.1122
     31 OBC        39.2250   15.2090  -18.5920 O.3       1 0MC        -0.3294
     32 CAB        40.2000   14.3580  -17.9450 C.3       1 0MC         0.0554
     33 CBO        37.3740   15.3770  -20.0380 C.ar      1 0MC         0.1132
     34 OBD        37.6550   16.7170  -20.0090 O.3       1 0MC        -0.3266
     35 CAC        36.9080   17.6200  -20.8600 C.3       1 0MC         0.0568
     36 CBM        33.0090   10.6510  -20.0300 C.ar      1 0MC        -0.0186
     37 CAP        33.7240    9.7330  -19.2740 C.ar      1 0MC        -0.0293
     38 CAL        32.0650   10.2190  -20.9830 C.ar      1 0MC        -0.0686
     39 CAJ        31.8710    8.8430  -21.1410 C.ar      1 0MC        -0.0771
     40 CAK        32.5850    7.9230  -20.3680 C.ar      1 0MC        -0.0399
     41 CBL        33.5220    8.3650  -19.4120 C.ar      1 0MC         0.0868
     42 OBE        34.2820    7.5430  -18.5720 O.3       1 0MC        -0.3057
     43 CAW        33.9340    6.1270  -18.4460 C.3       1 0MC         0.1224
     44 CBG        34.4220    5.4240  -19.7240 C.2       1 0MC         0.0653
     45 OAH        35.3470    5.9640  -20.3840 O.co2     1 0MC        -0.5662
     46 OAD        33.8520    4.3570  -20.0500 O.co2     1 0MC        -0.5662
     47 H1         26.1129   17.0308  -22.2388 H         1 0MC         0.0230
     48 H2         25.7656   15.2687  -22.2659 H         1 0MC         0.0230
     49 H3         26.8790   15.9835  -23.4809 H         1 0MC         0.0230
     50 H4         27.3625   15.8558  -20.4572 H         1 0MC         0.0264
     51 H5         28.4758   16.5706  -21.6721 H         1 0MC         0.0264
     52 H6         29.4339   14.5385  -21.2722 H         1 0MC         0.0313
     53 H7         29.0980   14.7861  -23.7019 H         1 0MC         0.0267
     54 H8         27.6149   13.7783  -23.5936 H         1 0MC         0.0267
     55 H9         30.4659   12.9129  -22.8291 H         1 0MC         0.0265
     56 H10        29.5534   12.3926  -24.2863 H         1 0MC         0.0265
     57 H11        29.5458   10.6759  -22.4431 H         1 0MC         0.0264
     58 H12        27.9002   11.2308  -22.9018 H         1 0MC         0.0264
     59 H13        29.5332   12.0278  -20.4384 H         1 0MC         0.0278
     60 H14        27.9867   11.1153  -20.4865 H         1 0MC         0.0278
     61 H15        26.0614   12.3273  -20.7153 H         1 0MC         0.2077
     62 H16        30.1497   11.1753  -18.2763 H         1 0MC         0.0526
     63 H17        28.4124   11.6192  -18.1690 H         1 0MC         0.0526
     64 H18        29.2770   10.3043  -16.1683 H         1 0MC         0.0285
     65 H19        28.5639   11.8989  -15.7493 H         1 0MC         0.0285
     66 H20        31.5664   11.2563  -16.0243 H         1 0MC         0.0268
     67 H21        30.6798   11.5696  -14.4937 H         1 0MC         0.0268
     68 H22        31.9342   13.5881  -15.2814 H         1 0MC         0.0314
     69 H23        30.1609   13.8699  -15.2279 H         1 0MC         0.0314
     70 H24        31.0034   14.8578  -17.2710 H         1 0MC         0.0820
     71 H25        34.1756   12.2294  -19.1400 H         1 0MC         0.0814
     72 H26        33.4071   14.1094  -20.6588 H         1 0MC         0.0336
     73 H27        32.7425   12.8434  -21.7461 H         1 0MC         0.0336
     74 H28        34.9452   13.2968  -22.5856 H         1 0MC         0.0406
     75 H29        35.0856   11.7519  -21.6799 H         1 0MC         0.0406
     76 H30        35.6882   15.4546  -21.3823 H         1 0MC         0.0450
     77 H31        36.7712   11.5593  -19.9700 H         1 0MC         0.0436
     78 H32        38.6315   12.5345  -18.6413 H         1 0MC         0.0493
     79 H33        40.9490   14.9811  -17.4343 H         1 0MC         0.0570
     80 H34        40.6976   13.7310  -18.6995 H         1 0MC         0.0570
     81 H35        39.6947   13.7150  -17.2093 H         1 0MC         0.0570
     82 H36        37.2654   18.6488  -20.7060 H         1 0MC         0.0573
     83 H37        35.8390   17.5616  -20.6076 H         1 0MC         0.0573
     84 H38        37.0523   17.3354  -21.9127 H         1 0MC         0.0573
     85 H39        34.4566   10.0910  -18.5597 H         1 0MC         0.0479
     86 H40        31.5053   10.9328  -21.5766 H         1 0MC         0.0465
     87 H41        31.1567    8.4848  -21.8735 H         1 0MC         0.0572
     88 H42        32.4168    6.8609  -20.5048 H         1 0MC         0.0486
     89 H43        32.8444    6.0140  -18.3462 H         1 0MC         0.0785
     90 H44        34.4298    5.6939  -17.5648 H         1 0MC         0.0785
@<TRIPOS>BOND
     1    1    2 1  
     2    2    3 1  
     3    3    4 1  
     4    3    8 1  
     5    4    5 1  
     6    5    6 1  
     7    6    7 1  
     8    7    8 1  
     9    8    9 1  
    10    8   10 1  
    11   10   11 2  
    12   10   12 1  
    13   12   13 2  
    14   12   14 am 
    15   14   15 1  
    16   14   19 1  
    17   15   16 1  
    18   16   17 1  
    19   17   18 1  
    20   18   19 1  
    21   19   20 1  
    22   20   21 2  
    23   20   22 1  
    24   22   23 1  
    25   23   24 1  
    26   23   36 1  
    27   24   25 1  
    28   25   26 1  
    29   26   27 ar 
    30   26   28 ar 
    31   27   33 ar 
    32   28   29 ar 
    33   29   30 ar 
    34   30   31 1  
    35   30   33 ar 
    36   31   32 1  
    37   33   34 1  
    38   34   35 1  
    39   36   37 ar 
    40   36   38 ar 
    41   37   41 ar 
    42   38   39 ar 
    43   39   40 ar 
    44   40   41 ar 
    45   41   42 1  
    46   42   43 1  
    47   43   44 1  
    48   44   45 ar 
    49   44   46 ar 
    50    1   47 1  
    51    1   48 1  
    52    1   49 1  
    53    2   50 1  
    54    2   51 1  
    55    3   52 1  
    56    4   53 1  
    57    4   54 1  
    58    5   55 1  
    59    5   56 1  
    60    6   57 1  
    61    6   58 1  
    62    7   59 1  
    63    7   60 1  
    64    9   61 1  
    65   15   62 1  
    66   15   63 1  
    67   16   64 1  
    68   16   65 1  
    69   17   66 1  
    70   17   67 1  
    71   18   68 1  
    72   18   69 1  
    73   19   70 1  
    74   23   71 1  
    75   24   72 1  
    76   24   73 1  
    77   25   74 1  
    78   25   75 1  
    79   27   76 1  
    80   28   77 1  
    81   29   78 1  
    82   32   79 1  
    83   32   80 1  
    84   32   81 1  
    85   35   82 1  
    86   35   83 1  
    87   35   84 1  
    88   37   85 1  
    89   38   86 1  
    90   39   87 1  
    91   40   88 1  
    92   43   89 1  
    93   43   90 1  
@<TRIPOS>SUBSTRUCTURE
     1 0MC         1

