### 
### Created by X-TOOL on Mon Sep 10 21:13:08 2018
### 

@<TRIPOS>MOLECULE
4drn_ligand
   90    93     1     0     0
SMALL
GAST_HUCK


@<TRIPOS>ATOM
      1 CAA         5.9180    3.3580   -8.5660 C.3       1 0MC        -0.0651
      2 CAQ         5.3800    1.9420   -8.4980 C.3       1 0MC        -0.0515
      3 CBQ         6.0830    1.0530   -9.4980 C.3       1 0MC        -0.0065
      4 CAX         5.8530    1.6830  -10.8990 C.3       1 0MC        -0.0487
      5 CAS         6.4490    0.7800  -12.0010 C.3       1 0MC        -0.0529
      6 CAU         5.8110   -0.6050  -11.9460 C.3       1 0MC        -0.0515
      7 CBB         6.0220   -1.2270  -10.5690 C.3       1 0MC        -0.0179
      8 CBT         5.4670   -0.3380   -9.4450 C.3       1 0MC         0.1451
      9 OAI         4.0360   -0.2250   -9.5680 O.3       1 0MC        -0.3848
     10 CBJ         5.7960   -1.0600   -8.1270 C.2       1 0MC         0.2652
     11 OAG         4.9270   -1.5760   -7.4130 O.2       1 0MC        -0.2881
     12 CBI         7.2130   -1.1940   -7.6250 C.2       1 0MC         0.2752
     13 OAF         7.6730   -0.2400   -6.9960 O.2       1 0MC        -0.3606
     14 N           7.8930   -2.3270   -7.8090 N.am      1 0MC        -0.2403
     15 CBA         7.3630   -3.4770   -8.5690 C.3       1 0MC         0.0376
     16 CAT         7.5210   -4.7840   -7.7920 C.3       1 0MC        -0.0320
     17 CAR         8.9670   -4.9340   -7.3480 C.3       1 0MC        -0.0469
     18 CB          9.3640   -3.7870   -6.4610 C.3       1 0MC        -0.0106
     19 CA          9.2400   -2.4430   -7.2180 C.3       1 0MC         0.1459
     20 C          10.3430   -2.3530   -8.2480 C.2       1 0MC         0.2622
     21 O          11.4840   -2.6490   -7.9810 O.2       1 0MC        -0.3676
     22 OBF         9.9570   -1.8950   -9.4410 O.3       1 0MC        -0.2586
     23 CBP        10.9870   -1.8150  -10.4700 C.3       1 0MC         0.1207
     24 CAZ        11.1690   -0.3600  -10.8540 C.3       1 0MC        -0.0041
     25 CAV        12.4220   -0.1540  -11.6970 C.3       1 0MC        -0.0222
     26 CBK        13.7150   -0.3270  -10.9020 C.ar      1 0MC        -0.0624
     27 CAO        14.1230    0.6500  -10.0000 C.ar      1 0MC        -0.0398
     28 CAM        14.5590   -1.4280  -11.1040 C.ar      1 0MC        -0.0801
     29 CAN        15.7580   -1.5840  -10.3890 C.ar      1 0MC        -0.0479
     30 CBN        16.1390   -0.5900   -9.4880 C.ar      1 0MC         0.1122
     31 OBC        17.2860   -0.6150   -8.7650 O.3       1 0MC        -0.3294
     32 CAB        18.2760   -1.6540   -9.0200 C.3       1 0MC         0.0554
     33 CBO        15.3220    0.5250   -9.2830 C.ar      1 0MC         0.1132
     34 OBD        15.7840    1.4300   -8.3790 O.3       1 0MC        -0.3266
     35 CAC        15.0400    2.6390   -8.1960 C.3       1 0MC         0.0568
     36 CBM        10.5620   -2.7220  -11.5950 C.ar      1 0MC        -0.0186
     37 CAP         9.4700   -2.4610  -12.3710 C.ar      1 0MC        -0.0293
     38 CAL        11.2840   -3.8880  -11.7660 C.ar      1 0MC        -0.0686
     39 CAJ        10.9970   -4.8130  -12.7370 C.ar      1 0MC        -0.0771
     40 CAK         9.9200   -4.5250  -13.5370 C.ar      1 0MC        -0.0399
     41 CBL         9.1610   -3.3830  -13.3640 C.ar      1 0MC         0.0868
     42 OBE         8.1570   -3.0810  -14.1830 O.3       1 0MC        -0.3057
     43 CAW         7.9210   -3.9680  -15.2570 C.3       1 0MC         0.1224
     44 CBG         8.9430   -4.0250  -16.4020 C.2       1 0MC         0.0653
     45 OAH         8.7710   -4.9890  -17.1860 O.co2     1 0MC        -0.5662
     46 OAD         9.8760   -3.1730  -16.5290 O.co2     1 0MC        -0.5662
     47 H1          5.3927    3.9855   -7.8310 H         1 0MC         0.0230
     48 H2          5.7570    3.7634   -9.5758 H         1 0MC         0.0230
     49 H3          6.9946    3.3525   -8.3405 H         1 0MC         0.0230
     50 H4          4.3029    1.9542   -8.7208 H         1 0MC         0.0264
     51 H5          5.5405    1.5433   -7.4855 H         1 0MC         0.0264
     52 H6          7.1587    0.9957   -9.2755 H         1 0MC         0.0313
     53 H7          6.3387    2.6692  -10.9369 H         1 0MC         0.0267
     54 H8          4.7728    1.7994  -11.0710 H         1 0MC         0.0267
     55 H9          7.5343    0.6869  -11.8477 H         1 0MC         0.0265
     56 H10         6.2551    1.2310  -12.9854 H         1 0MC         0.0265
     57 H11         6.2721   -1.2483  -12.7099 H         1 0MC         0.0264
     58 H12         4.7325   -0.5165  -12.1435 H         1 0MC         0.0264
     59 H13         7.1001   -1.3732  -10.4067 H         1 0MC         0.0278
     60 H14         5.5110   -2.2006  -10.5369 H         1 0MC         0.0278
     61 H15         3.6448   -1.0885   -9.5065 H         1 0MC         0.2077
     62 H16         7.9091   -3.5588   -9.5204 H         1 0MC         0.0526
     63 H17         6.2951   -3.3092   -8.7724 H         1 0MC         0.0526
     64 H18         7.2454   -5.6308   -8.4377 H         1 0MC         0.0285
     65 H19         6.8655   -4.7678   -6.9088 H         1 0MC         0.0285
     66 H20         9.6186   -4.9494   -8.2341 H         1 0MC         0.0268
     67 H21         9.0800   -5.8771   -6.7933 H         1 0MC         0.0268
     68 H22        10.4063   -3.9245   -6.1374 H         1 0MC         0.0314
     69 H23         8.7060   -3.7672   -5.5797 H         1 0MC         0.0314
     70 H24         9.3707   -1.6185   -6.5017 H         1 0MC         0.0820
     71 H25        11.9419   -2.1849  -10.0685 H         1 0MC         0.0814
     72 H26        11.2522    0.2432   -9.9379 H         1 0MC         0.0336
     73 H27        10.2924   -0.0310  -11.4314 H         1 0MC         0.0336
     74 H28        12.4005    0.8641  -12.1129 H         1 0MC         0.0406
     75 H29        12.4156   -0.8858  -12.5182 H         1 0MC         0.0406
     76 H30        13.5020    1.5254   -9.8481 H         1 0MC         0.0450
     77 H31        14.2784   -2.1801  -11.8325 H         1 0MC         0.0436
     78 H32        16.3766   -2.4621  -10.5351 H         1 0MC         0.0493
     79 H33        19.1336   -1.5169   -8.3449 H         1 0MC         0.0570
     80 H34        18.6168   -1.5875  -10.0637 H         1 0MC         0.0570
     81 H35        17.8248   -2.6416   -8.8437 H         1 0MC         0.0570
     82 H36        15.5361    3.2637   -7.4386 H         1 0MC         0.0573
     83 H37        14.0212    2.3954   -7.8602 H         1 0MC         0.0573
     84 H38        14.9910    3.1871   -9.1484 H         1 0MC         0.0573
     85 H39         8.8689   -1.5718  -12.2192 H         1 0MC         0.0479
     86 H40        12.1176   -4.0808  -11.1004 H         1 0MC         0.0465
     87 H41        11.5842   -5.7152  -12.8645 H         1 0MC         0.0572
     88 H42         9.6560   -5.2153  -14.3300 H         1 0MC         0.0486
     89 H43         6.9531   -3.6905  -15.7000 H         1 0MC         0.0785
     90 H44         7.8532   -4.9805  -14.8324 H         1 0MC         0.0785
@<TRIPOS>BOND
     1    1    2 1  
     2    2    3 1  
     3    3    4 1  
     4    3    8 1  
     5    4    5 1  
     6    5    6 1  
     7    6    7 1  
     8    7    8 1  
     9    8    9 1  
    10    8   10 1  
    11   10   11 2  
    12   10   12 1  
    13   12   13 2  
    14   12   14 am 
    15   14   15 1  
    16   14   19 1  
    17   15   16 1  
    18   16   17 1  
    19   17   18 1  
    20   18   19 1  
    21   19   20 1  
    22   20   21 2  
    23   20   22 1  
    24   22   23 1  
    25   23   24 1  
    26   23   36 1  
    27   24   25 1  
    28   25   26 1  
    29   26   27 ar 
    30   26   28 ar 
    31   27   33 ar 
    32   28   29 ar 
    33   29   30 ar 
    34   30   31 1  
    35   30   33 ar 
    36   31   32 1  
    37   33   34 1  
    38   34   35 1  
    39   36   37 ar 
    40   36   38 ar 
    41   37   41 ar 
    42   38   39 ar 
    43   39   40 ar 
    44   40   41 ar 
    45   41   42 1  
    46   42   43 1  
    47   43   44 1  
    48   44   45 ar 
    49   44   46 ar 
    50    1   47 1  
    51    1   48 1  
    52    1   49 1  
    53    2   50 1  
    54    2   51 1  
    55    3   52 1  
    56    4   53 1  
    57    4   54 1  
    58    5   55 1  
    59    5   56 1  
    60    6   57 1  
    61    6   58 1  
    62    7   59 1  
    63    7   60 1  
    64    9   61 1  
    65   15   62 1  
    66   15   63 1  
    67   16   64 1  
    68   16   65 1  
    69   17   66 1  
    70   17   67 1  
    71   18   68 1  
    72   18   69 1  
    73   19   70 1  
    74   23   71 1  
    75   24   72 1  
    76   24   73 1  
    77   25   74 1  
    78   25   75 1  
    79   27   76 1  
    80   28   77 1  
    81   29   78 1  
    82   32   79 1  
    83   32   80 1  
    84   32   81 1  
    85   35   82 1  
    86   35   83 1  
    87   35   84 1  
    88   37   85 1  
    89   38   86 1  
    90   39   87 1  
    91   40   88 1  
    92   43   89 1  
    93   43   90 1  
@<TRIPOS>SUBSTRUCTURE
     1 0MC         1

