### 
### Created by X-TOOL on Mon Sep 10 21:13:08 2018
### 

@<TRIPOS>MOLECULE
4dro_ligand
   84    87     1     0     0
SMALL
GAST_HUCK


@<TRIPOS>ATOM
      1 CAA        26.3140   15.9000  -22.6000 C.3       1 0MD        -0.0651
      2 CAQ        27.3960   15.1500  -21.8090 C.3       1 0MD        -0.0515
      3 CBQ        27.1120   13.6370  -21.8030 C.3       1 0MD        -0.0065
      4 CAX        27.2430   13.0080  -23.2020 C.3       1 0MD        -0.0487
      5 CAS        26.8060   11.5470  -23.1380 C.3       1 0MD        -0.0529
      6 CAU        27.7130   10.7510  -22.1750 C.3       1 0MD        -0.0515
      7 CBB        27.7590   11.3930  -20.7800 C.3       1 0MD        -0.0179
      8 CBT        28.0580   12.9190  -20.8130 C.3       1 0MD         0.1451
      9 OAI        29.4600   13.0420  -21.1970 O.3       1 0MD        -0.3848
     10 CBJ        27.8790   13.5230  -19.3750 C.2       1 0MD         0.2652
     11 OAG        26.8110   13.5340  -18.7790 O.2       1 0MD        -0.2881
     12 CBI        29.0860   14.0900  -18.6340 C.2       1 0MD         0.2752
     13 OAF        29.3010   15.2920  -18.7890 O.2       1 0MD        -0.3606
     14 N          29.8190   13.2880  -17.8540 N.am      1 0MD        -0.2403
     15 CBA        29.4750   11.8370  -17.6730 C.3       1 0MD         0.0376
     16 CAT        29.4830   11.4810  -16.1910 C.3       1 0MD        -0.0320
     17 CAR        30.7930   11.9140  -15.5360 C.3       1 0MD        -0.0469
     18 CB         31.0140   13.4050  -15.6880 C.3       1 0MD        -0.0106
     19 CA         31.0070   13.8190  -17.1570 C.3       1 0MD         0.1459
     20 C          32.2910   13.3600  -17.7990 C.2       1 0MD         0.2622
     21 O          33.3680   13.5940  -17.2980 O.2       1 0MD        -0.3676
     22 OBF        32.1590   12.6910  -18.9450 O.3       1 0MD        -0.2584
     23 CBP        33.3540   12.2380  -19.6040 C.3       1 0MD         0.1231
     24 CAZ        33.6660   13.1700  -20.7760 C.3       1 0MD        -0.0039
     25 CAV        35.0620   12.9040  -21.3490 C.3       1 0MD        -0.0222
     26 CBK        36.1960   13.5400  -20.5460 C.ar      1 0MD        -0.0624
     27 CAO        36.3960   14.9240  -20.5470 C.ar      1 0MD        -0.0398
     28 CAM        37.0330   12.7480  -19.7720 C.ar      1 0MD        -0.0801
     29 CAN        38.0850   13.3090  -19.0310 C.ar      1 0MD        -0.0479
     30 CBN        38.2940   14.6780  -19.0500 C.ar      1 0MD         0.1122
     31 OBC        39.2910   15.3170  -18.3720 O.3       1 0MD        -0.3294
     32 CAB        40.2610   14.4640  -17.7570 C.3       1 0MD         0.0554
     33 CBO        37.4290   15.4940  -19.8080 C.ar      1 0MD         0.1132
     34 OBD        37.7170   16.8300  -19.7650 O.3       1 0MD        -0.3266
     35 CAC        36.9920   17.6960  -20.6870 C.3       1 0MD         0.0568
     36 CBM        33.0640   10.7900  -19.9910 C.ar      1 0MD        -0.0097
     37 CAP        31.9550   10.4950  -20.7810 C.ar      1 0MD        -0.0575
     38 CAL        33.8890    9.7630  -19.5520 C.ar      1 0MD        -0.0575
     39 CAJ        33.5860    8.4660  -19.9190 C.ar      1 0MD        -0.0685
     40 CAK        32.4980    8.1640  -20.7080 C.ar      1 0MD        -0.0687
     41 CBL        31.6720    9.1860  -21.1480 C.ar      1 0MD        -0.0685
     42 H          26.3011   15.5384  -23.6282 H         1 0MD         0.0230
     43 H          25.3418   15.7244  -22.1396 H         1 0MD         0.0230
     44 H          26.5339   16.9675  -22.5916 H         1 0MD         0.0230
     45 H          27.3977   15.5131  -20.7813 H         1 0MD         0.0264
     46 H          28.3633   15.3259  -22.2796 H         1 0MD         0.0264
     47 H          26.0779   13.5081  -21.4835 H         1 0MD         0.0313
     48 H          28.2798   13.0656  -23.5335 H         1 0MD         0.0267
     49 H          26.6111   13.5484  -23.9068 H         1 0MD         0.0267
     50 H          26.8805   11.1118  -24.1346 H         1 0MD         0.0265
     51 H          25.7790   11.5008  -22.7756 H         1 0MD         0.0265
     52 H          28.7237   10.7415  -22.5830 H         1 0MD         0.0264
     53 H          27.3100    9.7430  -22.0768 H         1 0MD         0.0264
     54 H          28.5632   10.9122  -20.2230 H         1 0MD         0.0278
     55 H          26.7779   11.2598  -20.3241 H         1 0MD         0.0278
     56 H          29.5904   12.6426  -22.0602 H         1 0MD         0.2077
     57 H          30.2127   11.2258  -18.1929 H         1 0MD         0.0526
     58 H          28.4820   11.6500  -18.0816 H         1 0MD         0.0526
     59 H          29.3792   10.4008  -16.0885 H         1 0MD         0.0285
     60 H          28.6576   11.9976  -15.7011 H         1 0MD         0.0285
     61 H          31.6154   11.3888  -16.0217 H         1 0MD         0.0268
     62 H          30.7465   11.6754  -14.4734 H         1 0MD         0.0268
     63 H          31.9844   13.6575  -15.2607 H         1 0MD         0.0314
     64 H          30.2076   13.9296  -15.1756 H         1 0MD         0.0314
     65 H          30.9469   14.9048  -17.2317 H         1 0MD         0.0820
     66 H          34.2521   12.2645  -18.9869 H         1 0MD         0.0816
     67 H          33.6301   14.1989  -20.4179 H         1 0MD         0.0336
     68 H          32.9312   12.9945  -21.5617 H         1 0MD         0.0336
     69 H          35.0896   13.3397  -22.3478 H         1 0MD         0.0406
     70 H          35.2186   11.8255  -21.3306 H         1 0MD         0.0406
     71 H          35.7358   15.5636  -21.1328 H         1 0MD         0.0450
     72 H          36.8704   11.6707  -19.7390 H         1 0MD         0.0436
     73 H          38.7380   12.6666  -18.4401 H         1 0MD         0.0493
     74 H          39.7658   13.8132  -17.0364 H         1 0MD         0.0570
     75 H          40.7470   13.8581  -18.5217 H         1 0MD         0.0570
     76 H          41.0066   15.0731  -17.2460 H         1 0MD         0.0570
     77 H          37.1962   17.3855  -21.7117 H         1 0MD         0.0573
     78 H          35.9227   17.6207  -20.4894 H         1 0MD         0.0573
     79 H          37.3170   18.7269  -20.5468 H         1 0MD         0.0573
     80 H          31.3018   11.3012  -21.1149 H         1 0MD         0.0558
     81 H          34.7585    9.9759  -18.9301 H         1 0MD         0.0558
     82 H          34.2282    7.6560  -19.5733 H         1 0MD         0.0599
     83 H          32.2887    7.1304  -20.9838 H         1 0MD         0.0559
     84 H          30.8089    8.9646  -21.7758 H         1 0MD         0.0599
@<TRIPOS>BOND
     1    1    2 1  
     2    2    3 1  
     3    3    4 1  
     4    3    8 1  
     5    4    5 1  
     6    5    6 1  
     7    6    7 1  
     8    7    8 1  
     9    8    9 1  
    10    8   10 1  
    11   10   11 2  
    12   10   12 1  
    13   12   13 2  
    14   12   14 am 
    15   14   15 1  
    16   14   19 1  
    17   15   16 1  
    18   16   17 1  
    19   17   18 1  
    20   18   19 1  
    21   19   20 1  
    22   20   21 2  
    23   20   22 1  
    24   22   23 1  
    25   23   24 1  
    26   23   36 1  
    27   24   25 1  
    28   25   26 1  
    29   26   27 ar 
    30   26   28 ar 
    31   27   33 ar 
    32   28   29 ar 
    33   29   30 ar 
    34   30   31 1  
    35   30   33 ar 
    36   31   32 1  
    37   33   34 1  
    38   34   35 1  
    39   36   37 ar 
    40   36   38 ar 
    41   37   41 ar 
    42   38   39 ar 
    43   39   40 ar 
    44   40   41 ar 
    45    1   42 1  
    46    1   43 1  
    47    1   44 1  
    48    2   45 1  
    49    2   46 1  
    50    3   47 1  
    51    4   48 1  
    52    4   49 1  
    53    5   50 1  
    54    5   51 1  
    55    6   52 1  
    56    6   53 1  
    57    7   54 1  
    58    7   55 1  
    59    9   56 1  
    60   15   57 1  
    61   15   58 1  
    62   16   59 1  
    63   16   60 1  
    64   17   61 1  
    65   17   62 1  
    66   18   63 1  
    67   18   64 1  
    68   19   65 1  
    69   23   66 1  
    70   24   67 1  
    71   24   68 1  
    72   25   69 1  
    73   25   70 1  
    74   27   71 1  
    75   28   72 1  
    76   29   73 1  
    77   32   74 1  
    78   32   75 1  
    79   32   76 1  
    80   35   77 1  
    81   35   78 1  
    82   35   79 1  
    83   37   80 1  
    84   38   81 1  
    85   39   82 1  
    86   40   83 1  
    87   41   84 1  
@<TRIPOS>SUBSTRUCTURE
     1 0MD         1

