### 
### Created by X-TOOL on Mon Sep 10 21:13:11 2018
### 

@<TRIPOS>MOLECULE
4drp_ligand
   90    93     1     0     0
SMALL
GAST_HUCK


@<TRIPOS>ATOM
      1 CAA         6.3080    4.3020   15.4620 C.3       1 0MD        -0.0651
      2 CAQ         5.3530    4.1490   14.2620 C.3       1 0MD        -0.0515
      3 CBQ         5.9440    3.2750   13.1380 C.3       1 0MD        -0.0065
      4 CAX         6.1540    1.8100   13.6210 C.3       1 0MD        -0.0487
      5 CAS         6.6890    0.9120   12.4910 C.3       1 0MD        -0.0529
      6 CAU         5.7800    0.9530   11.2550 C.3       1 0MD        -0.0515
      7 CBB         5.5870    2.3990   10.7570 C.3       1 0MD        -0.0179
      8 CBT         5.0600    3.3290   11.8740 C.3       1 0MD         0.1451
      9 OAI         3.7330    2.8820   12.1960 O.3       1 0MD        -0.3848
     10 CBJ         5.0320    4.8060   11.3710 C.2       1 0MD         0.2652
     11 OAG         6.0720    5.4170   11.1010 O.2       1 0MD        -0.2881
     12 CBI         3.6820    5.5450   11.3210 C.2       1 0MD         0.2752
     13 OAF         3.3220    6.1830   12.3170 O.2       1 0MD        -0.3606
     14 N           2.9060    5.4950   10.2220 N.am      1 0MD        -0.2403
     15 CBA         3.3910    4.7100    9.0390 C.3       1 0MD         0.0376
     16 CAT         3.2580    5.5740    7.7900 C.3       1 0MD        -0.0320
     17 CAR         1.8190    6.1090    7.6720 C.3       1 0MD        -0.0469
     18 CB          1.4280    6.9690    8.8860 C.3       1 0MD        -0.0106
     19 CA          1.5690    6.1600   10.1880 C.3       1 0MD         0.1459
     20 C           0.4370    5.1090   10.2630 C.2       1 0MD         0.2622
     21 O          -0.7510    5.4370   10.1040 O.2       1 0MD        -0.3676
     22 OBF         0.7870    3.8100   10.5320 O.3       1 0MD        -0.2586
     23 CBP        -0.2630    2.7900   10.5760 C.3       1 0MD         0.1207
     24 CAZ        -0.4830    2.5070   12.0410 C.3       1 0MD        -0.0041
     25 CAV        -1.7880    1.7490   12.2510 C.3       1 0MD        -0.0222
     26 CBK        -3.0640    2.6270   12.2000 C.ar      1 0MD        -0.0624
     27 CAO        -3.3830    3.5220   13.2340 C.ar      1 0MD        -0.0398
     28 CAM        -3.9250    2.4910   11.1140 C.ar      1 0MD        -0.0801
     29 CAN        -5.1070    3.2530   11.0490 C.ar      1 0MD        -0.0479
     30 CBN        -5.4050    4.1600   12.0930 C.ar      1 0MD         0.1122
     31 OBC        -6.5350    4.9260   12.0650 O.3       1 0MD        -0.3294
     32 CAB        -7.6430    4.4320   11.2500 C.3       1 0MD         0.0554
     33 CBO        -4.5460    4.3050   13.1950 C.ar      1 0MD         0.1132
     34 OBD        -4.9100    5.2160   14.1820 O.3       1 0MD        -0.3266
     35 CAC        -4.1870    5.2120   15.4400 C.3       1 0MD         0.0568
     36 CBM         0.2790    1.5810    9.7950 C.ar      1 0MD        -0.0186
     37 CAP         1.4600    0.9720   10.2170 C.ar      1 0MD        -0.0293
     38 CAL        -0.4060    1.0900    8.6810 C.ar      1 0MD        -0.0686
     39 CAJ         0.1190    0.0050    7.9790 C.ar      1 0MD        -0.0771
     40 CAK         1.3080   -0.5920    8.4000 C.ar      1 0MD        -0.0399
     41 CBL         1.9840   -0.1160    9.5260 C.ar      1 0MD         0.0868
     42 OBE         3.1440   -0.6580   10.0010 O.3       1 0MD        -0.3057
     43 CAW         3.6990   -1.7450    9.2130 C.3       1 0MD         0.1224
     44 CBG         3.0620   -3.1170    9.4090 C.2       1 0MD         0.0653
     45 OAH         3.4590   -4.0270    8.6540 O.co2     1 0MD        -0.5662
     46 OAD         2.1650   -3.2610   10.2780 O.co2     1 0MD        -0.5662
     47 H1          5.8349    4.9328   16.2290 H         1 0MD         0.0230
     48 H2          7.2447    4.7719   15.1276 H         1 0MD         0.0230
     49 H3          6.5260    3.3107   15.8859 H         1 0MD         0.0230
     50 H4          5.1374    5.1477   13.8544 H         1 0MD         0.0264
     51 H5          4.4186    3.6865   14.6127 H         1 0MD         0.0264
     52 H6          6.9300    3.6858   12.8754 H         1 0MD         0.0313
     53 H7          5.1917    1.4081   13.9710 H         1 0MD         0.0267
     54 H8          6.8760    1.8077   14.4509 H         1 0MD         0.0267
     55 H9          6.7475   -0.1239   12.8563 H         1 0MD         0.0265
     56 H10         7.6937    1.2577   12.2062 H         1 0MD         0.0265
     57 H11         4.7992    0.5288   11.5159 H         1 0MD         0.0264
     58 H12         6.2367    0.3546   10.4529 H         1 0MD         0.0264
     59 H13         4.8650    2.3958    9.9271 H         1 0MD         0.0278
     60 H14         6.5537    2.7842   10.4005 H         1 0MD         0.0278
     61 H15         3.3728    3.4313   12.8823 H         1 0MD         0.2077
     62 H16         2.7844    3.7995    8.9253 H         1 0MD         0.0526
     63 H17         4.4451    4.4323    9.1862 H         1 0MD         0.0526
     64 H18         3.4963    4.9701    6.9020 H         1 0MD         0.0285
     65 H19         3.9573    6.4205    7.8562 H         1 0MD         0.0285
     66 H20         1.1269    5.2569    7.6016 H         1 0MD         0.0268
     67 H21         1.7403    6.7215    6.7617 H         1 0MD         0.0268
     68 H22         0.3841    7.2978    8.7755 H         1 0MD         0.0314
     69 H23         2.0865    7.8488    8.9335 H         1 0MD         0.0314
     70 H24         1.4851    6.8401   11.0485 H         1 0MD         0.0820
     71 H25        -1.1954    3.1478   10.1150 H         1 0MD         0.0814
     72 H26        -0.5255    3.4589   12.5906 H         1 0MD         0.0336
     73 H27         0.3523    1.9008   12.4215 H         1 0MD         0.0336
     74 H28        -1.7465    1.2624   13.2366 H         1 0MD         0.0406
     75 H29        -1.8686    0.9821   11.4665 H         1 0MD         0.0406
     76 H30        -2.7144    3.6098   14.0827 H         1 0MD         0.0450
     77 H31        -3.6846    1.7968   10.3169 H         1 0MD         0.0436
     78 H32        -5.7819    3.1458   10.2075 H         1 0MD         0.0493
     79 H33        -8.4863    5.1355   11.3125 H         1 0MD         0.0570
     80 H34        -7.9598    3.4461   11.6208 H         1 0MD         0.0570
     81 H35        -7.3169    4.3427   10.2033 H         1 0MD         0.0570
     82 H36        -4.5990    5.9878   16.1021 H         1 0MD         0.0573
     83 H37        -3.1229    5.4177   15.2520 H         1 0MD         0.0573
     84 H38        -4.2911    4.2276   15.9196 H         1 0MD         0.0573
     85 H39         1.9753    1.3501   11.0925 H         1 0MD         0.0479
     86 H40        -1.3365    1.5477    8.3652 H         1 0MD         0.0465
     87 H41        -0.3975   -0.3751    7.1050 H         1 0MD         0.0572
     88 H42         1.7110   -1.4333    7.8479 H         1 0MD         0.0486
     89 H43         4.7658   -1.8318    9.4666 H         1 0MD         0.0785
     90 H44         3.5951   -1.4761    8.1514 H         1 0MD         0.0785
@<TRIPOS>BOND
     1    1    2 1  
     2    2    3 1  
     3    3    4 1  
     4    3    8 1  
     5    4    5 1  
     6    5    6 1  
     7    6    7 1  
     8    7    8 1  
     9    8    9 1  
    10    8   10 1  
    11   10   11 2  
    12   10   12 1  
    13   12   13 2  
    14   12   14 am 
    15   14   15 1  
    16   14   19 1  
    17   15   16 1  
    18   16   17 1  
    19   17   18 1  
    20   18   19 1  
    21   19   20 1  
    22   20   21 2  
    23   20   22 1  
    24   22   23 1  
    25   23   24 1  
    26   23   36 1  
    27   24   25 1  
    28   25   26 1  
    29   26   27 ar 
    30   26   28 ar 
    31   27   33 ar 
    32   28   29 ar 
    33   29   30 ar 
    34   30   31 1  
    35   30   33 ar 
    36   31   32 1  
    37   33   34 1  
    38   34   35 1  
    39   36   37 ar 
    40   36   38 ar 
    41   37   41 ar 
    42   38   39 ar 
    43   39   40 ar 
    44   40   41 ar 
    45   41   42 1  
    46   42   43 1  
    47   43   44 1  
    48   44   45 ar 
    49   44   46 ar 
    50    1   47 1  
    51    1   48 1  
    52    1   49 1  
    53    2   50 1  
    54    2   51 1  
    55    3   52 1  
    56    4   53 1  
    57    4   54 1  
    58    5   55 1  
    59    5   56 1  
    60    6   57 1  
    61    6   58 1  
    62    7   59 1  
    63    7   60 1  
    64    9   61 1  
    65   15   62 1  
    66   15   63 1  
    67   16   64 1  
    68   16   65 1  
    69   17   66 1  
    70   17   67 1  
    71   18   68 1  
    72   18   69 1  
    73   19   70 1  
    74   23   71 1  
    75   24   72 1  
    76   24   73 1  
    77   25   74 1  
    78   25   75 1  
    79   27   76 1  
    80   28   77 1  
    81   29   78 1  
    82   32   79 1  
    83   32   80 1  
    84   32   81 1  
    85   35   82 1  
    86   35   83 1  
    87   35   84 1  
    88   37   85 1  
    89   38   86 1  
    90   39   87 1  
    91   40   88 1  
    92   43   89 1  
    93   43   90 1  
@<TRIPOS>SUBSTRUCTURE
     1 0MD         1

