### 
### Created by X-TOOL on Mon Sep 10 21:13:09 2018
### 

@<TRIPOS>MOLECULE
4dru_ligand
   80    85     1     0     0
SMALL
GAST_HUCK


@<TRIPOS>ATOM
      1 O36        75.7040  -13.1060  -33.2770 O.2       1 0LN        -0.3845
      2 C34        76.7090  -13.6060  -32.8130 C.2       1 0LN         0.2097
      3 N35        77.6450  -14.1250  -33.7190 N.am      1 0LN        -0.2756
      4 C38        77.3150  -14.0600  -35.1670 C.3       1 0LN         0.0218
      5 C37        78.9330  -14.7780  -33.3580 C.3       1 0LN         0.0328
      6 C39        80.0160  -15.0020  -34.4400 C.3       1 0LN        -0.0312
      7 C40        79.8710  -16.3910  -35.0930 C.3       1 0LN        -0.0340
      8 C41        81.0820  -17.3130  -34.8420 C.3       1 0LN         0.0310
      9 N31        80.6580  -18.7450  -34.8510 N.am      1 0LN        -0.2212
     10 C42        81.3640  -19.5690  -35.8630 C.3       1 0LN         0.0198
     11 S30        80.7850  -19.4550  -33.3560 S.o2      1 0LN         0.1406
     12 O32        79.7200  -20.4090  -33.1900 O.2       1 0LN        -0.1305
     13 O33        82.0540  -20.1160  -33.2170 O.2       1 0LN        -0.1305
     14 N29        80.5960  -18.3200  -32.2050 N.am      1 0LN        -0.1420
     15 C27        81.6270  -17.7600  -31.4830 C.2       1 0LN         0.2177
     16 O28        82.7840  -18.0480  -31.6740 O.2       1 0LN        -0.3870
     17 C1         81.2610  -16.7070  -30.5490 C.ar      1 0LN         0.0356
     18 C19        76.8290  -13.5680  -31.3290 C.2       1 0LN         0.0602
     19 C20        77.1860  -14.8220  -30.5130 C.3       1 0LN         0.0914
     20 N9         78.3900  -14.5830  -29.7250 N.pl3     1 0LN        -0.2538
     21 C5         79.5740  -15.1870  -29.8240 C.ar      1 0LN         0.0709
     22 C6         79.9640  -16.2170  -30.6450 C.ar      1 0LN        -0.0237
     23 C18        76.6490  -12.3220  -30.8100 C.2       1 0LN        -0.0441
     24 C17        76.5800  -12.0780  -29.3600 C.ar      1 0LN        -0.0308
     25 C24        75.5480  -11.2460  -28.9520 C.ar      1 0LN        -0.0301
     26 C23        75.2900  -11.0380  -27.6040 C.ar      1 0LN         0.0887
     27 O25        74.2880  -10.1920  -27.2110 O.3       1 0LN        -0.3221
     28 C26        73.0470  -10.7040  -26.7200 C.3       1 0LN         0.0593
     29 C22        76.0570  -11.6890  -26.6510 C.ar      1 0LN        -0.0345
     30 C21        77.0680  -12.5440  -27.0550 C.ar      1 0LN        -0.0629
     31 C16        77.3440  -12.7540  -28.4040 C.ar      1 0LN        -0.0056
     32 C8         78.4620  -13.6560  -28.7760 C.2       1 0LN         0.0641
     33 C7         79.7620  -13.6610  -28.2550 C.2       1 0LN        -0.0281
     34 C4         80.4460  -14.6430  -28.9320 C.ar      1 0LN        -0.0131
     35 C3         81.7530  -15.1010  -28.8270 C.ar      1 0LN        -0.0695
     36 C2         82.1670  -16.1400  -29.6530 C.ar      1 0LN        -0.0605
     37 C10        80.3400  -12.7490  -27.1740 C.3       1 0LN        -0.0203
     38 C15        81.0140  -13.4900  -26.0090 C.3       1 0LN        -0.0447
     39 C14        81.5200  -12.4360  -25.0060 C.3       1 0LN        -0.0515
     40 C13        82.5460  -11.5200  -25.6900 C.3       1 0LN        -0.0528
     41 C12        81.8600  -10.7740  -26.8440 C.3       1 0LN        -0.0515
     42 C11        81.3410  -11.7980  -27.8570 C.3       1 0LN        -0.0447
     43 H          78.0898  -13.4995  -35.6901 H         1 0LN         0.0485
     44 H          77.2600  -15.0707  -35.5715 H         1 0LN         0.0485
     45 H          76.3541  -13.5623  -35.2974 H         1 0LN         0.0485
     46 H          78.6506  -15.7825  -33.0428 H         1 0LN         0.0521
     47 H          79.3956  -14.0939  -32.6466 H         1 0LN         0.0521
     48 H          80.9971  -14.9391  -33.9692 H         1 0LN         0.0285
     49 H          79.9004  -14.2406  -35.2114 H         1 0LN         0.0285
     50 H          79.7883  -16.2418  -36.1696 H         1 0LN         0.0281
     51 H          78.9955  -16.8708  -34.6555 H         1 0LN         0.0281
     52 H          81.5121  -17.0766  -33.8687 H         1 0LN         0.0478
     53 H          81.8171  -17.1558  -35.6313 H         1 0LN         0.0478
     54 H          82.4165  -19.6520  -35.5920 H         1 0LN         0.0442
     55 H          80.9168  -20.5624  -35.8969 H         1 0LN         0.0442
     56 H          81.2755  -19.0957  -36.8409 H         1 0LN         0.0442
     57 H          79.6482  -18.0011  -32.0042 H         1 0LN         0.2149
     58 H          77.3647  -15.6531  -31.1952 H         1 0LN         0.0775
     59 H          76.3606  -15.0581  -29.8414 H         1 0LN         0.0775
     60 H          79.2646  -16.6449  -31.3632 H         1 0LN         0.0595
     61 H          76.5527  -11.4767  -31.4914 H         1 0LN         0.0560
     62 H          74.9310  -10.7485  -29.7003 H         1 0LN         0.0521
     63 H          72.5776  -11.3159  -27.4903 H         1 0LN         0.0578
     64 H          73.2312  -11.3114  -25.8338 H         1 0LN         0.0578
     65 H          72.3892   -9.8738  -26.4628 H         1 0LN         0.0578
     66 H          75.8655  -11.5289  -25.5900 H         1 0LN         0.0539
     67 H          77.6603  -13.0636  -26.3018 H         1 0LN         0.0578
     68 H          82.4417  -14.6540  -28.1101 H         1 0LN         0.0548
     69 H          83.1915  -16.5085  -29.6007 H         1 0LN         0.0551
     70 H          79.5109  -12.2099  -26.7156 H         1 0LN         0.0403
     71 H          81.8456  -14.0919  -26.3754 H         1 0LN         0.0284
     72 H          80.3025  -14.1596  -25.5258 H         1 0LN         0.0284
     73 H          81.9912  -12.9384  -24.1612 H         1 0LN         0.0267
     74 H          80.6788  -11.8378  -24.6557 H         1 0LN         0.0267
     75 H          83.3710  -12.1176  -26.0778 H         1 0LN         0.0265
     76 H          82.9359  -10.8019  -24.9686 H         1 0LN         0.0265
     77 H          82.5735  -10.1065  -27.3272 H         1 0LN         0.0267
     78 H          81.0291  -10.1830  -26.4586 H         1 0LN         0.0267
     79 H          80.8416  -11.2756  -28.6730 H         1 0LN         0.0284
     80 H          82.1792  -12.3765  -28.2455 H         1 0LN         0.0284
@<TRIPOS>BOND
     1    1    2 2  
     2    2    3 am 
     3    2   18 1  
     4    3    4 1  
     5    3    5 1  
     6    5    6 1  
     7    6    7 1  
     8    7    8 1  
     9    8    9 1  
    10    9   10 1  
    11    9   11 am 
    12   11   12 2  
    13   11   13 2  
    14   11   14 am 
    15   14   15 am 
    16   15   16 2  
    17   15   17 1  
    18   17   22 ar 
    19   17   36 ar 
    20   18   19 1  
    21   18   23 2  
    22   19   20 1  
    23   20   21 1  
    24   20   32 1  
    25   21   22 ar 
    26   21   34 ar 
    27   23   24 1  
    28   24   25 ar 
    29   24   31 ar 
    30   25   26 ar 
    31   26   27 1  
    32   26   29 ar 
    33   27   28 1  
    34   29   30 ar 
    35   30   31 ar 
    36   31   32 1  
    37   32   33 2  
    38   33   34 1  
    39   33   37 1  
    40   34   35 ar 
    41   35   36 ar 
    42   37   38 1  
    43   37   42 1  
    44   38   39 1  
    45   39   40 1  
    46   40   41 1  
    47   41   42 1  
    48    4   43 1  
    49    4   44 1  
    50    4   45 1  
    51    5   46 1  
    52    5   47 1  
    53    6   48 1  
    54    6   49 1  
    55    7   50 1  
    56    7   51 1  
    57    8   52 1  
    58    8   53 1  
    59   10   54 1  
    60   10   55 1  
    61   10   56 1  
    62   14   57 1  
    63   19   58 1  
    64   19   59 1  
    65   22   60 1  
    66   23   61 1  
    67   25   62 1  
    68   28   63 1  
    69   28   64 1  
    70   28   65 1  
    71   29   66 1  
    72   30   67 1  
    73   35   68 1  
    74   36   69 1  
    75   37   70 1  
    76   38   71 1  
    77   38   72 1  
    78   39   73 1  
    79   39   74 1  
    80   40   75 1  
    81   40   76 1  
    82   41   77 1  
    83   41   78 1  
    84   42   79 1  
    85   42   80 1  
@<TRIPOS>SUBSTRUCTURE
     1 0LN         1

