### 
### Created by X-TOOL on Mon Sep 10 21:13:08 2018
### 

@<TRIPOS>MOLECULE
4dst_ligand
   28    29     1     0     0
SMALL
GAST_HUCK


@<TRIPOS>ATOM
      1 C1         24.2620   14.2370   15.3680 C.3       1 9LI        -0.0122
      2 CL1        26.6120   12.6620   10.1390 Cl        1 9LI        -0.0814
      3 C2         24.3200   14.3760   13.8710 C.2       1 9LI         0.0355
      4 CL2        23.1610   16.2420    8.0770 Cl        1 9LI        -0.0829
      5 C3         25.1460   13.7020   13.0460 C.2       1 9LI        -0.0430
      6 C4         24.8570   14.1540   11.6710 C.ar      1 9LI        -0.0180
      7 C5         23.8280   15.1150   11.8120 C.ar      1 9LI         0.0568
      8 N6         23.5300   15.2240   13.1510 N.pl3     1 9LI        -0.2816
      9 C8         23.3190   15.7460   10.6890 C.ar      1 9LI        -0.0342
     10 C9         23.8190   15.4300    9.4500 C.ar      1 9LI         0.0220
     11 C10        24.8250   14.4890    9.2870 C.ar      1 9LI        -0.0554
     12 C11        25.3550   13.8450   10.3870 C.ar      1 9LI         0.0225
     13 C14        26.1720   12.6870   13.4790 C.3       1 9LI        -0.0017
     14 C15        27.4340   13.3990   13.9800 C.3       1 9LI        -0.0332
     15 N16        28.4340   12.4020   14.3870 N.4       1 9LI         0.2192
     16 H1         23.4923   14.9126   15.7694 H         1 9LI         0.0409
     17 H2         25.2399   14.4982   15.7987 H         1 9LI         0.0409
     18 H3         24.0113   13.1986   15.6304 H         1 9LI         0.0409
     19 H4         22.8174   15.8517   13.5499 H         1 9LI         0.2217
     20 H5         22.5313   16.4842   10.7877 H         1 9LI         0.0539
     21 H6         25.1955   14.2590    8.2946 H         1 9LI         0.0512
     22 H7         26.4312   12.0438   12.6251 H         1 9LI         0.0373
     23 H8         25.7555   12.0706   14.2893 H         1 9LI         0.0373
     24 H9         27.1786   14.0339   14.8412 H         1 9LI         0.0825
     25 H10        27.8466   14.0232   13.1737 H         1 9LI         0.0825
     26 H11        29.2627   12.8722   14.7160 H         1 9LI         0.1995
     27 H12        28.6687   11.8201   13.5981 H         1 9LI         0.1995
     28 H13        28.0566   11.8299   15.1261 H         1 9LI         0.1995
@<TRIPOS>BOND
     1    3    1 1  
     2   12    2 1  
     3    3    5 2  
     4    8    3 1  
     5   10    4 1  
     6    6    5 1  
     7    5   13 1  
     8    7    6 ar 
     9    6   12 ar 
    10    7    8 1  
    11    9    7 ar 
    12    9   10 ar 
    13   10   11 ar 
    14   11   12 ar 
    15   13   14 1  
    16   14   15 1  
    17    1   16 1  
    18    1   17 1  
    19    1   18 1  
    20    8   19 1  
    21    9   20 1  
    22   11   21 1  
    23   13   22 1  
    24   13   23 1  
    25   14   24 1  
    26   14   25 1  
    27   15   26 1  
    28   15   27 1  
    29   15   28 1  
@<TRIPOS>SUBSTRUCTURE
     1 9LI         1

