### 
### Created by X-TOOL on Mon Sep 10 21:13:08 2018
### 

@<TRIPOS>MOLECULE
4dsu_ligand
   15    16     1     0     0
SMALL
GAST_HUCK


@<TRIPOS>ATOM
      1 N1         25.3580   12.5330   11.4010 N.2       1 BZI        -0.3062
      2 C2         25.1260   12.5100   12.6810 C.2       1 BZI         0.1034
      3 N3         23.9620   13.1600   12.9550 N.pl3     1 BZI        -0.2506
      4 C3A        23.4470   13.6130   11.7500 C.ar      1 BZI         0.0833
      5 C4         22.3120   14.3250   11.3890 C.ar      1 BZI        -0.0392
      6 C5         22.0870   14.6230   10.0610 C.ar      1 BZI        -0.0742
      7 C6         22.9860   14.2130    9.0860 C.ar      1 BZI        -0.0759
      8 C7         24.1130   13.5130    9.4220 C.ar      1 BZI        -0.0611
      9 C7A        24.3580   13.2000   10.7620 C.ar      1 BZI         0.0334
     10 H1         25.7686   12.0398   13.4239 H         1 BZI         0.1352
     11 H2         23.5412   13.2912   13.8859 H         1 BZI         0.2342
     12 H3         21.6059   14.6454   12.1465 H         1 BZI         0.0550
     13 H4         21.2022   15.1811    9.7769 H         1 BZI         0.0545
     14 H5         22.7931   14.4501    8.0460 H         1 BZI         0.0524
     15 H6         24.8116   13.2031    8.6533 H         1 BZI         0.0556
@<TRIPOS>BOND
     1    1    2 2  
     2    1    9 1  
     3    2    3 1  
     4    3    4 1  
     5    4    5 ar 
     6    4    9 ar 
     7    5    6 ar 
     8    6    7 ar 
     9    7    8 ar 
    10    8    9 ar 
    11    2   10 1  
    12    3   11 1  
    13    5   12 1  
    14    6   13 1  
    15    7   14 1  
    16    8   15 1  
@<TRIPOS>SUBSTRUCTURE
     1 BZI         1

