### 
### Created by X-TOOL on Mon Sep 10 21:13:09 2018
### 

@<TRIPOS>MOLECULE
4dt2_ligand
   27    28     1     0     0
SMALL
GAST_HUCK


@<TRIPOS>ATOM
      1 CAH       -69.5250   33.1940  -43.7540 C.3       1 0LV         0.0099
      2 CAM       -70.4460   34.2930  -44.1210 C.3       1 0LV         0.0907
      3 CAA       -71.2910   33.9520  -45.3250 C.3       1 0LV        -0.0306
      4 CAB       -69.6110   35.5670  -44.3900 C.3       1 0LV        -0.0306
      5 OAI       -71.2780   34.4920  -42.9920 O.3       1 0LV        -0.3181
      6 CAL       -70.8050   33.6530  -41.9410 C.ar      1 0LV         0.0971
      7 CAK       -69.7760   32.8770  -42.3660 C.ar      1 0LV        -0.0170
      8 CAF       -69.1560   31.9480  -41.4450 C.ar      1 0LV        -0.0755
      9 CAD       -69.5840   31.8230  -40.1290 C.ar      1 0LV        -0.0861
     10 CAE       -70.6360   32.6230  -39.7080 C.ar      1 0LV        -0.0734
     11 CAJ       -71.2370   33.5410  -40.6140 C.ar      1 0LV         0.0051
     12 CAG       -72.3650   34.4160  -40.2380 C.3       1 0LV         0.0747
     13 OAC       -73.5060   34.2500  -40.9660 O.3       1 0LV        -0.3846
     14 H         -68.4877   33.4958  -43.8989 H         1 0LV         0.0432
     15 H         -69.6948   32.3218  -44.3853 H         1 0LV         0.0432
     16 H         -71.8537   33.0400  -45.1258 H         1 0LV         0.0262
     17 H         -71.9823   34.7705  -45.5257 H         1 0LV         0.0262
     18 H         -70.6448   33.8003  -46.1896 H         1 0LV         0.0262
     19 H         -70.2809   36.4057  -44.5794 H         1 0LV         0.0262
     20 H         -68.9917   35.7844  -43.5198 H         1 0LV         0.0262
     21 H         -68.9741   35.4055  -45.2597 H         1 0LV         0.0262
     22 H         -68.3296   31.3287  -41.7939 H         1 0LV         0.0471
     23 H         -69.1075   31.1177  -39.4481 H         1 0LV         0.0489
     24 H         -71.0020   32.5485  -38.6840 H         1 0LV         0.0472
     25 H         -72.0337   35.4401  -40.4101 H         1 0LV         0.0696
     26 H         -72.6171   34.1707  -39.2063 H         1 0LV         0.0696
     27 H         -74.1775   34.8587  -40.6496 H         1 0LV         0.2122
@<TRIPOS>BOND
     1    1    2 1  
     2    1    7 1  
     3    2    3 1  
     4    2    4 1  
     5    2    5 1  
     6    5    6 1  
     7    6    7 ar 
     8    6   11 ar 
     9    7    8 ar 
    10    8    9 ar 
    11    9   10 ar 
    12   10   11 ar 
    13   11   12 1  
    14   12   13 1  
    15    1   14 1  
    16    1   15 1  
    17    3   16 1  
    18    3   17 1  
    19    3   18 1  
    20    4   19 1  
    21    4   20 1  
    22    4   21 1  
    23    8   22 1  
    24    9   23 1  
    25   10   24 1  
    26   12   25 1  
    27   12   26 1  
    28   13   27 1  
@<TRIPOS>SUBSTRUCTURE
     1 0LV         1

