### 
### Created by X-TOOL on Mon Sep 10 21:13:09 2018
### 

@<TRIPOS>MOLECULE
4dtk_ligand
   49    51     1     0     0
SMALL
GAST_HUCK


@<TRIPOS>ATOM
      1 C          22.7970  -40.1530   -3.7150 C.3       1 7LI        -0.0350
      2 N          19.3330  -37.1640   -2.5370 N.pl3     1 7LI        -0.3037
      3 O          20.7330  -39.4530   -2.9090 O.3       1 7LI        -0.3212
      4 S          17.7840  -36.8070    2.6510 S.3       1 7LI         0.0382
      5 C1         21.4650  -40.6490   -3.2770 C.3       1 7LI         0.0726
      6 N1         16.3110  -37.3160   -4.7420 N.4       1 7LI         0.2221
      7 O1         17.0340  -33.9390    0.2010 O.2       1 7LI        -0.3775
      8 C2         20.6960  -41.2920   -4.3840 C.3       1 7LI        -0.0350
      9 N2         16.2780  -34.7590    2.2280 N.am      1 7LI        -0.1888
     10 O2         15.8050  -35.8970    4.1670 O.2       1 7LI        -0.3708
     11 C3         20.6300  -39.0260   -1.5980 C.ar      1 7LI         0.1112
     12 C4         21.1810  -39.7010   -0.5130 C.ar      1 7LI        -0.0440
     13 C5         20.9850  -39.2170    0.7690 C.ar      1 7LI        -0.0833
     14 C6         20.2470  -38.0650    0.9710 C.ar      1 7LI        -0.0769
     15 C7         19.7010  -37.3590   -0.1090 C.ar      1 7LI        -0.0135
     16 C8         19.8990  -37.8450   -1.4110 C.ar      1 7LI         0.0818
     17 C9         20.1400  -36.2080   -3.3070 C.3       1 7LI         0.0264
     18 C10        19.3510  -35.1490   -4.0470 C.3       1 7LI        -0.0282
     19 C11        18.2330  -35.7860   -4.8610 C.3       1 7LI        -0.0061
     20 C12        17.3690  -36.6510   -3.9580 C.3       1 7LI        -0.0043
     21 C13        18.1700  -37.7150   -3.2430 C.3       1 7LI         0.0687
     22 C14        18.7610  -36.2570    0.1020 C.2       1 7LI        -0.0379
     23 C15        18.0230  -35.9230    1.1730 C.2       1 7LI         0.1112
     24 C16        17.0940  -34.7720    1.1100 C.2       1 7LI         0.2404
     25 C17        16.4670  -35.7360    3.1610 C.2       1 7LI         0.2809
     26 H1         23.4248  -41.0048   -4.0155 H         1 7LI         0.0258
     27 H2         23.2798  -39.6167   -2.8848 H         1 7LI         0.0258
     28 H3         22.6717  -39.4707   -4.5687 H         1 7LI         0.0258
     29 H4         21.5689  -41.3442   -2.4309 H         1 7LI         0.0639
     30 H5         15.7651  -36.6211   -5.2269 H         1 7LI         0.1997
     31 H6         15.7133  -37.8407   -4.1227 H         1 7LI         0.1997
     32 H7         16.7316  -37.9406   -5.4121 H         1 7LI         0.1997
     33 H8         19.7239  -41.6378   -4.0025 H         1 7LI         0.0258
     34 H9         21.2630  -42.1501   -4.7741 H         1 7LI         0.0258
     35 H10        20.5346  -40.5618   -5.1907 H         1 7LI         0.0258
     36 H11        15.5748  -34.0581    2.3475 H         1 7LI         0.2253
     37 H12        21.7616  -40.6026   -0.6712 H         1 7LI         0.0503
     38 H13        21.4109  -39.7421    1.6164 H         1 7LI         0.0484
     39 H14        20.0886  -37.7027    1.9803 H         1 7LI         0.0487
     40 H15        20.7259  -36.7744   -4.0458 H         1 7LI         0.0514
     41 H16        20.8222  -35.6993   -2.6100 H         1 7LI         0.0514
     42 H17        20.0247  -34.6027   -4.7235 H         1 7LI         0.0286
     43 H18        18.9148  -34.4486   -3.3195 H         1 7LI         0.0286
     44 H19        18.6690  -36.4091   -5.6557 H         1 7LI         0.0321
     45 H20        17.6139  -34.9965   -5.3121 H         1 7LI         0.0321
     46 H21        16.9006  -36.0000   -3.2052 H         1 7LI         0.0869
     47 H22        17.5181  -38.2155   -2.5119 H         1 7LI         0.0570
     48 H23        18.5218  -38.4486   -3.9833 H         1 7LI         0.0570
     49 H24        18.6396  -35.5959   -0.7548 H         1 7LI         0.0575
@<TRIPOS>BOND
     1    5    1 1  
     2   16    2 1  
     3    2   17 1  
     4    2   21 1  
     5    3    5 1  
     6   11    3 1  
     7   23    4 1  
     8    4   25 1  
     9    5    8 1  
    10   20    6 1  
    11   24    7 2  
    12    9   24 am 
    13   25    9 am 
    14   25   10 2  
    15   11   12 ar 
    16   16   11 ar 
    17   13   12 ar 
    18   14   13 ar 
    19   15   14 ar 
    20   15   16 ar 
    21   22   15 1  
    22   17   18 1  
    23   18   19 1  
    24   20   19 1  
    25   21   20 1  
    26   22   23 2  
    27   23   24 1  
    28    1   26 1  
    29    1   27 1  
    30    1   28 1  
    31    5   29 1  
    32    6   30 1  
    33    6   31 1  
    34    6   32 1  
    35    8   33 1  
    36    8   34 1  
    37    8   35 1  
    38    9   36 1  
    39   12   37 1  
    40   13   38 1  
    41   14   39 1  
    42   17   40 1  
    43   17   41 1  
    44   18   42 1  
    45   18   43 1  
    46   19   44 1  
    47   19   45 1  
    48   20   46 1  
    49   21   47 1  
    50   21   48 1  
    51   22   49 1  
@<TRIPOS>SUBSTRUCTURE
     1 7LI         1

