### 
### Created by X-TOOL on Mon Sep 10 21:13:13 2018
### 

@<TRIPOS>MOLECULE
4dtt_ligand
   49    50     1     0     0
SMALL
GAST_HUCK


@<TRIPOS>ATOM
      1 O04        85.5110  -67.0810    5.5240 O.2       1 I41        -0.3677
      2 C03        84.3500  -67.4840    5.5240 C.2       1 I41         0.2608
      3 O02        83.3140  -66.5280    5.9380 O.3       1 I41        -0.2783
      4 C01        83.2530  -65.2350    5.3210 C.3       1 I41         0.0658
      5 C05        84.0040  -68.8760    4.9850 C.3       1 I41         0.1482
      6 C06        83.8320  -70.1870    5.8310 C.3       1 I41         0.0159
      7 C07        83.8860  -70.2770    7.3630 C.2       1 I41        -0.0026
      8 C08        83.3690  -71.3630    8.0870 C.2       1 I41         0.0291
      9 N09        83.5740  -71.2140    9.4250 N.pl3     1 I41        -0.2752
     10 C10        84.2780  -69.9530    9.6210 C.2       1 I41         0.0907
     11 N11        84.4450  -69.4140    8.2670 N.2       1 I41        -0.3252
     12 N12        84.8690  -69.1520    3.8020 N.am      1 I41        -0.2587
     13 C13        86.1660  -69.4890    3.5640 C.2       1 I41         0.2240
     14 O14        87.0380  -69.6700    4.3960 O.2       1 I41        -0.3910
     15 C15        86.5200  -69.5970    2.0800 C.3       1 I41         0.0609
     16 N16        86.9760  -70.8910    1.5200 N.4       1 I41         0.2750
     17 C17        85.8850  -71.4960    0.6760 C.3       1 I41         0.0245
     18 C18        84.5700  -72.0690    1.2660 C.2       1 I41         0.0814
     19 O19        83.6350  -72.3020    0.4810 O.co2     1 I41        -0.5645
     20 O20        84.3800  -72.3270    2.4760 O.co2     1 I41        -0.5645
     21 C21        88.1100  -70.4570    0.6490 C.3       1 I41         0.0052
     22 C22        89.3540  -71.3280    0.4760 C.ar      1 I41         0.0015
     23 C23        89.9020  -71.4540   -0.8190 C.ar      1 I41        -0.0553
     24 C24        91.0980  -72.2650   -1.1200 C.ar      1 I41        -0.0684
     25 C25        91.6680  -72.9150    0.0730 C.ar      1 I41        -0.0687
     26 C26        91.1090  -72.7620    1.3550 C.ar      1 I41        -0.0684
     27 C27        89.9630  -71.9760    1.5620 C.ar      1 I41        -0.0553
     28 H          82.4207  -64.6609    5.7542 H         1 I41         0.0577
     29 H          83.0935  -65.3522    4.2390 H         1 I41         0.0577
     30 H          84.1979  -64.7000    5.4966 H         1 I41         0.0577
     31 H          82.9908  -68.7266    4.5836 H         1 I41         0.0833
     32 H          84.6174  -70.8687    5.4726 H         1 I41         0.0421
     33 H          82.8454  -70.5851    5.5517 H         1 I41         0.0421
     34 H          82.8670  -72.2174    7.6353 H         1 I41         0.0729
     35 H          83.2847  -71.8717   10.1630 H         1 I41         0.2361
     36 H          84.6060  -69.5108   10.5606 H         1 I41         0.1199
     37 H          84.3545  -69.0657    2.9488 H         1 I41         0.1887
     38 H          87.3224  -68.8687    1.8910 H         1 I41         0.1063
     39 H          85.6208  -69.3064    1.5169 H         1 I41         0.1063
     40 H          87.2696  -71.5359    2.2370 H         1 I41         0.2083
     41 H          86.3543  -72.3244    0.1251 H         1 I41         0.0989
     42 H          85.5808  -70.7108   -0.0317 H         1 I41         0.0989
     43 H          88.4578  -69.4925    1.0475 H         1 I41         0.0981
     44 H          87.6911  -70.3085   -0.3572 H         1 I41         0.0981
     45 H          89.4194  -70.9278   -1.6346 H         1 I41         0.0558
     46 H          91.5138  -72.3713   -2.1154 H         1 I41         0.0599
     47 H          92.5506  -73.5339   -0.0412 H         1 I41         0.0559
     48 H          91.5714  -73.2602    2.1994 H         1 I41         0.0599
     49 H          89.5499  -71.8702    2.5586 H         1 I41         0.0558
@<TRIPOS>BOND
     1    1    2 2  
     2    2    3 1  
     3    2    5 1  
     4    3    4 1  
     5    5    6 1  
     6    5   12 1  
     7    6    7 1  
     8    7    8 2  
     9    7   11 1  
    10    8    9 1  
    11    9   10 1  
    12   10   11 2  
    13   12   13 am 
    14   13   14 2  
    15   13   15 1  
    16   15   16 1  
    17   16   17 1  
    18   16   21 1  
    19   17   18 1  
    20   18   19 ar 
    21   18   20 ar 
    22   21   22 1  
    23   22   23 ar 
    24   22   27 ar 
    25   23   24 ar 
    26   24   25 ar 
    27   25   26 ar 
    28   26   27 ar 
    29    4   28 1  
    30    4   29 1  
    31    4   30 1  
    32    5   31 1  
    33    6   32 1  
    34    6   33 1  
    35    8   34 1  
    36    9   35 1  
    37   10   36 1  
    38   12   37 1  
    39   15   38 1  
    40   15   39 1  
    41   16   40 1  
    42   17   41 1  
    43   17   42 1  
    44   21   43 1  
    45   21   44 1  
    46   23   45 1  
    47   24   46 1  
    48   25   47 1  
    49   26   48 1  
    50   27   49 1  
@<TRIPOS>SUBSTRUCTURE
     1 I41         1

