### 
### Created by X-TOOL on Mon Sep 10 21:13:10 2018
### 

@<TRIPOS>MOLECULE
4duh_ligand
   41    43     1     0     0
SMALL
GAST_HUCK


@<TRIPOS>ATOM
      1 N10         4.7120    6.4090   39.0540 N.am      1 RLI        -0.1931
      2 O10         5.1670    7.6440   37.3090 O.2       1 RLI        -0.3794
      3 S10         3.5910    5.4480   36.7950 S.3       1 RLI         0.0064
      4 C11         7.3580    8.6050   39.0460 C.3       1 RLI        -0.0475
      5 N11         3.5670    4.4410   39.1180 N.2       1 RLI        -0.3108
      6 O11        -1.3110   -4.5890   38.3290 O.co2     1 RLI        -0.5638
      7 S11         1.0250    2.6750   33.6900 S.3       1 RLI         0.0056
      8 C12         5.2480    7.4500   38.4560 C.2       1 RLI         0.2160
      9 N12         1.4560    2.0460   36.1350 N.2       1 RLI        -0.3151
     10 O12         0.0090   -3.6320   39.6610 O.co2     1 RLI        -0.5638
     11 C13         6.0020    8.3940   39.3980 C.3       1 RLI         0.0427
     12 N13         0.2240    0.4490   34.8810 N.pl3     1 RLI        -0.2353
     13 C14         3.9980    5.4640   38.4510 C.2       1 RLI         0.2057
     14 C15         2.8520    3.5530   38.3450 C.2       1 RLI        -0.0197
     15 C16         2.2720    2.3040   38.9370 C.3       1 RLI        -0.0342
     16 C17         2.7790    3.9760   37.0610 C.2       1 RLI         0.0273
     17 C18         2.0620    3.2680   35.9860 C.2       1 RLI        -0.0093
     18 C19         1.9410    3.7920   34.6390 C.2       1 RLI        -0.0090
     19 C20         0.8730    1.6130   35.0100 C.2       1 RLI         0.1969
     20 C21         0.0130   -0.5490   35.8730 C.ar      1 RLI         0.0708
     21 C22         0.5770   -0.4700   37.1050 C.ar      1 RLI        -0.0340
     22 C23         0.3670   -1.4690   38.0150 C.ar      1 RLI        -0.0571
     23 C24        -0.4100   -2.5550   37.6970 C.ar      1 RLI        -0.0016
     24 C25        -0.5900   -3.6700   38.6560 C.2       1 RLI         0.0553
     25 C26        -0.9670   -2.6170   36.4730 C.ar      1 RLI        -0.0571
     26 C27        -0.7630   -1.6270   35.5570 C.ar      1 RLI        -0.0340
     27 H1          4.8526    6.3213   40.0402 H         1 RLI         0.2428
     28 H2          7.8223    9.2908   39.7699 H         1 RLI         0.0254
     29 H3          7.4114    9.0440   38.0388 H         1 RLI         0.0254
     30 H4          7.8932    7.6441   39.0560 H         1 RLI         0.0254
     31 H5          5.4892    9.3671   39.3941 H         1 RLI         0.0507
     32 H6          5.9711    7.9672   40.4113 H         1 RLI         0.0507
     33 H7         -0.1706    0.2520   33.9502 H         1 RLI         0.2224
     34 H8          1.7435    1.7389   38.1552 H         1 RLI         0.0374
     35 H9          1.5659    2.5710   39.7371 H         1 RLI         0.0374
     36 H10         3.0809    1.6855   39.3531 H         1 RLI         0.0374
     37 H11         2.3582    4.7333   34.2843 H         1 RLI         0.0496
     38 H12         1.1925    0.3830   37.3670 H         1 RLI         0.0545
     39 H13         0.8190   -1.4025   38.9980 H         1 RLI         0.0622
     40 H14        -1.5872   -3.4667   36.2113 H         1 RLI         0.0622
     41 H15        -1.2182   -1.6963   34.5756 H         1 RLI         0.0545
@<TRIPOS>BOND
     1    1    8 am 
     2   13    1 1  
     3    8    2 2  
     4    3   13 1  
     5   16    3 1  
     6   11    4 1  
     7    5   13 2  
     8   14    5 1  
     9   24    6 ar 
    10    7   18 1  
    11   19    7 1  
    12    8   11 1  
    13    9   17 1  
    14   19    9 2  
    15   24   10 ar 
    16   12   19 1  
    17   20   12 1  
    18   14   15 1  
    19   16   14 2  
    20   17   16 1  
    21   17   18 2  
    22   21   20 ar 
    23   20   26 ar 
    24   22   21 ar 
    25   23   22 ar 
    26   23   24 1  
    27   23   25 ar 
    28   25   26 ar 
    29    1   27 1  
    30    4   28 1  
    31    4   29 1  
    32    4   30 1  
    33   11   31 1  
    34   11   32 1  
    35   12   33 1  
    36   15   34 1  
    37   15   35 1  
    38   15   36 1  
    39   18   37 1  
    40   21   38 1  
    41   22   39 1  
    42   25   40 1  
    43   26   41 1  
@<TRIPOS>SUBSTRUCTURE
     1 RLI         1

