### 
### Created by X-TOOL on Mon Sep 10 21:13:11 2018
### 

@<TRIPOS>MOLECULE
4dus_ligand
   74    77     1     0     0
SMALL
GAST_HUCK


@<TRIPOS>ATOM
      1 C2         61.0590   45.4090    9.3810 C.3       1 0MP        -0.0189
      2 C3         60.7700   43.9410    9.0450 C.3       1 0MP        -0.0471
      3 C4         62.2680   43.6110    9.1040 C.3       1 0MP        -0.0189
      4 C1         62.5710   45.1050    9.3310 C.3       1 0MP         0.0993
      5 C13        63.3010   45.7280    8.1240 C.3       1 0MP         0.0333
      6 O12        63.2430   45.3710   10.5610 O.3       1 0MP        -0.3000
      7 C5         63.4680   46.7020   10.8150 C.ar      1 0MP         0.1660
      8 N10        63.6200   47.0760   12.1050 N.ar      1 0MP        -0.2897
      9 C9         63.8590   48.3380   12.4470 C.ar      1 0MP        -0.0070
     10 C8         63.9540   49.3280   11.4670 C.ar      1 0MP        -0.0334
     11 C14        64.2250   50.7730   11.8800 C.3       1 0MP        -0.0149
     12 C15        62.9740   51.5320   12.3000 C.3       1 0MP        -0.0285
     13 C17        62.2020   50.6880   13.3150 C.3       1 0MP        -0.0583
     14 C18        62.0810   51.8760   11.0900 C.3       1 0MP        -0.0583
     15 C16        63.4210   52.8470   12.9560 C.3       1 0MP        -0.0583
     16 C7         63.8060   48.9850   10.1160 C.ar      1 0MP        -0.0421
     17 C6         63.5700   47.6550    9.7860 C.ar      1 0MP         0.0561
     18 C11        63.3910   47.2520    8.3060 C.3       1 0MP         0.0175
     19 N29        64.4460   47.8080    7.4400 N.4       1 0MP         0.2427
     20 C28        65.8280   47.4400    7.7990 C.3       1 0MP        -0.0031
     21 C26        66.7610   48.4800    7.1570 C.3       1 0MP         0.1192
     22 O30        66.3080   49.7980    7.4780 O.3       1 0MP        -0.3841
     23 C25        68.2040   48.3230    7.6240 C.3       1 0MP         0.0817
     24 N27        68.7530   47.0330    7.1570 N.am      1 0MP        -0.2795
     25 C33        68.8890   46.0150    8.0050 C.2       1 0MP         0.1733
     26 C35        69.4430   44.7150    7.4030 C.3       1 0MP         0.0257
     27 O34        68.5640   46.0780    9.1900 O.2       1 0MP        -0.3974
     28 C31        69.0620   49.5030    7.1410 C.3       1 0MP         0.0047
     29 C19        70.5520   49.2200    7.3590 C.ar      1 0MP        -0.0446
     30 C20        71.3970   49.0440    6.2770 C.ar      1 0MP        -0.0619
     31 C21        72.7410   48.7720    6.5020 C.ar      1 0MP        -0.0349
     32 C22        73.2280   48.6870    7.8030 C.ar      1 0MP         0.1248
     33 F32        74.5290   48.4340    8.0340 F         1 0MP        -0.1893
     34 C23        72.3830   48.8490    8.8800 C.ar      1 0MP        -0.0349
     35 C24        71.0400   49.1130    8.6480 C.ar      1 0MP        -0.0619
     36 H1         60.6947   45.7262   10.3692 H         1 0MP         0.0297
     37 H2         60.7165   46.1229    8.6174 H         1 0MP         0.0297
     38 H3         60.3190   43.7909    8.0530 H         1 0MP         0.0267
     39 H4         60.1683   43.4198    9.8041 H         1 0MP         0.0267
     40 H5         62.6780   43.2044    8.1678 H         1 0MP         0.0297
     41 H6         62.5542   42.9597    9.9430 H         1 0MP         0.0297
     42 H7         62.7442   45.5017    7.2027 H         1 0MP         0.0374
     43 H8         64.3149   45.3074    8.0524 H         1 0MP         0.0374
     44 H9         63.9808   48.5999   13.4918 H         1 0MP         0.0662
     45 H10        64.6808   51.2985   11.0279 H         1 0MP         0.0424
     46 H11        64.9283   50.7668   12.7258 H         1 0MP         0.0424
     47 H12        61.2950   51.2272   13.6259 H         1 0MP         0.0236
     48 H13        62.8363   50.5003   14.1939 H         1 0MP         0.0236
     49 H14        61.9193   49.7295   12.8554 H         1 0MP         0.0236
     50 H15        62.6534   52.4823   10.3725 H         1 0MP         0.0236
     51 H16        61.2032   52.4440   11.4318 H         1 0MP         0.0236
     52 H17        61.7498   50.9471   10.6028 H         1 0MP         0.0236
     53 H18        64.0604   52.6253   13.8232 H         1 0MP         0.0236
     54 H19        62.5365   53.4108   13.2873 H         1 0MP         0.0236
     55 H20        63.9863   53.4466   12.2274 H         1 0MP         0.0236
     56 H21        63.8742   49.7421    9.3432 H         1 0MP         0.0584
     57 H22        62.4342   47.6792    7.9715 H         1 0MP         0.1009
     58 H23        64.3750   48.8130    7.4717 H         1 0MP         0.2031
     59 H24        64.2749   47.4885    6.4994 H         1 0MP         0.2031
     60 H25        66.0621   46.4364    7.4143 H         1 0MP         0.0840
     61 H26        65.9483   47.4509    8.8923 H         1 0MP         0.0840
     62 H27        66.7305   48.3466    6.0656 H         1 0MP         0.0672
     63 H28        66.8874   50.4366    7.0793 H         1 0MP         0.2101
     64 H29        68.2132   48.3219    8.7239 H         1 0MP         0.0605
     65 H30        69.0235   46.9239    6.2005 H         1 0MP         0.1857
     66 H31        69.5125   43.9478    8.1882 H         1 0MP         0.0467
     67 H32        70.4426   44.9019    6.9836 H         1 0MP         0.0467
     68 H33        68.7707   44.3642    6.6062 H         1 0MP         0.0467
     69 H34        68.7810   50.4063    7.7023 H         1 0MP         0.0442
     70 H35        68.8794   49.6660    6.0686 H         1 0MP         0.0442
     71 H36        71.0146   49.1175    5.2653 H         1 0MP         0.0547
     72 H37        73.4113   48.6258    5.6627 H         1 0MP         0.0587
     73 H38        72.7615   48.7714    9.8928 H         1 0MP         0.0587
     74 H39        70.3658   49.2367    9.4878 H         1 0MP         0.0547
@<TRIPOS>BOND
     1    1    2 1  
     2    1    4 1  
     3    2    3 1  
     4    3    4 1  
     5    4    5 1  
     6    4    6 1  
     7    5   18 1  
     8    6    7 1  
     9    7    8 ar 
    10    7   17 ar 
    11    8    9 ar 
    12    9   10 ar 
    13   10   11 1  
    14   10   16 ar 
    15   11   12 1  
    16   12   13 1  
    17   12   14 1  
    18   12   15 1  
    19   16   17 ar 
    20   17   18 1  
    21   18   19 1  
    22   19   20 1  
    23   20   21 1  
    24   21   22 1  
    25   21   23 1  
    26   23   24 1  
    27   23   28 1  
    28   24   25 am 
    29   25   26 1  
    30   25   27 2  
    31   28   29 1  
    32   29   30 ar 
    33   29   35 ar 
    34   30   31 ar 
    35   31   32 ar 
    36   32   33 1  
    37   32   34 ar 
    38   34   35 ar 
    39    1   36 1  
    40    1   37 1  
    41    2   38 1  
    42    2   39 1  
    43    3   40 1  
    44    3   41 1  
    45    5   42 1  
    46    5   43 1  
    47    9   44 1  
    48   11   45 1  
    49   11   46 1  
    50   13   47 1  
    51   13   48 1  
    52   13   49 1  
    53   14   50 1  
    54   14   51 1  
    55   14   52 1  
    56   15   53 1  
    57   15   54 1  
    58   15   55 1  
    59   16   56 1  
    60   18   57 1  
    61   19   58 1  
    62   19   59 1  
    63   20   60 1  
    64   20   61 1  
    65   21   62 1  
    66   22   63 1  
    67   23   64 1  
    68   24   65 1  
    69   26   66 1  
    70   26   67 1  
    71   26   68 1  
    72   28   69 1  
    73   28   70 1  
    74   30   71 1  
    75   31   72 1  
    76   34   73 1  
    77   35   74 1  
@<TRIPOS>SUBSTRUCTURE
     1 0MP         1

