### 
### Created by X-TOOL on Mon Sep 10 21:13:09 2018
### 

@<TRIPOS>MOLECULE
4dv8_ligand
   58    59     1     0     0
SMALL
GAST_HUCK


@<TRIPOS>ATOM
      1 O01        16.5120   19.8430   28.6200 O.2       1 0LX        -0.3967
      2 C02        16.3440   19.0920   27.6880 C.2       1 0LX         0.2021
      3 N03        15.4190   18.0210   27.7830 N.am      1 0LX        -0.1640
      4 O04        14.6090   17.9380   28.8370 O.3       1 0LX        -0.2717
      5 C05        17.2100   19.2400   26.4830 C.3       1 0LX         0.0544
      6 C06        17.0150   20.5510   25.8350 C.3       1 0LX        -0.0328
      7 C07        15.5920   20.6730   25.2650 C.3       1 0LX        -0.0459
      8 C08        15.0220   22.0530   25.4850 C.3       1 0LX        -0.0124
      9 C09        13.5050   22.1210   25.2210 C.3       1 0LX        -0.0324
     10 N10        12.7720   22.6290   26.4160 N.4       1 0LX         0.2386
     11 C11        11.4890   23.1770   26.0530 C.3       1 0LX        -0.0016
     12 C12        10.6000   22.1900   25.4050 C.ar      1 0LX        -0.0025
     13 C13        10.0420   21.1160   26.1290 C.ar      1 0LX        -0.0570
     14 C14         9.1950   20.1840   25.4860 C.ar      1 0LX        -0.0347
     15 C15         8.9110   20.3360   24.1280 C.ar      1 0LX         0.1248
     16 C16         9.4650   21.4110   23.4020 C.ar      1 0LX        -0.0347
     17 C17        10.3020   22.3380   24.0450 C.ar      1 0LX        -0.0570
     18 F18         8.1330   19.4760   23.4930 F         1 0LX        -0.1893
     19 C19        18.6900   19.0180   26.9290 C.3       1 0LX         0.0026
     20 C20        18.8660   17.7350   27.7100 C.3       1 0LX         0.0927
     21 O21        18.7740   16.6030   26.9350 O.3       1 0LX        -0.3678
     22 C22        18.8620   15.3600   27.5460 C.3       1 0LX         0.0393
     23 C23        20.2400   17.7390   28.3490 C.ar      1 0LX        -0.0182
     24 C24        20.3300   17.7300   29.7380 C.ar      1 0LX        -0.0595
     25 C25        21.5580   17.7720   30.3630 C.ar      1 0LX        -0.0348
     26 C26        22.7300   17.8360   29.5860 C.ar      1 0LX         0.1248
     27 C27        22.6570   17.8400   28.2000 C.ar      1 0LX        -0.0348
     28 C28        21.4080   17.8010   27.5660 C.ar      1 0LX        -0.0595
     29 F29        23.9070   17.8910   30.2100 F         1 0LX        -0.1893
     30 H1         15.3751   17.3305   27.0610 H         1 0LX         0.2216
     31 H2         14.0556   17.1707   28.7501 H         1 0LX         0.2490
     32 H3         16.9412   18.4597   25.7558 H         1 0LX         0.0540
     33 H4         17.7417   20.6602   25.0165 H         1 0LX         0.0292
     34 H5         17.1757   21.3472   26.5767 H         1 0LX         0.0292
     35 H6         14.9440   19.9358   25.7617 H         1 0LX         0.0269
     36 H7         15.6212   20.4669   24.1849 H         1 0LX         0.0269
     37 H8         15.5287   22.7550   24.8064 H         1 0LX         0.0317
     38 H9         15.2111   22.3494   26.5273 H         1 0LX         0.0317
     39 H10        13.1378   21.1134   24.9765 H         1 0LX         0.0814
     40 H11        13.3184   22.7953   24.3722 H         1 0LX         0.0814
     41 H12        13.3229   23.3487   26.8571 H         1 0LX         0.2027
     42 H13        12.6325   21.8686   27.0628 H         1 0LX         0.2027
     43 H14        11.6497   24.0135   25.3570 H         1 0LX         0.0972
     44 H15        10.9960   23.5474   26.9639 H         1 0LX         0.0972
     45 H16        10.2636   21.0044   27.1842 H         1 0LX         0.0549
     46 H17         8.7694   19.3576   26.0437 H         1 0LX         0.0587
     47 H18         9.2446   21.5220   22.3465 H         1 0LX         0.0587
     48 H19        10.7179   23.1693   23.4873 H         1 0LX         0.0549
     49 H20        18.9997   19.8629   27.5617 H         1 0LX         0.0339
     50 H21        19.3274   18.9776   26.0334 H         1 0LX         0.0339
     51 H22        18.0930   17.6927   28.4914 H         1 0LX         0.0754
     52 H23        18.7694   14.5704   26.7858 H         1 0LX         0.0526
     53 H24        18.0524   15.2557   28.2834 H         1 0LX         0.0526
     54 H25        19.8339   15.2686   28.0530 H         1 0LX         0.0526
     55 H26        19.4255   17.6896   30.3341 H         1 0LX         0.0548
     56 H27        21.6206   17.7559   31.4451 H         1 0LX         0.0587
     57 H28        23.5650   17.8732   27.6088 H         1 0LX         0.0587
     58 H29        21.3420   17.8184   26.4841 H         1 0LX         0.0548
@<TRIPOS>BOND
     1    1    2 2  
     2    2    3 am 
     3    2    5 1  
     4    3    4 1  
     5    5    6 1  
     6    5   19 1  
     7    6    7 1  
     8    7    8 1  
     9    8    9 1  
    10    9   10 1  
    11   10   11 1  
    12   11   12 1  
    13   12   13 ar 
    14   12   17 ar 
    15   13   14 ar 
    16   14   15 ar 
    17   15   16 ar 
    18   15   18 1  
    19   16   17 ar 
    20   19   20 1  
    21   20   21 1  
    22   20   23 1  
    23   21   22 1  
    24   23   24 ar 
    25   23   28 ar 
    26   24   25 ar 
    27   25   26 ar 
    28   26   27 ar 
    29   26   29 1  
    30   27   28 ar 
    31    3   30 1  
    32    4   31 1  
    33    5   32 1  
    34    6   33 1  
    35    6   34 1  
    36    7   35 1  
    37    7   36 1  
    38    8   37 1  
    39    8   38 1  
    40    9   39 1  
    41    9   40 1  
    42   10   41 1  
    43   10   42 1  
    44   11   43 1  
    45   11   44 1  
    46   13   45 1  
    47   14   46 1  
    48   16   47 1  
    49   17   48 1  
    50   19   49 1  
    51   19   50 1  
    52   20   51 1  
    53   22   52 1  
    54   22   53 1  
    55   22   54 1  
    56   24   55 1  
    57   25   56 1  
    58   27   57 1  
    59   28   58 1  
@<TRIPOS>SUBSTRUCTURE
     1 0LX         1

