### 
### Created by X-TOOL on Mon Sep 10 21:13:09 2018
### 

@<TRIPOS>MOLECULE
4dve_ligand
   31    32     1     0     0
SMALL
GAST_HUCK


@<TRIPOS>ATOM
      1 C11        45.3660  -46.2240   63.2600 C.2       1 BTN         0.0348
      2 O11        45.2590  -45.0340   62.8850 O.co2     1 BTN        -0.5690
      3 O12        45.9500  -47.0480   62.5420 O.co2     1 BTN        -0.5690
      4 C10        44.7640  -46.6990   64.5960 C.3       1 BTN         0.0002
      5 C9         45.6590  -46.4040   65.8020 C.3       1 BTN        -0.0414
      6 C8         45.0270  -46.9660   67.0970 C.3       1 BTN        -0.0505
      7 C7         45.7390  -46.4230   68.3460 C.3       1 BTN        -0.0389
      8 C2         45.1230  -46.9240   69.6400 C.3       1 BTN         0.0302
      9 S1         43.4690  -46.2490   69.8720 S.3       1 BTN        -0.1527
     10 C6         43.5130  -46.6550   71.6040 C.3       1 BTN         0.0190
     11 C5         44.9700  -46.4720   72.0970 C.3       1 BTN         0.0750
     12 N1         45.1850  -45.1340   72.5840 N.am      1 BTN        -0.2671
     13 C3         46.0450  -44.4420   71.8420 C.2       1 BTN         0.2580
     14 O3         46.4030  -43.2820   72.0520 O.2       1 BTN        -0.4008
     15 N2         46.4670  -45.2340   70.8410 N.am      1 BTN        -0.2668
     16 C4         45.9090  -46.5620   70.8930 C.3       1 BTN         0.0775
     17 H          44.6389  -47.7801   64.5352 H         1 BTN         0.0430
     18 H          43.8258  -46.1641   64.7433 H         1 BTN         0.0430
     19 H          45.7722  -45.3246   65.9030 H         1 BTN         0.0283
     20 H          46.6286  -46.8772   65.6472 H         1 BTN         0.0283
     21 H          45.1226  -48.0518   67.0872 H         1 BTN         0.0267
     22 H          43.9811  -46.6614   67.1335 H         1 BTN         0.0267
     23 H          45.6516  -45.3366   68.3338 H         1 BTN         0.0277
     24 H          46.7736  -46.7646   68.3150 H         1 BTN         0.0277
     25 H          45.1187  -48.0080   69.5258 H         1 BTN         0.0435
     26 H          43.1874  -47.6835   71.7597 H         1 BTN         0.0399
     27 H          42.8403  -46.0039   72.1623 H         1 BTN         0.0399
     28 H          45.1476  -47.2249   72.8650 H         1 BTN         0.0584
     29 H          44.7253  -44.7560   73.4124 H         1 BTN         0.1849
     30 H          47.1167  -44.9261   70.1175 H         1 BTN         0.1849
     31 H          46.6782  -47.3307   70.9673 H         1 BTN         0.0587
@<TRIPOS>BOND
     1    1    2 ar 
     2    1    3 ar 
     3    1    4 1  
     4    4    5 1  
     5    5    6 1  
     6    6    7 1  
     7    7    8 1  
     8    8    9 1  
     9    8   16 1  
    10    9   10 1  
    11   10   11 1  
    12   11   12 1  
    13   11   16 1  
    14   12   13 am 
    15   13   14 2  
    16   13   15 am 
    17   15   16 1  
    18    4   17 1  
    19    4   18 1  
    20    5   19 1  
    21    5   20 1  
    22    6   21 1  
    23    6   22 1  
    24    7   23 1  
    25    7   24 1  
    26    8   25 1  
    27   10   26 1  
    28   10   27 1  
    29   11   28 1  
    30   12   29 1  
    31   15   30 1  
    32   16   31 1  
@<TRIPOS>SUBSTRUCTURE
     1 BTN         1

