### 
### Created by X-TOOL on Mon Sep 10 21:13:11 2018
### 

@<TRIPOS>MOLECULE
4dvi_ligand
   53    58     1     0     0
SMALL
GAST_HUCK


@<TRIPOS>ATOM
      1 C1         -4.0410   44.6030   26.7270 C.3       1 2IW         0.0911
      2 N1         -6.0050   43.3070   26.9170 N.am      1 2IW        -0.1291
      3 O1         -3.9120   42.1870   26.8600 O.2       1 2IW        -0.3741
      4 C2         -3.3630   45.1160   28.0730 C.3       1 2IW         0.0006
      5 N2        -13.0290   40.0250   29.3460 N.ar      1 2IW        -0.3087
      6 O2         -7.6070   45.0120   27.0530 O.2       1 2IW        -0.3741
      7 C3         -5.2680   45.5440   26.8410 C.3       1 2IW         0.0911
      8 N3        -10.5210   39.0580   28.0520 N.am      1 2IW        -0.2290
      9 O3         -9.1860   37.8050   26.6530 O.2       1 2IW        -0.3778
     10 C4         -4.6250   43.1880   26.8460 C.2       1 2IW         0.2406
     11 C5         -6.4600   44.6020   26.9500 C.2       1 2IW         0.2406
     12 C6         -5.1390   46.4670   28.1660 C.3       1 2IW         0.0006
     13 C7         -4.1390   44.5380   29.2590 C.2       1 2IW        -0.0923
     14 C8         -3.6140   46.5880   28.1720 C.3       1 2IW        -0.0291
     15 C9         -5.1400   45.4630   29.3620 C.2       1 2IW        -0.0923
     16 C10       -11.5650   38.1740   28.2460 C.ar      1 2IW         0.0919
     17 C11        -9.4050   38.8610   27.2580 C.2       1 2IW         0.2256
     18 C12       -15.3130   39.5990   30.1570 C.ar      1 2IW        -0.0362
     19 C13       -15.1940   38.2200   29.7200 C.ar      1 2IW        -0.0225
     20 C14       -13.9770   37.7040   29.0700 C.ar      1 2IW        -0.0010
     21 C15       -12.8080   38.6700   28.8810 C.ar      1 2IW         0.0682
     22 C16       -14.1910   40.5100   29.9650 C.ar      1 2IW        -0.0038
     23 C17       -13.7680   36.3300   28.6290 C.ar      1 2IW        -0.0672
     24 C18       -12.5340   35.8550   28.0140 C.ar      1 2IW        -0.0774
     25 C19       -11.4400   36.7710   27.8310 C.ar      1 2IW        -0.0396
     26 C20       -16.3850   37.3710   29.9340 C.3       1 2IW        -0.0224
     27 C21        -7.9910   40.5720   28.4090 C.ar      1 2IW        -0.0530
     28 C22        -7.1310   41.7170   28.2900 C.ar      1 2IW        -0.0296
     29 C23        -6.8200   42.2350   26.9700 C.ar      1 2IW         0.1008
     30 C24        -7.3270   41.6750   25.7380 C.ar      1 2IW        -0.0296
     31 C25        -8.1920   40.5260   25.8480 C.ar      1 2IW        -0.0530
     32 C26        -8.4980   40.0150   27.1790 C.ar      1 2IW         0.0424
     33 H1         -3.4161   44.7243   25.8299 H         1 2IW         0.0601
     34 H2         -2.2925   44.8655   28.1093 H         1 2IW         0.0454
     35 H3         -5.3567   46.1843   25.9510 H         1 2IW         0.0601
     36 H4        -10.5778   39.9313   28.5359 H         1 2IW         0.2299
     37 H5         -5.7710   47.3651   28.2292 H         1 2IW         0.0454
     38 H6         -3.9480   43.6446   29.8517 H         1 2IW         0.0454
     39 H7         -3.2252   47.1481   27.3088 H         1 2IW         0.0313
     40 H8         -3.2227   47.0280   29.1011 H         1 2IW         0.0313
     41 H9         -5.8551   45.4960   30.1827 H         1 2IW         0.0454
     42 H10       -16.2278   39.9484   30.6219 H         1 2IW         0.0600
     43 H11       -14.2533   41.5411   30.2938 H         1 2IW         0.0795
     44 H12       -14.5763   35.6209   28.7662 H         1 2IW         0.0475
     45 H13       -12.4420   34.8222   27.6980 H         1 2IW         0.0572
     46 H14       -10.5162   36.4228   27.3833 H         1 2IW         0.0474
     47 H15       -17.1696   37.9590   30.4327 H         1 2IW         0.0429
     48 H16       -16.1141   36.5116   30.5649 H         1 2IW         0.0429
     49 H17       -16.7576   37.0107   28.9638 H         1 2IW         0.0429
     50 H18        -8.2457   40.1485   29.3738 H         1 2IW         0.0633
     51 H19        -6.7194   42.1883   29.1752 H         1 2IW         0.0534
     52 H20        -7.0688   42.0994   24.7745 H         1 2IW         0.0534
     53 H21        -8.6043   40.0542   24.9634 H         1 2IW         0.0633
@<TRIPOS>BOND
     1    1    4 1  
     2    7    1 1  
     3   10    1 1  
     4    2   10 am 
     5    2   11 am 
     6   29    2 1  
     7   10    3 2  
     8    4   13 1  
     9    4   14 1  
    10   21    5 ar 
    11    5   22 ar 
    12   11    6 2  
    13   11    7 1  
    14    7   12 1  
    15    8   16 1  
    16   17    8 am 
    17   17    9 2  
    18   12   14 1  
    19   12   15 1  
    20   15   13 2  
    21   16   21 ar 
    22   16   25 ar 
    23   32   17 1  
    24   19   18 ar 
    25   22   18 ar 
    26   20   19 ar 
    27   19   26 1  
    28   21   20 ar 
    29   20   23 ar 
    30   24   23 ar 
    31   25   24 ar 
    32   28   27 ar 
    33   27   32 ar 
    34   28   29 ar 
    35   29   30 ar 
    36   30   31 ar 
    37   31   32 ar 
    38    1   33 1  
    39    4   34 1  
    40    7   35 1  
    41    8   36 1  
    42   12   37 1  
    43   13   38 1  
    44   14   39 1  
    45   14   40 1  
    46   15   41 1  
    47   18   42 1  
    48   22   43 1  
    49   23   44 1  
    50   24   45 1  
    51   25   46 1  
    52   26   47 1  
    53   26   48 1  
    54   26   49 1  
    55   27   50 1  
    56   28   51 1  
    57   30   52 1  
    58   31   53 1  
@<TRIPOS>SUBSTRUCTURE
     1 2IW         1

