### 
### Created by X-TOOL on Mon Sep 10 21:13:13 2018
### 

@<TRIPOS>MOLECULE
4dwk_ligand
   55    56     1     0     0
SMALL
GAST_HUCK


@<TRIPOS>ATOM
      1 C10       108.1710  -64.8070   -9.1130 C.2       1 MGK         0.0907
      2 N12       106.0670  -69.2490   -8.4640 N.am      1 MGK        -0.2587
      3 C13       104.8140  -69.7400   -8.5730 C.2       1 MGK         0.2240
      4 C15       104.3000  -70.4070   -9.8520 C.3       1 MGK         0.0594
      5 C17       101.8420  -70.2150   -9.4490 C.3       1 MGK        -0.0269
      6 C20        98.1380  -69.8500   -9.7310 C.ar      1 MGK        -0.0428
      7 C21        96.9470  -70.1150   -9.0210 C.ar      1 MGK        -0.0603
      8 C22        95.8210  -69.2810   -9.1730 C.ar      1 MGK        -0.0686
      9 C24        97.0530  -67.8980  -10.7540 C.ar      1 MGK        -0.0686
     10 C26       103.0260  -72.3560   -8.8870 C.3       1 MGK         0.0230
     11 O29       102.6080  -72.0410   -6.4890 O.co2     1 MGK        -0.5645
     12 C27       103.4380  -72.3350   -7.3990 C.2       1 MGK         0.0813
     13 O28       104.6190  -72.6520   -7.1120 O.co2     1 MGK        -0.5645
     14 N16       102.9890  -71.1150   -9.7500 N.4       1 MGK         0.2636
     15 C18       100.6150  -70.4740  -10.3260 C.3       1 MGK        -0.0027
     16 C19        99.3380  -70.7900   -9.5220 C.3       1 MGK        -0.0143
     17 C25        98.1740  -68.7280  -10.5980 C.ar      1 MGK        -0.0603
     18 C23        95.8750  -68.1750  -10.0390 C.ar      1 MGK        -0.0687
     19 O14       104.0550  -69.6480   -7.6300 O.2       1 MGK        -0.3910
     20 C05       107.1540  -69.5720   -9.3700 C.3       1 MGK         0.1482
     21 C03       108.1910  -70.5000   -8.7680 C.2       1 MGK         0.2608
     22 O04       108.9700  -70.0020   -7.9820 O.2       1 MGK        -0.3677
     23 O02       108.2890  -71.9390   -9.1230 O.3       1 MGK        -0.2783
     24 C01       108.5190  -73.0070   -8.1970 C.3       1 MGK         0.0658
     25 C06       107.7770  -68.3250  -10.0440 C.3       1 MGK         0.0159
     26 C07       107.7910  -66.9640   -9.3760 C.2       1 MGK        -0.0026
     27 N11       108.2890  -65.8510   -9.9580 N.2       1 MGK        -0.3252
     28 N09       107.5710  -65.2500   -7.9810 N.pl3     1 MGK        -0.2752
     29 C08       107.3370  -66.5790   -8.1180 C.2       1 MGK         0.0291
     30 H         108.4999  -63.7870   -9.3060 H         1 MGK         0.1199
     31 H         106.2588  -68.6215   -7.7094 H         1 MGK         0.1887
     32 H         105.0533  -71.1418  -10.1724 H         1 MGK         0.1063
     33 H         104.1998  -69.6259  -10.6200 H         1 MGK         0.1063
     34 H         102.1661  -69.1751   -9.6024 H         1 MGK         0.0817
     35 H         101.5542  -70.3580   -8.3970 H         1 MGK         0.0817
     36 H          96.8980  -70.9674   -8.3531 H         1 MGK         0.0557
     37 H          94.9122  -69.4927   -8.6214 H         1 MGK         0.0599
     38 H          97.0955  -67.0465  -11.4234 H         1 MGK         0.0599
     39 H         102.0088  -72.7737   -8.9137 H         1 MGK         0.0989
     40 H         103.7204  -73.0496   -9.3837 H         1 MGK         0.0989
     41 H         102.8100  -71.4562  -10.6815 H         1 MGK         0.2067
     42 H         100.8319  -71.3282  -10.9842 H         1 MGK         0.0339
     43 H         100.4287  -69.5784  -10.9369 H         1 MGK         0.0339
     44 H          99.0164  -71.8062   -9.7937 H         1 MGK         0.0428
     45 H          99.6012  -70.7618   -8.4543 H         1 MGK         0.0428
     46 H          99.0814  -68.5081  -11.1487 H         1 MGK         0.0557
     47 H          95.0076  -67.5354  -10.1554 H         1 MGK         0.0559
     48 H         106.6904  -70.1447  -10.1867 H         1 MGK         0.0833
     49 H         108.5436  -73.9636   -8.7394 H         1 MGK         0.0577
     50 H         107.7090  -73.0281   -7.4531 H         1 MGK         0.0577
     51 H         109.4810  -72.8496   -7.6873 H         1 MGK         0.0577
     52 H         107.2433  -68.1930  -10.9967 H         1 MGK         0.0421
     53 H         108.8284  -68.5784  -10.2447 H         1 MGK         0.0421
     54 H         107.3338  -64.6765   -7.1590 H         1 MGK         0.2361
     55 H         106.8760  -67.2290   -7.3758 H         1 MGK         0.0729
@<TRIPOS>BOND
     1   27    1 2  
     2    1   28 1  
     3    2    3 am 
     4   20    2 1  
     5    3    4 1  
     6    3   19 2  
     7    4   14 1  
     8   14    5 1  
     9    5   15 1  
    10    6    7 ar 
    11   16    6 1  
    12    6   17 ar 
    13    7    8 ar 
    14    8   18 ar 
    15   17    9 ar 
    16    9   18 ar 
    17   10   12 1  
    18   14   10 1  
    19   12   11 ar 
    20   12   13 ar 
    21   15   16 1  
    22   20   21 1  
    23   25   20 1  
    24   21   22 2  
    25   21   23 1  
    26   23   24 1  
    27   26   25 1  
    28   26   27 1  
    29   26   29 2  
    30   28   29 1  
    31    1   30 1  
    32    2   31 1  
    33    4   32 1  
    34    4   33 1  
    35    5   34 1  
    36    5   35 1  
    37    7   36 1  
    38    8   37 1  
    39    9   38 1  
    40   10   39 1  
    41   10   40 1  
    42   14   41 1  
    43   15   42 1  
    44   15   43 1  
    45   16   44 1  
    46   16   45 1  
    47   17   46 1  
    48   18   47 1  
    49   20   48 1  
    50   24   49 1  
    51   24   50 1  
    52   24   51 1  
    53   25   52 1  
    54   25   53 1  
    55   28   54 1  
    56   29   55 1  
@<TRIPOS>SUBSTRUCTURE
     1 MGK         1

