### 
### Created by X-TOOL on Mon Sep 10 21:13:10 2018
### 

@<TRIPOS>MOLECULE
4dxg_ligand
  107   110     1     0     0
SMALL
GAST_HUCK


@<TRIPOS>ATOM
      1 C1        -12.2810  -23.6900   22.7400 C.2       1 SIA         0.1041
      2 C2        -13.3160  -24.5740   23.4700 C.3       1 SIA         0.2208
      3 C3        -12.8440  -26.0370   23.4110 C.3       1 SIA         0.0353
      4 C4        -11.6560  -26.3200   24.3400 C.3       1 SIA         0.0850
      5 C5        -11.8650  -25.7830   25.7670 C.3       1 SIA         0.0964
      6 C6        -12.3390  -24.3310   25.6730 C.3       1 SIA         0.1143
      7 C7        -12.6660  -23.6710   27.0150 C.3       1 SIA         0.1114
      8 C8        -13.2410  -22.2800   26.7960 C.3       1 SIA         0.1065
      9 C9        -13.3040  -21.4520   28.0920 C.3       1 SIA         0.0727
     10 C10       -10.3170  -26.5690   27.5640 C.2       1 SIA         0.1733
     11 C11        -8.9070  -26.4770   28.0370 C.3       1 SIA         0.0257
     12 N5        -10.5720  -25.8630   26.4550 N.am      1 SIA        -0.2790
     13 O1A       -11.7570  -24.1400   21.6750 O.co2     1 SIA        -0.5426
     14 O1B       -12.0170  -22.5440   23.2050 O.co2     1 SIA        -0.5426
     15 O4        -11.3680  -27.7270   24.4740 O.3       1 SIA        -0.3893
     16 O6        -13.5240  -24.2720   24.8540 O.3       1 SIA        -0.3384
     17 O7        -13.6800  -24.4290   27.6390 O.3       1 SIA        -0.3865
     18 O8        -12.4300  -21.6490   25.7830 O.3       1 SIA        -0.3869
     19 O9        -13.7700  -20.1240   27.7720 O.3       1 SIA        -0.3924
     20 O10       -11.1520  -27.2280   28.1770 O.2       1 SIA        -0.3974
     21 C1        -21.0410  -19.7200   26.3370 C.3       1 NDG         0.1823
     22 C2        -21.1000  -19.4770   24.8300 C.3       1 NDG         0.1211
     23 C3        -20.4020  -20.6080   24.0200 C.3       1 NDG         0.1179
     24 C4        -19.0030  -20.9610   24.5390 C.3       1 NDG         0.1185
     25 C5        -19.0740  -21.2000   26.0460 C.3       1 NDG         0.1134
     26 C6        -17.6740  -21.5840   26.5520 C.3       1 NDG         0.0730
     27 C7        -22.9400  -18.0630   23.9170 C.2       1 NDG         0.1733
     28 C8        -24.3410  -18.0270   23.3250 C.3       1 NDG         0.0257
     29 O         -19.7070  -20.1180   26.7490 O.3       1 NDG        -0.3409
     30 O3        -20.1620  -20.2100   22.6870 O.3       1 NDG        -0.3403
     31 O4        -18.4960  -22.1270   23.8570 O.3       1 NDG        -0.3401
     32 O6        -17.5320  -21.3400   27.9260 O.3       1 NDG        -0.3924
     33 O7        -22.3420  -16.9960   24.0740 O.2       1 NDG        -0.3974
     34 N2        -22.4380  -19.2550   24.2830 N.am      1 NDG        -0.2766
     35 O1L       -21.9490  -20.7370   26.6980 O.3       1 NDG        -0.3651
     36 C1        -17.1260  -21.8970   23.4290 C.3       1 GAL         0.1884
     37 C2        -16.5200  -23.2770   23.2890 C.3       1 GAL         0.1344
     38 C3        -15.0980  -23.1870   22.8180 C.3       1 GAL         0.1197
     39 C4        -15.0410  -22.4230   21.4820 C.3       1 GAL         0.1121
     40 C5        -15.6720  -21.0430   21.6940 C.3       1 GAL         0.1130
     41 C6        -15.7800  -20.3680   20.3500 C.3       1 GAL         0.0730
     42 O2        -16.5070  -23.8710   24.5450 O.3       1 GAL        -0.3841
     43 O3        -14.5830  -24.4960   22.7590 O.3       1 GAL        -0.3380
     44 O4        -15.7310  -23.1090   20.4240 O.3       1 GAL        -0.3865
     45 O5        -16.9890  -21.1600   22.2200 O.3       1 GAL        -0.3405
     46 O6        -16.3050  -19.0670   20.5350 O.3       1 GAL        -0.3924
     47 C1        -21.1040  -20.7100   21.7360 C.3       1 FUC         0.1883
     48 C2        -21.0070  -19.8270   20.5000 C.3       1 FUC         0.1341
     49 C3        -19.7900  -20.1120   19.6870 C.3       1 FUC         0.1140
     50 C4        -19.7480  -21.5700   19.3470 C.3       1 FUC         0.1095
     51 C5        -19.7800  -22.3830   20.6550 C.3       1 FUC         0.0873
     52 C6        -19.7640  -23.8920   20.5170 C.3       1 FUC        -0.0361
     53 O2        -20.8780  -18.4670   20.8370 O.3       1 FUC        -0.3841
     54 O3        -19.9490  -19.3360   18.5200 O.3       1 FUC        -0.3864
     55 O4        -20.8630  -21.7420   18.4540 O.3       1 FUC        -0.3866
     56 O5        -20.9460  -22.0850   21.3980 O.3       1 FUC        -0.3431
     57 H1        -12.5442  -26.2675   22.3781 H         1 SIA         0.0336
     58 H2        -13.6811  -26.6878   23.7038 H         1 SIA         0.0336
     59 H3        -10.7765  -25.8229   23.9048 H         1 SIA         0.0618
     60 H4        -12.6143  -26.3864   26.3004 H         1 SIA         0.0608
     61 H5        -11.5391  -23.7479   25.1933 H         1 SIA         0.0646
     62 H6        -11.7654  -23.6220   27.6446 H         1 SIA         0.0647
     63 H7        -14.2681  -22.3797   26.4151 H         1 SIA         0.0643
     64 H8        -12.3024  -21.3938   28.5429 H         1 SIA         0.0584
     65 H9        -13.9983  -21.9268   28.8009 H         1 SIA         0.0584
     66 H10        -8.7853  -27.0828   28.9471 H         1 SIA         0.0467
     67 H11        -8.6626  -25.4279   28.2596 H         1 SIA         0.0467
     68 H12        -8.2322  -26.8525   27.2537 H         1 SIA         0.0467
     69 H13        -9.8134  -25.3442   26.0608 H         1 SIA         0.1856
     70 H14       -10.5845  -27.8401   24.9993 H         1 SIA         0.2099
     71 H15       -14.4429  -24.4612   27.0739 H         1 SIA         0.2100
     72 H16       -12.4192  -22.1923   25.0037 H         1 SIA         0.2100
     73 H17       -13.8124  -19.6045   28.5663 H         1 SIA         0.2095
     74 H18       -21.3140  -18.7896   26.8565 H         1 SIA         0.0932
     75 H19       -20.5316  -18.5523   24.6515 H         1 SIA         0.0633
     76 H20       -21.0462  -21.4993   24.0438 H         1 SIA         0.0649
     77 H21       -18.3251  -20.1169   24.3440 H         1 SIA         0.0651
     78 H22       -19.7171  -22.0781   26.2048 H         1 SIA         0.0647
     79 H23       -16.9236  -20.9934   26.0061 H         1 SIA         0.0584
     80 H24       -17.5077  -22.6545   26.3614 H         1 SIA         0.0584
     81 H25       -24.7340  -19.0517   23.2504 H         1 SIA         0.0467
     82 H26       -24.3042  -17.5746   22.3230 H         1 SIA         0.0467
     83 H27       -24.9979  -17.4287   23.9735 H         1 SIA         0.0467
     84 H28       -17.6690  -20.4158   28.0982 H         1 SIA         0.2095
     85 H29       -23.0275  -20.0552   24.1722 H         1 SIA         0.1857
     86 H30       -22.8259  -20.4860   26.4324 H         1 SIA         0.2126
     87 H31       -16.5986  -21.3415   24.2185 H         1 SIA         0.0938
     88 H32       -17.1134  -23.8772   22.5836 H         1 SIA         0.0671
     89 H33       -14.5100  -22.6200   23.5547 H         1 SIA         0.0650
     90 H34       -13.9877  -22.3011   21.1893 H         1 SIA         0.0647
     91 H35       -15.0471  -20.4477   22.3760 H         1 SIA         0.0647
     92 H36       -16.4496  -20.9477   19.6977 H         1 SIA         0.0584
     93 H37       -14.7840  -20.3026   19.8878 H         1 SIA         0.0584
     94 H38       -16.1227  -24.7374   24.4804 H         1 SIA         0.2101
     95 H39       -15.3385  -23.9643   20.2939 H         1 SIA         0.2100
     96 H40       -16.3769  -18.6331   19.6930 H         1 SIA         0.2095
     97 H41       -22.1093  -20.5982   22.1683 H         1 SIA         0.0938
     98 H42       -21.9099  -19.9816   19.8910 H         1 SIA         0.0671
     99 H43       -18.8757  -19.8256   20.2274 H         1 SIA         0.0648
    100 H44       -18.8188  -21.8182   18.8131 H         1 SIA         0.0646
    101 H45       -18.8953  -22.0871   21.2379 H         1 SIA         0.0621
    102 H46       -19.7897  -24.3518   21.5160 H         1 SIA         0.0255
    103 H47       -18.8476  -24.2027   19.9939 H         1 SIA         0.0255
    104 H48       -20.6431  -24.2169   19.9411 H         1 SIA         0.0255
    105 H49       -20.8469  -17.9467   20.0428 H         1 SIA         0.2101
    106 H50       -19.2191  -19.4954   17.9332 H         1 SIA         0.2100
    107 H51       -20.7389  -21.1971   17.6857 H         1 SIA         0.2100
@<TRIPOS>BOND
     1    2    1 1  
     2    1   13 ar 
     3    1   14 ar 
     4    2    3 1  
     5    2   16 1  
     6   43    2 1  
     7    3    4 1  
     8    4    5 1  
     9    4   15 1  
    10    6    5 1  
    11    5   12 1  
    12    6    7 1  
    13   16    6 1  
    14    7    8 1  
    15    7   17 1  
    16    8    9 1  
    17    8   18 1  
    18    9   19 1  
    19   10   11 1  
    20   12   10 am 
    21   10   20 2  
    22   22   21 1  
    23   29   21 1  
    24   21   35 1  
    25   23   22 1  
    26   22   34 1  
    27   24   23 1  
    28   23   30 1  
    29   24   25 1  
    30   31   24 1  
    31   25   26 1  
    32   25   29 1  
    33   26   32 1  
    34   27   28 1  
    35   27   33 2  
    36   34   27 am 
    37   30   47 1  
    38   36   31 1  
    39   37   36 1  
    40   36   45 1  
    41   38   37 1  
    42   37   42 1  
    43   38   39 1  
    44   38   43 1  
    45   39   40 1  
    46   39   44 1  
    47   40   41 1  
    48   40   45 1  
    49   41   46 1  
    50   47   48 1  
    51   47   56 1  
    52   48   49 1  
    53   48   53 1  
    54   49   50 1  
    55   49   54 1  
    56   50   51 1  
    57   50   55 1  
    58   51   52 1  
    59   51   56 1  
    60    3   57 1  
    61    3   58 1  
    62    4   59 1  
    63    5   60 1  
    64    6   61 1  
    65    7   62 1  
    66    8   63 1  
    67    9   64 1  
    68    9   65 1  
    69   11   66 1  
    70   11   67 1  
    71   11   68 1  
    72   12   69 1  
    73   15   70 1  
    74   17   71 1  
    75   18   72 1  
    76   19   73 1  
    77   21   74 1  
    78   22   75 1  
    79   23   76 1  
    80   24   77 1  
    81   25   78 1  
    82   26   79 1  
    83   26   80 1  
    84   28   81 1  
    85   28   82 1  
    86   28   83 1  
    87   32   84 1  
    88   34   85 1  
    89   35   86 1  
    90   36   87 1  
    91   37   88 1  
    92   38   89 1  
    93   39   90 1  
    94   40   91 1  
    95   41   92 1  
    96   41   93 1  
    97   42   94 1  
    98   44   95 1  
    99   46   96 1  
   100   47   97 1  
   101   48   98 1  
   102   49   99 1  
   103   50  100 1  
   104   51  101 1  
   105   52  102 1  
   106   52  103 1  
   107   52  104 1  
   108   53  105 1  
   109   54  106 1  
   110   55  107 1  
@<TRIPOS>SUBSTRUCTURE
     1 SIA         1

