### 
### Created by X-TOOL on Mon Sep 10 21:13:15 2018
### 

@<TRIPOS>MOLECULE
4dzy_ligand
   20    20     1     0     0
SMALL
GAST_HUCK


@<TRIPOS>ATOM
      1 O2         -6.9060  -32.7550   13.4570 O.co2     1 WJ1        -0.5673
      2 C9         -7.6960  -31.8640   13.6720 C.2       1 WJ1         0.0545
      3 O1         -8.3340  -31.3040   12.6360 O.co2     1 WJ1        -0.5673
      4 C8         -7.9540  -31.4330   15.0790 C.3       1 WJ1         0.0957
      5 CL1        -8.3260  -29.6840   15.0330 Cl        1 WJ1        -0.1026
      6 C7         -9.1130  -32.2520   15.6920 C.3       1 WJ1         0.0089
      7 C6         -9.0450  -32.1140   17.1980 C.ar      1 WJ1        -0.0400
      8 C1         -9.8720  -31.2100   17.8500 C.ar      1 WJ1        -0.0602
      9 C5         -8.1450  -32.8780   17.9340 C.ar      1 WJ1        -0.0602
     10 C4         -8.0660  -32.7250   19.3160 C.ar      1 WJ1        -0.0686
     11 C3         -8.8890  -31.8140   19.9750 C.ar      1 WJ1        -0.0687
     12 C2         -9.7910  -31.0580   19.2350 C.ar      1 WJ1        -0.0686
     13 H1         -7.0507  -31.5960   15.6851 H         1 WJ1         0.0656
     14 H2         -9.0109  -33.3103   15.4101 H         1 WJ1         0.0458
     15 H3        -10.0759  -31.8663   15.3259 H         1 WJ1         0.0458
     16 H4        -10.5826  -30.6205   17.2821 H         1 WJ1         0.0557
     17 H5         -7.5043  -33.5934   17.4311 H         1 WJ1         0.0557
     18 H6         -7.3588  -33.3192   19.8834 H         1 WJ1         0.0599
     19 H7         -8.8268  -31.6963   21.0508 H         1 WJ1         0.0559
     20 H8        -10.4357  -30.3457   19.7371 H         1 WJ1         0.0599
@<TRIPOS>BOND
     1    1    2 ar 
     2    2    3 ar 
     3    2    4 1  
     4    4    5 1  
     5    4    6 1  
     6    6    7 1  
     7    7    8 ar 
     8    7    9 ar 
     9    8   12 ar 
    10    9   10 ar 
    11   10   11 ar 
    12   11   12 ar 
    13    4   13 1  
    14    6   14 1  
    15    6   15 1  
    16    8   16 1  
    17    9   17 1  
    18   10   18 1  
    19   11   19 1  
    20   12   20 1  
@<TRIPOS>SUBSTRUCTURE
     1 WJ1         1

