### 
### Created by X-TOOL on Mon Sep 10 21:13:09 2018
### 

@<TRIPOS>MOLECULE
4e0w_ligand
   29    29     1     0     0
SMALL
GAST_HUCK


@<TRIPOS>ATOM
      1 N          -4.3820   30.2990  -14.0720 N.4       1 KAI         0.2433
      2 CD         -4.8380   30.5280  -15.4770 C.3       1 KAI        -0.0169
      3 CD1        -2.8190   29.2150  -18.6510 C.3       1 KAI        -0.0295
      4 CD2        -5.2580   29.4440  -18.2750 C.2       1 KAI        -0.1288
      5 CA         -2.9540   29.7370  -14.1270 C.3       1 KAI         0.0373
      6 CB         -2.9180   29.0570  -15.5050 C.3       1 KAI         0.0449
      7 CB1        -3.6150   27.6820  -15.4730 C.3       1 KAI         0.0124
      8 CG         -3.6760   30.0870  -16.3860 C.3       1 KAI         0.0446
      9 CG1        -2.8200   26.5310  -14.8680 C.2       1 KAI         0.0356
     10 CG2        -4.0090   29.5850  -17.7900 C.2       1 KAI        -0.0678
     11 C          -1.8590   30.8510  -13.9620 C.2       1 KAI         0.0851
     12 O          -2.3120   31.9300  -13.4680 O.co2     1 KAI        -0.5642
     13 OD1        -3.5350   25.5870  -14.4050 O.co2     1 KAI        -0.5690
     14 OD2        -1.5550   26.6120  -14.8650 O.co2     1 KAI        -0.5690
     15 OXT        -0.6780   30.6080  -14.3200 O.co2     1 KAI        -0.5642
     16 H1         -4.9928   29.6390  -13.6166 H         1 KAI         0.2032
     17 H2         -4.3885   31.1692  -13.5633 H         1 KAI         0.2032
     18 H3         -5.0626   31.5931  -15.6357 H         1 KAI         0.0845
     19 H4         -5.7356   29.9285  -15.6886 H         1 KAI         0.0845
     20 H5         -3.1711   28.8689  -19.6339 H         1 KAI         0.0425
     21 H6         -2.2484   28.4116  -18.1622 H         1 KAI         0.0425
     22 H7         -2.1733   30.0958  -18.7822 H         1 KAI         0.0425
     23 H8         -6.1150   29.7094  -17.6577 H         1 KAI         0.0075
     24 H9         -5.4106   29.0646  -19.2843 H         1 KAI         0.0075
     25 H10        -2.8074   28.9911  -13.3320 H         1 KAI         0.1031
     26 H11        -1.8837   28.9264  -15.8559 H         1 KAI         0.0424
     27 H12        -3.8629   27.4087  -16.5092 H         1 KAI         0.0438
     28 H13        -4.5418   27.7905  -14.8906 H         1 KAI         0.0438
     29 H14        -3.0238   30.9600  -16.5358 H         1 KAI         0.0554
@<TRIPOS>BOND
     1    2    1 1  
     2    5    1 1  
     3    8    2 1  
     4   10    3 1  
     5   10    4 2  
     6    6    5 1  
     7    5   11 1  
     8    6    7 1  
     9    8    6 1  
    10    7    9 1  
    11    8   10 1  
    12    9   13 ar 
    13    9   14 ar 
    14   11   12 ar 
    15   11   15 ar 
    16    1   16 1  
    17    1   17 1  
    18    2   18 1  
    19    2   19 1  
    20    3   20 1  
    21    3   21 1  
    22    3   22 1  
    23    4   23 1  
    24    4   24 1  
    25    5   25 1  
    26    6   26 1  
    27    7   27 1  
    28    7   28 1  
    29    8   29 1  
@<TRIPOS>SUBSTRUCTURE
     1 KAI         1

