### 
### Created by X-TOOL on Mon Sep 10 21:13:09 2018
### 

@<TRIPOS>MOLECULE
4e0x_ligand
   29    29     1     0     0
SMALL
GAST_HUCK


@<TRIPOS>ATOM
      1 N          -1.0010   33.9300  105.1160 N.4       1 KAI         0.2433
      2 CD         -0.2730   33.4800  103.8940 C.3       1 KAI        -0.0169
      3 CD1        -0.8970   34.9250  100.2650 C.3       1 KAI        -0.0295
      4 CD2         1.1020   33.8750  101.3370 C.2       1 KAI        -0.1288
      5 CA         -2.0260   34.9940  104.7060 C.3       1 KAI         0.0373
      6 CB         -1.5320   35.4610  103.3190 C.3       1 KAI         0.0449
      7 CB1        -0.4430   36.5550  103.4010 C.3       1 KAI         0.0124
      8 CG         -0.9960   34.1370  102.7120 C.3       1 KAI         0.0446
      9 CG1        -0.9270   37.9700  103.7000 C.2       1 KAI         0.0356
     10 CG2        -0.1820   34.2810  101.4390 C.2       1 KAI        -0.0678
     11 C          -3.4730   34.3790  104.6920 C.2       1 KAI         0.0851
     12 O          -3.5340   33.2340  105.2410 O.co2     1 KAI        -0.5642
     13 OD1        -0.0120   38.7730  104.0680 O.co2     1 KAI        -0.5690
     14 OD2        -2.1640   38.2200  103.5730 O.co2     1 KAI        -0.5690
     15 OXT        -4.4110   35.0340  104.1600 O.co2     1 KAI        -0.5642
     16 H1         -0.3480   34.3231  105.7757 H         1 KAI         0.2032
     17 H2         -1.4743   33.1464  105.5380 H         1 KAI         0.2032
     18 H3         -0.3126   32.3842  103.8061 H         1 KAI         0.0845
     19 H4          0.7765   33.8073  103.9309 H         1 KAI         0.0845
     20 H5         -0.2147   34.9766   99.4037 H         1 KAI         0.0425
     21 H6         -1.2152   35.9409  100.5419 H         1 KAI         0.0425
     22 H7         -1.7791   34.3242   99.9985 H         1 KAI         0.0425
     23 H8          1.5971   33.4151  102.1910 H         1 KAI         0.0075
     24 H9          1.6422   34.0075  100.4008 H         1 KAI         0.0075
     25 H10        -2.0110   35.8379  105.4113 H         1 KAI         0.1031
     26 H11        -2.3705   35.8493  102.7223 H         1 KAI         0.0424
     27 H12         0.0824   36.5778  102.4349 H         1 KAI         0.0438
     28 H13         0.2618   36.2673  104.1950 H         1 KAI         0.0438
     29 H14        -1.8582   33.5081  102.4454 H         1 KAI         0.0554
@<TRIPOS>BOND
     1    2    1 1  
     2    5    1 1  
     3    8    2 1  
     4   10    3 1  
     5   10    4 2  
     6    6    5 1  
     7    5   11 1  
     8    6    7 1  
     9    8    6 1  
    10    7    9 1  
    11    8   10 1  
    12    9   13 ar 
    13    9   14 ar 
    14   11   12 ar 
    15   11   15 ar 
    16    1   16 1  
    17    1   17 1  
    18    2   18 1  
    19    2   19 1  
    20    3   20 1  
    21    3   21 1  
    22    3   22 1  
    23    4   23 1  
    24    4   24 1  
    25    5   25 1  
    26    6   26 1  
    27    7   27 1  
    28    7   28 1  
    29    8   29 1  
@<TRIPOS>SUBSTRUCTURE
     1 KAI         1

