### 
### Created by X-TOOL on Mon Sep 10 21:13:16 2018
### 

@<TRIPOS>MOLECULE
4e1k_ligand
   47    50     1     0     0
SMALL
GAST_HUCK


@<TRIPOS>ATOM
      1 C1         28.8980    3.5580   85.2210 C.3       1 0N5         0.0583
      2 O1         30.2190    3.7160   85.7240 O.3       1 0N5        -0.3200
      3 C2         30.2570    3.7720   87.1150 C.ar      1 0N5         0.1314
      4 C3         29.1570    3.8180   87.9530 C.ar      1 0N5        -0.0174
      5 C4         29.3390    3.8700   89.3290 C.ar      1 0N5         0.0385
      6 C5         30.6120    3.8780   89.8810 C.ar      1 0N5         0.0259
      7 C6         31.7000    3.8330   89.0330 C.ar      1 0N5        -0.0173
      8 C7         31.5180    3.7830   87.6710 C.ar      1 0N5         0.1289
      9 O2         32.6110    3.7420   86.8440 O.3       1 0N5        -0.3281
     10 N1         30.8110    3.9250   91.2040 N.ar      1 0N5        -0.3061
     11 C8         29.7140    3.9640   91.9640 C.ar      1 0N5         0.0518
     12 N2         28.4500    3.9660   91.5350 N.ar      1 0N5        -0.2620
     13 C9         28.2650    3.9160   90.2060 C.ar      1 0N5         0.1478
     14 N3         26.9420    3.9100   89.6990 N.pl3     1 0N5        -0.2564
     15 C10        25.8260    4.0230   90.5540 C.ar      1 0N5         0.0540
     16 C11        25.6720    3.2170   91.6690 C.ar      1 0N5        -0.0490
     17 C12        24.5750    3.3470   92.5010 C.ar      1 0N5        -0.0485
     18 C13        23.6080    4.2910   92.2220 C.ar      1 0N5         0.0563
     19 C14        23.7550    5.0850   91.1050 C.ar      1 0N5        -0.0485
     20 C15        24.8530    4.9560   90.2790 C.ar      1 0N5        -0.0490
     21 N4         22.4640    4.4630   93.0390 N.am      1 0N5        -0.2388
     22 C16        22.5050    4.3480   94.4100 C.2       1 0N5         0.2298
     23 O3         23.5010    4.1010   95.0770 O.2       1 0N5        -0.3743
     24 C17        21.2110    4.5460   95.0960 C.ar      1 0N5         0.0554
     25 C18        20.0370    4.1510   94.4910 C.ar      1 0N5        -0.0416
     26 C19        18.8410    4.3460   95.1480 C.ar      1 0N5        -0.0562
     27 C20        18.8220    4.9300   96.3990 C.ar      1 0N5        -0.0576
     28 C21        20.0030    5.3200   97.0010 C.ar      1 0N5        -0.0562
     29 C22        21.2020    5.1270   96.3470 C.ar      1 0N5        -0.0416
     30 H1         28.9263    3.5199   84.1220 H         1 0N5         0.0575
     31 H2         28.2790    4.4085   85.5426 H         1 0N5         0.0575
     32 H3         28.4671    2.6234   85.6093 H         1 0N5         0.0575
     33 H4         28.1561    3.8135   87.5369 H         1 0N5         0.0546
     34 H5         32.7035    3.8371   89.4430 H         1 0N5         0.0495
     35 H6         33.1262    2.9683   87.0400 H         1 0N5         0.2492
     36 H7         29.8649    3.9974   93.0369 H         1 0N5         0.1015
     37 H8         26.7919    3.8212   88.6839 H         1 0N5         0.2180
     38 H9         26.4250    2.4704   91.8940 H         1 0N5         0.0509
     39 H10        24.4749    2.7082   93.3711 H         1 0N5         0.0481
     40 H11        22.9959    5.8227   90.8715 H         1 0N5         0.0481
     41 H12        24.9495    5.5939   89.4079 H         1 0N5         0.0509
     42 H13        21.5904    4.6768   92.6018 H         1 0N5         0.2222
     43 H14        20.0542    3.6920   93.5091 H         1 0N5         0.0669
     44 H15        17.9120    4.0397   94.6808 H         1 0N5         0.0629
     45 H16        17.8783    5.0829   96.9101 H         1 0N5         0.0652
     46 H17        19.9873    5.7762   97.9842 H         1 0N5         0.0629
     47 H18        22.1322    5.4303   96.8137 H         1 0N5         0.0669
@<TRIPOS>BOND
     1    1    2 1  
     2    2    3 1  
     3    3    4 ar 
     4    3    8 ar 
     5    4    5 ar 
     6    5    6 ar 
     7    5   13 ar 
     8    6    7 ar 
     9    6   10 ar 
    10    7    8 ar 
    11    8    9 1  
    12   10   11 ar 
    13   11   12 ar 
    14   12   13 ar 
    15   13   14 1  
    16   14   15 1  
    17   15   16 ar 
    18   15   20 ar 
    19   16   17 ar 
    20   17   18 ar 
    21   18   19 ar 
    22   18   21 1  
    23   19   20 ar 
    24   21   22 am 
    25   22   23 2  
    26   22   24 1  
    27   24   25 ar 
    28   24   29 ar 
    29   25   26 ar 
    30   26   27 ar 
    31   27   28 ar 
    32   28   29 ar 
    33    1   30 1  
    34    1   31 1  
    35    1   32 1  
    36    4   33 1  
    37    7   34 1  
    38    9   35 1  
    39   11   36 1  
    40   14   37 1  
    41   16   38 1  
    42   17   39 1  
    43   19   40 1  
    44   20   41 1  
    45   21   42 1  
    46   25   43 1  
    47   26   44 1  
    48   27   45 1  
    49   28   46 1  
    50   29   47 1  
@<TRIPOS>SUBSTRUCTURE
     1 0N5         1

