### 
### Created by X-TOOL on Mon Sep 10 21:13:11 2018
### 

@<TRIPOS>MOLECULE
4e1m_ligand
   54    56     1     0     0
SMALL
GAST_HUCK


@<TRIPOS>ATOM
      1 C01        24.3160   17.7770   -5.7660 C.ar      1 TQ2        -0.0471
      2 C02        24.8490   16.5400   -5.3740 C.ar      1 TQ2         0.0299
      3 C03        26.2250   16.4280   -5.1080 C.ar      1 TQ2         0.0000
      4 C04        27.0240   17.5950   -5.2590 C.ar      1 TQ2        -0.0527
      5 C05        26.4830   18.8210   -5.6570 C.ar      1 TQ2        -0.0612
      6 C06        25.1200   18.9070   -5.9140 C.ar      1 TQ2        -0.0612
      7 N07        24.0120   15.5040   -5.2550 N.ar      1 TQ2        -0.3070
      8 C08        24.4680   14.2850   -4.8770 C.ar      1 TQ2         0.0303
      9 C09        25.8220   14.0390   -4.5800 C.ar      1 TQ2         0.0380
     10 C10        26.7160   15.1400   -4.7000 C.ar      1 TQ2         0.0041
     11 C11        23.3720   13.2580   -4.8090 C.3       1 TQ2        -0.0152
     12 C12        28.1540   14.9390   -4.4010 C.ar      1 TQ2        -0.0258
     13 C13        26.3460   12.6600   -4.1730 C.3       1 TQ2         0.1497
     14 O14        25.8530   11.6870   -5.0990 O.3       1 TQ2        -0.3444
     15 C15        29.1240   14.9430   -5.4090 C.ar      1 TQ2        -0.0653
     16 C16        30.4720   14.7290   -5.0960 C.ar      1 TQ2        -0.0643
     17 C17        30.8780   14.5200   -3.7740 C.ar      1 TQ2        -0.0421
     18 C18        29.9180   14.5100   -2.7510 C.ar      1 TQ2        -0.0421
     19 C19        28.5670   14.7190   -3.0710 C.ar      1 TQ2        -0.0576
     20 C20        32.3380   14.3120   -3.4720 C.3       1 TQ2        -0.0325
     21 C21        30.3120   14.2910   -1.3150 C.3       1 TQ2        -0.0332
     22 C22        26.5200   11.3790   -6.3330 C.3       1 TQ2         0.0663
     23 C23        26.1620   12.5080   -7.3080 C.3       1 TQ2        -0.0360
     24 C24        28.0520   11.3200   -6.1600 C.3       1 TQ2        -0.0360
     25 C25        25.9840   10.0680   -6.9210 C.3       1 TQ2        -0.0360
     26 C26        25.8850   12.2250   -2.7940 C.2       1 TQ2         0.0763
     27 O27        25.6970   11.0670   -2.4530 O.co2     1 TQ2        -0.5639
     28 O28        25.6930   13.2790   -1.9720 O.co2     1 TQ2        -0.5639
     29 H1         23.2522   17.8566   -5.9588 H         1 TQ2         0.0614
     30 H2         28.0875   17.5316   -5.0589 H         1 TQ2         0.0628
     31 H3         27.1182   19.6929   -5.7637 H         1 TQ2         0.0612
     32 H4         24.6836   19.8482   -6.2281 H         1 TQ2         0.0624
     33 H5         23.7945   12.2909   -4.4988 H         1 TQ2         0.0424
     34 H6         22.9054   13.1535   -5.7996 H         1 TQ2         0.0424
     35 H7         22.6143   13.5782   -4.0787 H         1 TQ2         0.0424
     36 H8         27.4456   12.6791   -4.1960 H         1 TQ2         0.0932
     37 H9         28.8304   15.1128   -6.4386 H         1 TQ2         0.0561
     38 H10        31.2109   14.7253   -5.8891 H         1 TQ2         0.0545
     39 H11        27.8264   14.7111   -2.2794 H         1 TQ2         0.0550
     40 H12        32.9157   14.3564   -4.4070 H         1 TQ2         0.0382
     41 H13        32.4784   13.3281   -3.0006 H         1 TQ2         0.0382
     42 H14        32.6868   15.0995   -2.7878 H         1 TQ2         0.0382
     43 H15        31.4005   14.1455   -1.2516 H         1 TQ2         0.0376
     44 H16        29.7996   13.3987   -0.9261 H         1 TQ2         0.0376
     45 H17        30.0240   15.1687   -0.7178 H         1 TQ2         0.0376
     46 H18        26.6487   12.3236   -8.2771 H         1 TQ2         0.0257
     47 H19        26.5094   13.4687   -6.9001 H         1 TQ2         0.0257
     48 H20        25.0712   12.5412   -7.4460 H         1 TQ2         0.0257
     49 H21        28.5212   11.0822   -7.1261 H         1 TQ2         0.0257
     50 H22        28.3085   10.5415   -5.4264 H         1 TQ2         0.0257
     51 H23        28.4186   12.2942   -5.8043 H         1 TQ2         0.0257
     52 H24        26.5058    9.8489   -7.8642 H         1 TQ2         0.0257
     53 H25        24.9053   10.1662   -7.1129 H         1 TQ2         0.0257
     54 H26        26.1565    9.2486   -6.2077 H         1 TQ2         0.0257
@<TRIPOS>BOND
     1    1    2 ar 
     2    1    6 ar 
     3    2    3 ar 
     4    2    7 ar 
     5    3    4 ar 
     6    3   10 ar 
     7    4    5 ar 
     8    5    6 ar 
     9    7    8 ar 
    10    8    9 ar 
    11    8   11 1  
    12    9   10 ar 
    13    9   13 1  
    14   10   12 1  
    15   12   15 ar 
    16   12   19 ar 
    17   13   14 1  
    18   13   26 1  
    19   14   22 1  
    20   15   16 ar 
    21   16   17 ar 
    22   17   18 ar 
    23   17   20 1  
    24   18   19 ar 
    25   18   21 1  
    26   22   23 1  
    27   22   24 1  
    28   22   25 1  
    29   26   27 ar 
    30   26   28 ar 
    31    1   29 1  
    32    4   30 1  
    33    5   31 1  
    34    6   32 1  
    35   11   33 1  
    36   11   34 1  
    37   11   35 1  
    38   13   36 1  
    39   15   37 1  
    40   16   38 1  
    41   19   39 1  
    42   20   40 1  
    43   20   41 1  
    44   20   42 1  
    45   21   43 1  
    46   21   44 1  
    47   21   45 1  
    48   23   46 1  
    49   23   47 1  
    50   23   48 1  
    51   24   49 1  
    52   24   50 1  
    53   24   51 1  
    54   25   52 1  
    55   25   53 1  
    56   25   54 1  
@<TRIPOS>SUBSTRUCTURE
     1 TQ2         1

