### 
### Created by X-TOOL on Mon Sep 10 21:13:11 2018
### 

@<TRIPOS>MOLECULE
4e1n_ligand
   59    62     1     0     0
SMALL
GAST_HUCK


@<TRIPOS>ATOM
      1 C01        -8.5250   50.1080  -16.6170 C.ar      1 TQX        -0.0479
      2 C02        -9.3210   49.0140  -16.2390 C.ar      1 TQX         0.0276
      3 C03        -8.7280   47.7440  -16.0610 C.ar      1 TQX        -0.0021
      4 C04        -7.3300   47.6190  -16.2840 C.ar      1 TQX        -0.0533
      5 C05        -6.5440   48.7200  -16.6590 C.ar      1 TQX        -0.0616
      6 C06        -7.1490   49.9690  -16.8240 C.ar      1 TQX        -0.0617
      7 N07       -10.6360   49.2210  -16.0570 N.ar      1 TQX        -0.3102
      8 C08       -11.4500   48.2000  -15.6880 C.ar      1 TQX         0.0271
      9 C09       -10.9700   46.8880  -15.4940 C.ar      1 TQX         0.0344
     10 C10        -9.5830   46.6660  -15.6750 C.ar      1 TQX        -0.0023
     11 C11       -12.8940   48.6110  -15.5220 C.3       1 TQX        -0.0159
     12 C12        -9.0530   45.2890  -15.4710 C.ar      1 TQX        -0.0276
     13 C13       -11.8590   45.7220  -15.0730 C.3       1 TQX         0.1484
     14 O14       -13.0520   45.6110  -15.8470 O.3       1 TQX        -0.3449
     15 C15        -9.0260   44.3960  -16.5610 C.ar      1 TQX        -0.0385
     16 C16        -8.5480   43.1060  -16.3960 C.ar      1 TQX         0.1498
     17 C17        -8.1010   42.6550  -15.1590 C.ar      1 TQX         0.1236
     18 C18        -8.1170   43.5090  -14.0520 C.ar      1 TQX        -0.0095
     19 C19        -8.5990   44.8400  -14.2000 C.ar      1 TQX        -0.0438
     20 O20        -7.6580   41.3550  -15.1360 O.3       1 TQX        -0.3207
     21 C21        -7.1870   40.7780  -13.9050 C.3       1 TQX         0.0702
     22 C22        -7.5620   41.4810  -12.6160 C.3       1 TQX        -0.0182
     23 C23        -7.6150   43.0040  -12.7210 C.3       1 TQX        -0.0215
     24 C24        -8.6230   45.7770  -13.0100 C.3       1 TQX        -0.0356
     25 C25       -13.0760   44.9140  -17.1010 C.3       1 TQX         0.0662
     26 C26       -14.5780   44.7940  -17.4420 C.3       1 TQX        -0.0360
     27 C27       -12.3760   45.7110  -18.1990 C.3       1 TQX        -0.0360
     28 C28       -12.4950   43.4900  -17.0000 C.3       1 TQX        -0.0360
     29 F29        -8.5320   42.2830  -17.4600 F         1 TQX        -0.1964
     30 C30       -12.2920   45.9840  -13.6320 C.2       1 TQX         0.0758
     31 O31       -11.6800   46.6580  -12.8070 O.co2     1 TQX        -0.5640
     32 O32       -13.4760   45.3940  -13.3380 O.co2     1 TQX        -0.5640
     33 H1         -8.9867   51.0796  -16.7509 H         1 TQX         0.0610
     34 H2         -6.8593   46.6502  -16.1616 H         1 TQX         0.0628
     35 H3         -5.4783   48.6026  -16.8190 H         1 TQX         0.0607
     36 H4         -6.5532   50.8277  -17.1117 H         1 TQX         0.0623
     37 H5        -13.4919   47.7372  -15.2237 H         1 TQX         0.0423
     38 H6        -13.2743   49.0075  -16.4750 H         1 TQX         0.0423
     39 H7        -12.9674   49.3875  -14.7464 H         1 TQX         0.0423
     40 H8        -11.2884   44.7843  -15.1434 H         1 TQX         0.0926
     41 H9         -9.3808   44.7198  -17.5328 H         1 TQX         0.0522
     42 H10        -6.0886   40.7451  -13.9552 H         1 TQX         0.0613
     43 H11        -7.5824   39.7531  -13.8487 H         1 TQX         0.0613
     44 H12        -6.8190   41.2145  -11.8499 H         1 TQX         0.0309
     45 H13        -8.5543   41.1228  -12.3047 H         1 TQX         0.0309
     46 H14        -8.2828   43.3823  -11.9330 H         1 TQX         0.0387
     47 H15        -6.6002   43.3975  -12.5618 H         1 TQX         0.0387
     48 H16        -9.0254   46.7528  -13.3197 H         1 TQX         0.0376
     49 H17        -7.6008   45.9074  -12.6253 H         1 TQX         0.0376
     50 H18        -9.2603   45.3514  -12.2209 H         1 TQX         0.0376
     51 H19       -14.6955   44.2662  -18.3999 H         1 TQX         0.0257
     52 H20       -15.0175   45.7993  -17.5210 H         1 TQX         0.0257
     53 H21       -15.0905   44.2311  -16.6480 H         1 TQX         0.0257
     54 H22       -12.4143   45.1470  -19.1426 H         1 TQX         0.0257
     55 H23       -11.3268   45.8815  -17.9162 H         1 TQX         0.0257
     56 H24       -12.8826   46.6787  -18.3294 H         1 TQX         0.0257
     57 H25       -12.5388   43.0053  -17.9865 H         1 TQX         0.0257
     58 H26       -13.0826   42.9046  -16.2775 H         1 TQX         0.0257
     59 H27       -11.4490   43.5437  -16.6640 H         1 TQX         0.0257
@<TRIPOS>BOND
     1    1    2 ar 
     2    1    6 ar 
     3    2    3 ar 
     4    2    7 ar 
     5    3    4 ar 
     6    3   10 ar 
     7    4    5 ar 
     8    5    6 ar 
     9    7    8 ar 
    10    8    9 ar 
    11    8   11 1  
    12    9   10 ar 
    13    9   13 1  
    14   10   12 1  
    15   12   15 ar 
    16   12   19 ar 
    17   13   14 1  
    18   13   30 1  
    19   14   25 1  
    20   15   16 ar 
    21   16   17 ar 
    22   16   29 1  
    23   17   18 ar 
    24   17   20 1  
    25   18   19 ar 
    26   18   23 1  
    27   19   24 1  
    28   20   21 1  
    29   21   22 1  
    30   22   23 1  
    31   25   26 1  
    32   25   27 1  
    33   25   28 1  
    34   30   31 ar 
    35   30   32 ar 
    36    1   33 1  
    37    4   34 1  
    38    5   35 1  
    39    6   36 1  
    40   11   37 1  
    41   11   38 1  
    42   11   39 1  
    43   13   40 1  
    44   15   41 1  
    45   21   42 1  
    46   21   43 1  
    47   22   44 1  
    48   22   45 1  
    49   23   46 1  
    50   23   47 1  
    51   24   48 1  
    52   24   49 1  
    53   24   50 1  
    54   26   51 1  
    55   26   52 1  
    56   26   53 1  
    57   27   54 1  
    58   27   55 1  
    59   27   56 1  
    60   28   57 1  
    61   28   58 1  
    62   28   59 1  
@<TRIPOS>SUBSTRUCTURE
     1 TQX         1

