### 
### Created by X-TOOL on Mon Sep 10 21:13:10 2018
### 

@<TRIPOS>MOLECULE
4e1z_ligand
   51    55     1     0     0
SMALL
GAST_HUCK


@<TRIPOS>ATOM
      1 C1         31.9500  -13.6710   27.3340 C.ar      1 0MX        -0.0272
      2 N1         30.4020  -17.4520   28.0310 N.2       1 0MX        -0.4524
      3 O1         35.4980   -7.9940   27.8920 O.2       1 0MX        -0.1444
      4 S1         34.8510   -7.5930   26.6580 S.o2      1 0MX         0.0903
      5 CL1        30.5300   -7.2960   29.4990 Cl        1 0MX        -0.0706
      6 C2         30.5800  -13.8630   27.0530 C.ar      1 0MX        -0.0588
      7 N2         31.5440  -18.1480   28.4480 N.pl3     1 0MX        -0.2597
      8 O2         35.6770   -6.6130   26.0050 O.2       1 0MX        -0.1444
      9 C3         29.9650  -15.1050   27.2710 C.ar      1 0MX        -0.0692
     10 N3         33.8030  -17.7590   28.8160 N.am      1 0MX        -0.1549
     11 O3         35.1350  -15.9610   28.6480 O.2       1 0MX        -0.3638
     12 C4         32.7150  -14.7810   27.7460 C.ar      1 0MX        -0.0360
     13 N4         34.6140   -8.8960   25.7370 N.am      1 0MX        -0.1851
     14 O4         36.3200  -19.0940   29.1090 O.3       1 0MX        -0.2493
     15 C5         32.1130  -16.0300   27.9680 C.ar      1 0MX         0.0749
     16 C6         30.7370  -16.1840   27.7360 C.ar      1 0MX        -0.0592
     17 C7         32.5670  -17.2900   28.4030 C.2       1 0MX         0.2656
     18 C8         32.6670  -12.3910   27.0070 C.ar      1 0MX        -0.0338
     19 C9         32.1520  -11.5850   25.9740 C.ar      1 0MX        -0.0683
     20 C10        32.7900  -10.4140   25.5600 C.ar      1 0MX        -0.0429
     21 C11        33.9940  -10.0370   26.1590 C.ar      1 0MX         0.0655
     22 C12        34.5360  -10.8550   27.1760 C.ar      1 0MX        -0.0429
     23 C13        33.8920  -12.0250   27.5920 C.ar      1 0MX        -0.0683
     24 C14        33.3810   -6.9770   26.9380 C.ar      1 0MX         0.1148
     25 C15        32.8110   -6.0730   26.0300 C.ar      1 0MX        -0.0344
     26 C16        31.5210   -5.5730   26.2460 C.ar      1 0MX        -0.0594
     27 C17        30.7930   -5.9640   27.3660 C.ar      1 0MX        -0.0477
     28 C18        31.3470   -6.8490   28.2950 C.ar      1 0MX         0.0423
     29 C19        32.6260   -7.3780   28.0580 C.ar      1 0MX        -0.0206
     30 C20        34.9980  -17.1330   28.9060 C.2       1 0MX         0.2874
     31 C21        36.3030  -17.8280   29.1900 C.2       1 0MX         0.1972
     32 C22        37.7150  -19.5290   29.3340 C.2       1 0MX         0.0868
     33 C23        38.4440  -18.3630   29.4770 C.2       1 0MX        -0.0555
     34 C24        37.5790  -17.2970   29.3580 C.2       1 0MX        -0.0424
     35 H1         29.9944  -13.0384   26.6629 H         1 0MX         0.0600
     36 H2         31.5869  -19.1362   28.7354 H         1 0MX         0.2461
     37 H3         28.9050  -15.2314   27.0827 H         1 0MX         0.0605
     38 H4         33.8133  -18.7197   29.0936 H         1 0MX         0.2685
     39 H5         33.7830  -14.6688   27.8935 H         1 0MX         0.0616
     40 H6         34.9434   -8.8661   24.7933 H         1 0MX         0.2183
     41 H7         31.2316  -11.8827   25.4848 H         1 0MX         0.0586
     42 H8         32.3538   -9.8017   24.7790 H         1 0MX         0.0491
     43 H9         35.4712  -10.5695   27.6439 H         1 0MX         0.0491
     44 H10        34.3352  -12.6465   28.3617 H         1 0MX         0.0586
     45 H11        33.3717   -5.7598   25.1567 H         1 0MX         0.0639
     46 H12        31.0869   -4.8775   25.5369 H         1 0MX         0.0618
     47 H13        29.7908   -5.5800   27.5185 H         1 0MX         0.0623
     48 H14        33.0387   -8.1059   28.7471 H         1 0MX         0.0643
     49 H15        38.0889  -20.5509   29.3778 H         1 0MX         0.1040
     50 H16        39.5167  -18.2982   29.6533 H         1 0MX         0.0365
     51 H17        37.8430  -16.2409   29.3894 H         1 0MX         0.0435
@<TRIPOS>BOND
     1    1    6 ar 
     2   12    1 ar 
     3    1   18 1  
     4    7    2 1  
     5   16    2 2  
     6    4    3 2  
     7    4    8 2  
     8   13    4 am 
     9    4   24 1  
    10   28    5 1  
    11    9    6 ar 
    12   17    7 1  
    13   16    9 ar 
    14   10   17 1  
    15   30   10 am 
    16   30   11 2  
    17   15   12 ar 
    18   21   13 1  
    19   31   14 1  
    20   14   32 1  
    21   15   16 ar 
    22   17   15 2  
    23   18   19 ar 
    24   18   23 ar 
    25   19   20 ar 
    26   20   21 ar 
    27   22   21 ar 
    28   23   22 ar 
    29   24   25 ar 
    30   24   29 ar 
    31   25   26 ar 
    32   26   27 ar 
    33   28   27 ar 
    34   29   28 ar 
    35   30   31 1  
    36   31   34 2  
    37   32   33 2  
    38   33   34 1  
    39    6   35 1  
    40    7   36 1  
    41    9   37 1  
    42   10   38 1  
    43   12   39 1  
    44   13   40 1  
    45   19   41 1  
    46   20   42 1  
    47   22   43 1  
    48   23   44 1  
    49   25   45 1  
    50   26   46 1  
    51   27   47 1  
    52   29   48 1  
    53   32   49 1  
    54   33   50 1  
    55   34   51 1  
@<TRIPOS>SUBSTRUCTURE
     1 0MX         1

