### 
### Created by X-TOOL on Mon Sep 10 21:13:10 2018
### 

@<TRIPOS>MOLECULE
4e20_ligand
   42    45     1     0     0
SMALL
GAST_HUCK


@<TRIPOS>ATOM
      1 O2         35.3190   -5.9710   25.4640 O.2       1 0MY        -0.1444
      2 S1         34.6170   -7.0020   26.2220 S.o2      1 0MY         0.0903
      3 O1         35.3480   -7.2750   27.4410 O.2       1 0MY        -0.1444
      4 C14        33.1050   -6.5290   26.5810 C.ar      1 0MY         0.1148
      5 C17        32.4810   -6.9760   27.7630 C.ar      1 0MY        -0.0206
      6 C18        31.1560   -6.6210   28.0460 C.ar      1 0MY         0.0423
      7 CL1        30.5260   -7.0430   29.3300 Cl        1 0MY        -0.0706
      8 C19        30.4490   -5.8190   27.1440 C.ar      1 0MY        -0.0477
      9 C16        31.0380   -5.4210   25.9300 C.ar      1 0MY        -0.0594
     10 C15        32.3550   -5.7820   25.6530 C.ar      1 0MY        -0.0344
     11 N4         34.4830   -8.3890   25.3680 N.am      1 0MY        -0.1851
     12 C11        33.8260   -9.5350   25.7740 C.ar      1 0MY         0.0655
     13 C10        32.6870   -9.9940   25.0940 C.ar      1 0MY        -0.0429
     14 C9         32.0440  -11.1690   25.5190 C.ar      1 0MY        -0.0683
     15 C12        34.2860  -10.2960   26.8710 C.ar      1 0MY        -0.0429
     16 C13        33.6410  -11.4690   27.3070 C.ar      1 0MY        -0.0683
     17 C8         32.4820  -11.9010   26.6520 C.ar      1 0MY        -0.0338
     18 C1         31.7620  -13.1780   26.9950 C.ar      1 0MY        -0.0271
     19 C4         32.5520  -14.2960   27.3330 C.ar      1 0MY        -0.0353
     20 C6         31.9450  -15.5370   27.5700 C.ar      1 0MY         0.0733
     21 C5         32.4670  -16.7810   27.8970 C.2       1 0MY         0.2384
     22 N3         33.8020  -17.0290   28.0980 N.pl3     1 0MY        -0.2610
     23 N2         31.5170  -17.7170   28.0110 N.pl3     1 0MY        -0.2553
     24 C7         30.5700  -15.7150   27.4520 C.ar      1 0MY        -0.0552
     25 N1         30.3150  -17.0300   27.7230 N.2       1 0MY        -0.4416
     26 C3         29.7660  -14.6140   27.1010 C.ar      1 0MY        -0.0685
     27 C2         30.3640  -13.3610   26.8570 C.ar      1 0MY        -0.0588
     28 H          33.0339   -7.6030   28.4625 H         1 0MY         0.0643
     29 H          29.4345   -5.5002   27.3834 H         1 0MY         0.0623
     30 H          30.4675   -4.8338   25.2104 H         1 0MY         0.0618
     31 H          32.8091   -5.4830   24.7083 H         1 0MY         0.0639
     32 H          34.9257   -8.4108   24.4494 H         1 0MY         0.2183
     33 H          32.3020   -9.4400   24.2379 H         1 0MY         0.0491
     34 H          31.1806  -11.5295   24.9598 H         1 0MY         0.0586
     35 H          35.1771   -9.9615   27.4021 H         1 0MY         0.0491
     36 H          34.0409  -12.0360   28.1476 H         1 0MY         0.0586
     37 H          33.6346  -14.1952   27.4100 H         1 0MY         0.0617
     38 H          34.4803  -16.2725   28.0090 H         1 0MY         0.2096
     39 H          34.1157  -17.9698   28.3364 H         1 0MY         0.2096
     40 H          31.6335  -18.7015   28.2509 H         1 0MY         0.2537
     41 H          28.6853  -14.7299   27.0182 H         1 0MY         0.0605
     42 H          29.7403  -12.5189   26.5571 H         1 0MY         0.0600
@<TRIPOS>BOND
     1    1    2 2  
     2    2    3 2  
     3    2    4 1  
     4    2   11 am 
     5    4    5 ar 
     6    4   10 ar 
     7    5    6 ar 
     8    6    7 1  
     9    6    8 ar 
    10    8    9 ar 
    11    9   10 ar 
    12   11   12 1  
    13   12   13 ar 
    14   12   15 ar 
    15   13   14 ar 
    16   14   17 ar 
    17   15   16 ar 
    18   16   17 ar 
    19   17   18 1  
    20   18   19 ar 
    21   18   27 ar 
    22   19   20 ar 
    23   20   21 2  
    24   20   24 ar 
    25   21   22 1  
    26   21   23 1  
    27   23   25 1  
    28   24   25 2  
    29   24   26 ar 
    30   26   27 ar 
    31    5   28 1  
    32    8   29 1  
    33    9   30 1  
    34   10   31 1  
    35   11   32 1  
    36   13   33 1  
    37   14   34 1  
    38   15   35 1  
    39   16   36 1  
    40   19   37 1  
    41   22   38 1  
    42   22   39 1  
    43   23   40 1  
    44   26   41 1  
    45   27   42 1  
@<TRIPOS>SUBSTRUCTURE
     1 0MY         1

