### 
### Created by X-TOOL on Mon Sep 10 21:13:11 2018
### 

@<TRIPOS>MOLECULE
4e26_ligand
   39    42     1     0     0
SMALL
GAST_HUCK


@<TRIPOS>ATOM
      1 CAA        11.1030  -14.3780   -3.8870 C.ar      1 734        -0.0542
      2 CAB         9.3710  -19.0730   -0.8940 C.ar      1 734         0.1198
      3 CAC         8.1430  -18.6520   -1.4750 C.ar      1 734         0.0304
      4 CAD         7.2540  -19.6360   -2.0230 C.ar      1 734        -0.0460
      5 CAE         7.5850  -21.0190   -1.9940 C.ar      1 734         0.0387
      6 CAF         6.3090  -16.9090   -1.3940 C.2       1 734         0.1291
      7 CAG         8.8240  -21.4300   -1.4070 C.ar      1 734         0.0086
      8 CAH         9.2090  -22.7930   -1.3490 C.ar      1 734        -0.0413
      9 CAI        10.4420  -23.1490   -0.7630 C.ar      1 734        -0.0366
     10 CAJ        11.2780  -22.1420   -0.2390 C.ar      1 734         0.0060
     11 CAK        11.7390  -14.0960   -2.6580 C.ar      1 734        -0.0480
     12 CAL         9.7130  -20.4450   -0.8580 C.ar      1 734         0.0756
     13 CAM         7.8060  -17.1680   -1.5040 C.3       1 734         0.1326
     14 CAN        11.2190  -14.6590   -1.4720 C.ar      1 734        -0.0042
     15 CAO         9.4700  -15.7610   -2.7060 C.ar      1 734         0.1148
     16 CAP         9.9590  -15.2170   -3.9150 C.ar      1 734        -0.0159
     17 CAQ         5.6420  -16.3680   -0.5310 C.2       1 734        -0.0663
     18 CAR         4.5370  -16.2840   -0.6570 C.2       1 734        -0.0801
     19 CAS         3.9200  -16.7050   -1.6280 C.2       1 734         0.0674
     20 NAT         8.3620  -16.5750   -2.7270 N.pl3     1 734        -0.2822
     21 NAU        10.1140  -15.4660   -1.5180 N.ar      1 734        -0.2852
     22 NAV        10.9070  -20.8370   -0.2950 N.ar      1 734        -0.2985
     23 OAW         5.1610  -17.2320   -2.3180 O.3       1 734        -0.2648
     24 OAX        10.2340  -18.1590   -0.3690 O.3       1 734        -0.3315
     25 CLAY        6.4270  -22.2160   -2.7030 Cl        1 734        -0.0802
     26 H          11.4903  -13.9519   -4.8125 H         1 734         0.0699
     27 H           6.3109  -19.3189   -2.4682 H         1 734         0.0580
     28 H           8.5544  -23.5637   -1.7559 H         1 734         0.0743
     29 H          10.7459  -24.1947   -0.7158 H         1 734         0.0671
     30 H          12.2309  -22.4135    0.2153 H         1 734         0.0832
     31 H          12.6186  -13.4530   -2.6254 H         1 734         0.0597
     32 H           8.2566  -16.6958   -0.6310 H         1 734         0.0884
     33 H          11.6993  -14.4503   -0.5160 H         1 734         0.0781
     34 H           9.4625  -15.4396   -4.8595 H         1 734         0.0610
     35 H           6.1229  -15.9673    0.3613 H         1 734         0.0225
     36 H           3.9693  -15.7957    0.1351 H         1 734         0.0298
     37 H           2.8637  -16.7016   -1.8971 H         1 734         0.0857
     38 H           7.9119  -16.7733   -3.6206 H         1 734         0.1856
     39 H           9.8646  -17.2784   -0.4675 H         1 734         0.2484
@<TRIPOS>BOND
     1    1   11 ar 
     2   16    1 ar 
     3    3    2 ar 
     4    2   12 ar 
     5    2   24 1  
     6    3    4 ar 
     7   13    3 1  
     8    4    5 ar 
     9    5    7 ar 
    10    5   25 1  
    11   13    6 1  
    12    6   17 2  
    13    6   23 1  
    14    7    8 ar 
    15   12    7 ar 
    16    8    9 ar 
    17   10    9 ar 
    18   22   10 ar 
    19   11   14 ar 
    20   12   22 ar 
    21   20   13 1  
    22   14   21 ar 
    23   15   16 ar 
    24   15   20 1  
    25   15   21 ar 
    26   17   18 1  
    27   18   19 2  
    28   19   23 1  
    29    1   26 1  
    30    4   27 1  
    31    8   28 1  
    32    9   29 1  
    33   10   30 1  
    34   11   31 1  
    35   13   32 1  
    36   14   33 1  
    37   16   34 1  
    38   17   35 1  
    39   18   36 1  
    40   19   37 1  
    41   20   38 1  
    42   24   39 1  
@<TRIPOS>SUBSTRUCTURE
     1 734         1

