### 
### Created by X-TOOL on Tue Oct 16 15:17:31 2018
### 

@<TRIPOS>MOLECULE
4e28_ligand
   45    47     1     0     0
SMALL
GAST_HUCK


@<TRIPOS>ATOM
      1 F28        41.9450  -24.0440   12.2630 F         1 MOL        -0.2209
      2 C27        42.0530  -23.7340   10.9840 C.3       1 MOL         0.3727
      3 F30        40.9840  -23.0550   10.6100 F         1 MOL        -0.2209
      4 F29        42.1500  -24.8360   10.2650 F         1 MOL        -0.2209
      5 C25        43.2710  -22.8860   10.7730 C.ar      1 MOL         0.0335
      6 C26        43.8720  -22.2570   11.8560 C.ar      1 MOL        -0.0124
      7 C24        43.7940  -22.7210    9.4950 C.ar      1 MOL        -0.0451
      8 C23        44.9230  -21.9320    9.3020 C.ar      1 MOL        -0.0433
      9 C22        45.5230  -21.3020   10.3840 C.ar      1 MOL        -0.0112
     10 C21        45.0020  -21.4750   11.6600 C.ar      1 MOL         0.0950
     11 N18        45.5990  -20.8410   12.7510 N.am      1 MOL        -0.2280
     12 C17        46.4090  -21.5150   13.5610 C.2       1 MOL         0.2074
     13 O19        46.6870  -22.6940   13.4090 O.2       1 MOL        -0.3848
     14 C16        46.9860  -20.7290   14.7100 C.3       1 MOL         0.0760
     15 C13        47.3160  -19.3100   14.2640 C.3       1 MOL         0.1449
     16 C14        47.0130  -18.3490   15.3790 C.2       1 MOL         0.2396
     17 O20        45.7810  -18.0400   15.7460 O.2       1 MOL        -0.3753
     18 N15        48.0200  -17.8400   15.9590 N.am      1 MOL        -0.1851
     19 C11        49.1810  -18.0830   15.3640 C.2       1 MOL         0.2114
     20 S12        49.0460  -19.0880   14.0530 S.3       1 MOL         0.0025
     21 N10        50.2730  -17.6120   15.7560 N.2       1 MOL        -0.2552
     22 N9         51.3940  -17.9730   14.9960 N.2       1 MOL        -0.2819
     23 C8         52.5640  -17.8560   15.4290 C.2       1 MOL         0.0129
     24 C6         53.6670  -18.2620   14.5340 C.ar      1 MOL         0.0265
     25 C5         53.3170  -18.7340   13.2790 C.ar      1 MOL        -0.0577
     26 C4         54.2970  -19.1340   12.3870 C.ar      1 MOL        -0.0697
     27 C3         55.6280  -19.0600   12.7510 C.ar      1 MOL        -0.0682
     28 C2         55.9780  -18.5880   14.0030 C.ar      1 MOL        -0.0288
     29 C1         55.0010  -18.1840   14.9020 C.ar      1 MOL         0.1034
     30 O1         55.3910  -17.7250   16.1280 O.3       1 MOL        -0.3278
     31 H1         43.4597  -22.3765   12.8514 H         1 MOL         0.0711
     32 H2         43.3217  -23.2074    8.6492 H         1 MOL         0.0741
     33 H3         45.3345  -21.8089    8.3067 H         1 MOL         0.0664
     34 H4         46.3957  -20.6768   10.2334 H         1 MOL         0.0759
     35 H5         45.4160  -19.8733   12.9243 H         1 MOL         0.2259
     36 H6         47.9041  -21.2217   15.0625 H         1 MOL         0.0547
     37 H7         46.2526  -20.6911   15.5289 H         1 MOL         0.0547
     38 H8         46.7617  -19.0640   13.3463 H         1 MOL         0.0726
     39 H9         47.9449  -17.2993   16.7969 H         1 MOL         0.2486
     40 H10        52.7605  -17.4694   16.4279 H         1 MOL         0.0864
     41 H11        52.2724  -18.7902   12.9949 H         1 MOL         0.0611
     42 H12        54.0213  -19.5041   11.4061 H         1 MOL         0.0533
     43 H13        56.3982  -19.3720   12.0549 H         1 MOL         0.0607
     44 H14        57.0235  -18.5332   14.2842 H         1 MOL         0.0547
     45 H15        54.6235  -17.4859   16.6342 H         1 MOL         0.2514
@<TRIPOS>BOND
     1    1    2 1  
     2    2    3 1  
     3    2    4 1  
     4    2    5 1  
     5    5    6 ar 
     6    5    7 ar 
     7    6   10 ar 
     8    7    8 ar 
     9    8    9 ar 
    10    9   10 ar 
    11   10   11 1  
    12   11   12 am 
    13   12   13 2  
    14   12   14 1  
    15   14   15 1  
    16   15   16 1  
    17   15   20 1  
    18   16   17 2  
    19   16   18 am 
    20   18   19 am 
    21   19   20 1  
    22   19   21 2  
    23   21   22 1  
    24   22   23 2  
    25   23   24 1  
    26   24   25 ar 
    27   24   29 ar 
    28   25   26 ar 
    29   26   27 ar 
    30   27   28 ar 
    31   28   29 ar 
    32   29   30 1  
    33    6   31 1  
    34    7   32 1  
    35    8   33 1  
    36    9   34 1  
    37   11   35 1  
    38   14   36 1  
    39   14   37 1  
    40   15   38 1  
    41   18   39 1  
    42   23   40 1  
    43   25   41 1  
    44   26   42 1  
    45   27   43 1  
    46   28   44 1  
    47   30   45 1  
@<TRIPOS>SUBSTRUCTURE
     1 MOL         1

