### 
### Created by X-TOOL on Mon Sep 10 21:13:09 2018
### 

@<TRIPOS>MOLECULE
4e3d_ligand
   16    16     1     0     0
SMALL
GAST_HUCK


@<TRIPOS>ATOM
      1 OAA        15.3500    2.1830   15.9970 O.co2     1 GTQ        -0.5644
      2 OAB        17.5870    1.8570   15.9730 O.co2     1 GTQ        -0.5644
      3 OAC        19.3590    5.9540   13.6850 O.3       1 GTQ        -0.3397
      4 OAD        14.4120    4.0670   14.8440 O.3       1 GTQ        -0.3367
      5 CAE        17.0170    6.2110   13.5670 C.ar      1 GTQ        -0.0388
      6 CAF        15.7570    5.7290   13.9080 C.ar      1 GTQ        -0.0375
      7 CAG        18.0000    4.2460   14.5570 C.ar      1 GTQ        -0.0275
      8 CAH        16.5510    2.4600   15.6140 C.2       1 GTQ         0.0558
      9 CAI        18.1060    5.4670   13.9090 C.ar      1 GTQ         0.0797
     10 CAJ        15.6430    4.5300   14.5160 C.ar      1 GTQ         0.0916
     11 CAK        16.7380    3.7470   14.8820 C.ar      1 GTQ         0.0302
     12 H1         19.4730    6.7652   14.1662 H         1 GTQ         0.2444
     13 H2         14.4952    3.2179   15.2617 H         1 GTQ         0.2461
     14 H3         17.1292    7.1534   13.0432 H         1 GTQ         0.0539
     15 H4         14.8716    6.3138   13.6863 H         1 GTQ         0.0524
     16 H5         18.8912    3.6829   14.8094 H         1 GTQ         0.0547
@<TRIPOS>BOND
     1    8    1 ar 
     2    8    2 ar 
     3    9    3 1  
     4   10    4 1  
     5    5    6 ar 
     6    9    5 ar 
     7    6   10 ar 
     8    7    9 ar 
     9   11    7 ar 
    10    8   11 1  
    11   10   11 ar 
    12    3   12 1  
    13    4   13 1  
    14    5   14 1  
    15    6   15 1  
    16    7   16 1  
@<TRIPOS>SUBSTRUCTURE
     1 GTQ         1

