### 
### Created by X-TOOL on Mon Sep 10 21:13:09 2018
### 

@<TRIPOS>MOLECULE
4e3f_ligand
   16    16     1     0     0
SMALL
GAST_HUCK


@<TRIPOS>ATOM
      1 C1A        16.8350    2.2560   16.0540 C.2       1 GRE         0.0532
      2 O1A        17.9450    1.7340   16.0400 O.co2     1 GRE        -0.5680
      3 O2A        15.9630    1.8420   16.8640 O.co2     1 GRE        -0.5680
      4 C1         16.5880    3.3400   15.1800 C.ar      1 GRE         0.0661
      5 C2         15.2980    3.8710   15.1100 C.ar      1 GRE         0.0946
      6 C3         15.0440    5.0110   14.3740 C.ar      1 GRE        -0.0404
      7 C4         15.9890    5.5990   13.5570 C.ar      1 GRE        -0.0764
      8 C5         17.3010    5.0710   13.6010 C.ar      1 GRE        -0.0404
      9 C6         17.5730    3.9560   14.4010 C.ar      1 GRE         0.0946
     10 O2         14.3640    3.2860   15.9020 O.3       1 GRE        -0.3323
     11 O6         18.8660    3.4670   14.4620 O.3       1 GRE        -0.3323
     12 H1         14.0612    5.4636   14.4403 H         1 GRE         0.0458
     13 H2         15.7364    6.4304   12.9089 H         1 GRE         0.0584
     14 H3         18.0918    5.5284   13.0175 H         1 GRE         0.0458
     15 H4         14.7389    2.5186   16.3181 H         1 GRE         0.2496
     16 H5         18.8917    2.7143   15.0410 H         1 GRE         0.2496
@<TRIPOS>BOND
     1    1    2 ar 
     2    1    3 ar 
     3    1    4 1  
     4    4    5 ar 
     5    4    9 ar 
     6    5    6 ar 
     7    5   10 1  
     8    6    7 ar 
     9    7    8 ar 
    10    8    9 ar 
    11    9   11 1  
    12    6   12 1  
    13    7   13 1  
    14    8   14 1  
    15   10   15 1  
    16   11   16 1  
@<TRIPOS>SUBSTRUCTURE
     1 GRE         1

