### 
### Created by X-TOOL on Mon Sep 10 21:13:10 2018
### 

@<TRIPOS>MOLECULE
4e3g_ligand
   15    15     1     0     0
SMALL
GAST_HUCK


@<TRIPOS>ATOM
      1 C1'        16.4400    2.1870   15.2350 C.2       1 PHB         0.0557
      2 O1'        15.2530    1.8470   15.5410 O.co2     1 PHB        -0.5636
      3 O2'        17.3410    1.4040   15.6300 O.co2     1 PHB        -0.5636
      4 C1         16.7060    3.4620   14.6760 C.ar      1 PHB        -0.0010
      5 C2         18.0480    3.9210   14.6600 C.ar      1 PHB        -0.0562
      6 C3         18.4420    5.2100   14.1920 C.ar      1 PHB        -0.0294
      7 C4         17.3440    5.9500   13.6530 C.ar      1 PHB         0.0909
      8 C5         16.0150    5.4960   13.6580 C.ar      1 PHB        -0.0294
      9 C6         15.6810    4.2780   14.2290 C.ar      1 PHB        -0.0562
     10 O4         17.5460    7.2150   13.0840 O.3       1 PHB        -0.3310
     11 H1         18.8198    3.2530   15.0249 H         1 PHB         0.0623
     12 H2         19.4578    5.5853   14.2397 H         1 PHB         0.0551
     13 H3         15.2398    6.1065   13.2092 H         1 PHB         0.0551
     14 H4         14.6451    3.9727   14.3230 H         1 PHB         0.0623
     15 H5         18.4690    7.4359   13.1254 H         1 PHB         0.2493
@<TRIPOS>BOND
     1    1    2 ar 
     2    1    3 ar 
     3    1    4 1  
     4    4    5 ar 
     5    4    9 ar 
     6    5    6 ar 
     7    6    7 ar 
     8    7    8 ar 
     9    7   10 1  
    10    8    9 ar 
    11    5   11 1  
    12    6   12 1  
    13    8   13 1  
    14    9   14 1  
    15   10   15 1  
@<TRIPOS>SUBSTRUCTURE
     1 PHB         1

