### 
### Created by X-TOOL on Mon Sep 10 21:13:09 2018
### 

@<TRIPOS>MOLECULE
4e3h_ligand
   14    14     1     0     0
SMALL
GAST_HUCK


@<TRIPOS>ATOM
      1 C1         14.6240    4.4170   17.5990 C.ar      1 HQE        -0.0417
      2 C2         14.8040    3.1160   18.1840 C.ar      1 HQE        -0.0417
      3 C3         15.3400    2.1050   17.3950 C.ar      1 HQE         0.0763
      4 O3         15.4900    0.8050   17.9200 O.3       1 HQE        -0.3404
      5 C4         15.6690    2.3990   16.0370 C.ar      1 HQE        -0.0417
      6 C5         15.5180    3.6700   15.4700 C.ar      1 HQE        -0.0417
      7 C6         15.0070    4.6970   16.2810 C.ar      1 HQE         0.0763
      8 O6         14.8730    6.0060   15.7680 O.3       1 HQE        -0.3404
      9 H1         14.1786    5.2048   18.1957 H         1 HQE         0.0516
     10 H2         14.5284    2.9281   19.2154 H         1 HQE         0.0516
     11 H3         15.8676    0.2387   17.2573 H         1 HQE         0.2444
     12 H4         16.0544    1.5992   15.4149 H         1 HQE         0.0516
     13 H5         15.7872    3.8561   14.4366 H         1 HQE         0.0516
     14 H6         14.5155    6.5735   16.4408 H         1 HQE         0.2444
@<TRIPOS>BOND
     1    1    2 ar 
     2    1    7 ar 
     3    2    3 ar 
     4    3    4 1  
     5    3    5 ar 
     6    5    6 ar 
     7    6    7 ar 
     8    7    8 1  
     9    1    9 1  
    10    2   10 1  
    11    4   11 1  
    12    5   12 1  
    13    6   13 1  
    14    8   14 1  
@<TRIPOS>SUBSTRUCTURE
     1 HQE         1

