### 
### Created by X-TOOL on Mon Sep 10 21:13:08 2018
### 

@<TRIPOS>MOLECULE
4e49_ligand
   14    14     1     0     0
SMALL
GAST_HUCK


@<TRIPOS>ATOM
      1 C1         15.1510    3.8930   16.0280 C.ar      1 RCO         0.0789
      2 C2         15.4980    2.5520   16.2970 C.ar      1 RCO        -0.0060
      3 C3         15.3070    2.0830   17.6050 C.ar      1 RCO         0.0789
      4 C4         14.8270    2.9310   18.6490 C.ar      1 RCO        -0.0445
      5 C5         14.5070    4.3060   18.3450 C.ar      1 RCO        -0.0791
      6 C6         14.6840    4.7020   17.0330 C.ar      1 RCO        -0.0445
      7 O1         15.3660    4.4100   14.7570 O.3       1 RCO        -0.3359
      8 O3         15.6540    0.7910   17.9150 O.3       1 RCO        -0.3359
      9 H1         15.8973    1.9082   15.5216 H         1 RCO         0.0461
     10 H2         14.7046    2.5479   19.6556 H         1 RCO         0.0451
     11 H3         14.1474    4.9904   19.1048 H         1 RCO         0.0562
     12 H4         14.4359    5.7263   16.7793 H         1 RCO         0.0451
     13 H5         15.6870    3.7216   14.1864 H         1 RCO         0.2478
     14 H6         15.9533    0.3476   17.1299 H         1 RCO         0.2478
@<TRIPOS>BOND
     1    1    2 ar 
     2    1    6 ar 
     3    1    7 1  
     4    2    3 ar 
     5    3    4 ar 
     6    3    8 1  
     7    4    5 ar 
     8    5    6 ar 
     9    2    9 1  
    10    4   10 1  
    11    5   11 1  
    12    6   12 1  
    13    7   13 1  
    14    8   14 1  
@<TRIPOS>SUBSTRUCTURE
     1 RCO         1

