### 
### Created by X-TOOL on Mon Sep 10 21:13:09 2018
### 

@<TRIPOS>MOLECULE
4e4a_ligand
   15    15     1     0     0
SMALL
GAST_HUCK


@<TRIPOS>ATOM
      1 SD         15.0270    4.4040   14.0040 S.3       1 JKE        -0.1152
      2 CG         16.7260    2.3700   15.2740 C.2       1 JKE         0.0594
      3 CZ         17.4480    3.4770   14.5920 C.ar      1 JKE         0.0219
      4 CD1        17.4330    5.4910   13.3220 C.ar      1 JKE        -0.0462
      5 OD1        15.4710    2.1550   15.1570 O.co2     1 JKE        -0.5629
      6 CD2        19.4930    4.6050   13.9610 C.ar      1 JKE        -0.0650
      7 OD2        17.4000    1.7780   16.0980 O.co2     1 JKE        -0.5629
      8 CE1        16.7520    4.4780   13.9840 C.ar      1 JKE         0.0270
      9 CE2        18.8470    3.5410   14.6110 C.ar      1 JKE        -0.0534
     10 CG1        18.7810    5.5910   13.3150 C.ar      1 JKE        -0.0651
     11 H1         14.6519    5.2048   13.5201 H         1 JKE         0.1233
     12 H2         16.8568    6.2363   12.7858 H         1 JKE         0.0572
     13 H3         20.5760    4.6512   13.9679 H         1 JKE         0.0566
     14 H4         19.4241    2.7784   15.1213 H         1 JKE         0.0633
     15 H5         19.2820    6.4152   12.8202 H         1 JKE         0.0621
@<TRIPOS>BOND
     1    8    1 1  
     2    3    2 1  
     3    2    5 ar 
     4    2    7 ar 
     5    3    8 ar 
     6    3    9 ar 
     7    8    4 ar 
     8    4   10 ar 
     9    9    6 ar 
    10    6   10 ar 
    11    1   11 1  
    12    4   12 1  
    13    6   13 1  
    14    9   14 1  
    15   10   15 1  
@<TRIPOS>SUBSTRUCTURE
     1 JKE         1

