### 
### Created by X-TOOL on Mon Sep 10 21:13:10 2018
### 

@<TRIPOS>MOLECULE
4e4l_ligand
   42    45     1     0     0
SMALL
GAST_HUCK


@<TRIPOS>ATOM
      1 C1        -14.7900   29.4150   -2.9370 C.3       1 0NH        -0.0316
      2 C2        -14.4500   29.8380   -1.4630 C.3       1 0NH         0.0807
      3 C3        -13.3210   30.8720   -1.4940 C.3       1 0NH        -0.0028
      4 C4        -13.7340   32.2480   -2.0370 C.3       1 0NH         0.0323
      5 N5        -15.0920   32.6590   -1.6540 N.am      1 0NH        -0.2385
      6 C6        -16.1700   31.6770   -1.3680 C.3       1 0NH         0.0323
      7 C7        -15.6690   30.3740   -0.7370 C.3       1 0NH        -0.0028
      8 S8        -15.4580   34.2610   -1.7090 S.o2      1 0NH         0.0385
      9 O9        -16.4580   34.5080   -0.7220 O.2       1 0NH        -0.1556
     10 O10       -14.2310   34.9970   -1.6310 O.2       1 0NH        -0.1556
     11 C11       -16.1520   34.5190   -3.3760 C.3       1 0NH         0.0734
     12 N12       -13.9060   28.6540   -0.7500 N.pl3     1 0NH        -0.2285
     13 C13       -12.6240   28.5700   -0.2450 C.2       1 0NH         0.1059
     14 N14       -12.4460   27.3780    0.2460 N.2       1 0NH        -0.3073
     15 C15       -13.5620   26.6170    0.0930 C.ar      1 0NH         0.0457
     16 C16       -14.5110   27.4270   -0.5570 C.ar      1 0NH         0.0940
     17 C17       -15.7690   26.8570   -0.8470 C.ar      1 0NH         0.0218
     18 C18       -17.0070   27.3460   -1.4840 C.2       1 0NH        -0.0603
     19 C19       -17.8560   26.3220   -1.4920 C.2       1 0NH         0.0217
     20 N20       -17.2670   25.2280   -0.9140 N.pl3     1 0NH        -0.2734
     21 C22       -16.0040   25.5160   -0.4990 C.ar      1 0NH         0.1217
     22 N23       -15.0720   24.7740    0.1140 N.ar      1 0NH        -0.3020
     23 C24       -13.8910   25.3000    0.4320 C.ar      1 0NH        -0.0037
     24 H1        -15.1951   30.2801   -3.4825 H         1 0NH         0.0262
     25 H2        -15.5368   28.6075   -2.9238 H         1 0NH         0.0262
     26 H3        -13.8763   29.0613   -3.4370 H         1 0NH         0.0262
     27 H4        -12.5131   30.4801   -2.1294 H         1 0NH         0.0313
     28 H5        -12.9484   31.0052   -0.4676 H         1 0NH         0.0313
     29 H6        -13.6788   32.2172   -3.1352 H         1 0NH         0.0479
     30 H7        -13.0252   32.9975   -1.6551 H         1 0NH         0.0479
     31 H8        -16.6757   31.4321   -2.3137 H         1 0NH         0.0479
     32 H9        -16.8888   32.1425   -0.6776 H         1 0NH         0.0479
     33 H10       -15.4045   30.5642    0.3136 H         1 0NH         0.0313
     34 H11       -16.4714   29.6230   -0.7829 H         1 0NH         0.0313
     35 H12       -16.4269   35.5770   -3.4990 H         1 0NH         0.0482
     36 H13       -17.0461   33.8908   -3.5022 H         1 0NH         0.0482
     37 H14       -15.4015   34.2449   -4.1321 H         1 0NH         0.0482
     38 H15       -11.8841   29.3690   -0.2557 H         1 0NH         0.1328
     39 H16       -17.1895   28.3474   -1.8711 H         1 0NH         0.0295
     40 H17       -18.8666   26.3490   -1.8968 H         1 0NH         0.0917
     41 H18       -17.7205   24.3093   -0.8079 H         1 0NH         0.2287
     42 H19       -13.1678   24.6941    0.9658 H         1 0NH         0.0712
@<TRIPOS>BOND
     1    1    2 1  
     2    2    3 1  
     3    2    7 1  
     4    2   12 1  
     5    3    4 1  
     6    4    5 1  
     7    5    6 1  
     8    5    8 am 
     9    6    7 1  
    10    8    9 2  
    11    8   10 2  
    12    8   11 1  
    13   12   13 1  
    14   12   16 1  
    15   13   14 2  
    16   14   15 1  
    17   15   16 ar 
    18   15   23 ar 
    19   16   17 ar 
    20   17   18 1  
    21   17   21 ar 
    22   18   19 2  
    23   19   20 1  
    24   20   21 1  
    25   21   22 ar 
    26   22   23 ar 
    27    1   24 1  
    28    1   25 1  
    29    1   26 1  
    30    3   27 1  
    31    3   28 1  
    32    4   29 1  
    33    4   30 1  
    34    6   31 1  
    35    6   32 1  
    36    7   33 1  
    37    7   34 1  
    38   11   35 1  
    39   11   36 1  
    40   11   37 1  
    41   13   38 1  
    42   18   39 1  
    43   19   40 1  
    44   20   41 1  
    45   23   42 1  
@<TRIPOS>SUBSTRUCTURE
     1 0NH         1

