### 
### Created by X-TOOL on Mon Sep 10 21:13:09 2018
### 

@<TRIPOS>MOLECULE
4e4n_ligand
   48    51     1     0     0
SMALL
GAST_HUCK


@<TRIPOS>ATOM
      1 C1          3.8640   49.8290   -0.5440 C.3       1 0NL        -0.0320
      2 C2          4.0870   49.7010    0.9560 C.3       1 0NL         0.0905
      3 C3          2.7790   49.1970    1.5660 C.3       1 0NL        -0.0320
      4 C4          5.2050   48.7000    1.2780 C.3       1 0NL        -0.0320
      5 O5          4.3510   51.0220    1.5170 O.3       1 0NL        -0.2581
      6 C6          5.4870   51.7330    1.3720 C.2       1 0NL         0.3202
      7 O7          6.3550   51.4420    0.5600 O.2       1 0NL        -0.3775
      8 N8          5.6140   52.8240    2.1640 N.am      1 0NL        -0.2594
      9 C9          6.8280   53.6530    2.1250 C.3       1 0NL         0.0468
     10 C11         6.7780   54.5890    3.3560 C.3       1 0NL        -0.0271
     11 C12         7.0860   55.9980    2.8010 C.3       1 0NL        -0.0204
     12 C13         6.6160   55.9510    1.3280 C.3       1 0NL         0.0720
     13 C15         6.9670   54.5290    0.8590 C.3       1 0NL         0.0005
     14 N16         7.3400   57.0570    0.6780 N.pl3     1 0NL        -0.2313
     15 C17         8.5820   57.0540    0.0880 C.2       1 0NL         0.1057
     16 N18         8.8670   58.2640   -0.3340 N.2       1 0NL        -0.3073
     17 C19         7.8440   59.1030   -0.0240 C.ar      1 0NL         0.0457
     18 C20         6.8570   58.3330    0.6360 C.ar      1 0NL         0.0937
     19 C21         5.6730   58.9630    1.0720 C.ar      1 0NL         0.0218
     20 C22         4.4520   58.5190    1.7730 C.2       1 0NL        -0.0603
     21 C23         3.6790   59.6060    1.8970 C.2       1 0NL         0.0217
     22 N24         4.3060   60.7040    1.3450 N.pl3     1 0NL        -0.2734
     23 C26         5.5220   60.3420    0.8250 C.ar      1 0NL         0.1217
     24 N27         6.4920   61.0380    0.2030 N.ar      1 0NL        -0.3020
     25 C28         7.6060   60.4750   -0.2120 C.ar      1 0NL        -0.0037
     26 H1          3.6646   48.8351   -0.9711 H         1 0NL         0.0260
     27 H2          4.7626   50.2561   -1.0132 H         1 0NL         0.0260
     28 H3          3.0037   50.4882   -0.7319 H         1 0NL         0.0260
     29 H4          2.8990   49.0906    2.6542 H         1 0NL         0.0260
     30 H5          2.5224   48.2210    1.1283 H         1 0NL         0.0260
     31 H6          1.9745   49.9167    1.3545 H         1 0NL         0.0260
     32 H7          6.1510   49.0544    0.8428 H         1 0NL         0.0260
     33 H8          4.9512   47.7176    0.8531 H         1 0NL         0.0260
     34 H9          5.3141   48.6105    2.3689 H         1 0NL         0.0260
     35 H10         4.8702   53.0699    2.7855 H         1 0NL         0.1870
     36 H11         7.7063   52.9939    2.1901 H         1 0NL         0.0556
     37 H12         7.5338   54.2923    4.0981 H         1 0NL         0.0288
     38 H13         5.7805   54.5656    3.8190 H         1 0NL         0.0288
     39 H14         8.1638   56.2102    2.8577 H         1 0NL         0.0295
     40 H15         6.5312   56.7653    3.3609 H         1 0NL         0.0295
     41 H16         5.5322   56.1135    1.2335 H         1 0NL         0.0650
     42 H17         6.2688   54.1949    0.0774 H         1 0NL         0.0317
     43 H18         7.9960   54.4911    0.4720 H         1 0NL         0.0317
     44 H19         9.2285   56.1835   -0.0134 H         1 0NL         0.1328
     45 H20         4.2255   57.5116    2.1192 H         1 0NL         0.0295
     46 H21         2.6964   59.6209    2.3663 H         1 0NL         0.0917
     47 H22         3.9170   61.6575    1.3262 H         1 0NL         0.2287
     48 H23         8.3549   61.0812   -0.7087 H         1 0NL         0.0712
@<TRIPOS>BOND
     1    1    2 1  
     2    2    3 1  
     3    2    4 1  
     4    2    5 1  
     5    5    6 1  
     6    6    7 2  
     7    6    8 am 
     8    8    9 1  
     9    9   10 1  
    10    9   13 1  
    11   10   11 1  
    12   11   12 1  
    13   12   13 1  
    14   12   14 1  
    15   14   15 1  
    16   14   18 1  
    17   15   16 2  
    18   16   17 1  
    19   17   18 ar 
    20   17   25 ar 
    21   18   19 ar 
    22   19   20 1  
    23   19   23 ar 
    24   20   21 2  
    25   21   22 1  
    26   22   23 1  
    27   23   24 ar 
    28   24   25 ar 
    29    1   26 1  
    30    1   27 1  
    31    1   28 1  
    32    3   29 1  
    33    3   30 1  
    34    3   31 1  
    35    4   32 1  
    36    4   33 1  
    37    4   34 1  
    38    8   35 1  
    39    9   36 1  
    40   10   37 1  
    41   10   38 1  
    42   11   39 1  
    43   11   40 1  
    44   12   41 1  
    45   13   42 1  
    46   13   43 1  
    47   15   44 1  
    48   20   45 1  
    49   21   46 1  
    50   22   47 1  
    51   25   48 1  
@<TRIPOS>SUBSTRUCTURE
     1 0NL         1

