### 
### Created by X-TOOL on Mon Sep 10 21:13:12 2018
### 

@<TRIPOS>MOLECULE
4e4x_ligand
   55    57     1     0     0
SMALL
GAST_HUCK


@<TRIPOS>ATOM
      1 N1         19.2610  -25.1770   -1.6080 N.ar      1 T1Q        -0.2667
      2 C2         18.6650  -23.9740   -1.6470 C.ar      1 T1Q         0.1762
      3 N3         17.3620  -23.7350   -1.8970 N.ar      1 T1Q        -0.2354
      4 C4         16.5700  -24.8030   -2.1240 C.ar      1 T1Q         0.1632
      5 C5         17.1170  -26.0880   -2.1010 C.ar      1 T1Q         0.0478
      6 C6         18.4890  -26.2520   -1.8320 C.ar      1 T1Q         0.0145
      7 N7         15.1670  -24.6770   -2.4030 N.am      1 T1Q        -0.1977
      8 C8         14.3290  -25.7420   -2.6450 C.2       1 T1Q         0.2269
      9 C9         14.8850  -27.0450   -2.6190 C.2       1 T1Q         0.0511
     10 C10        16.2570  -27.2330   -2.3510 C.2       1 T1Q        -0.0347
     11 C11        14.6090  -23.3150   -2.4250 C.3       1 T1Q         0.0546
     12 O12        13.1320  -25.5660   -2.8790 O.2       1 T1Q        -0.3927
     13 C13        14.0370  -28.2120   -2.8720 C.ar      1 T1Q         0.0366
     14 C14        13.6360  -28.5170   -4.1810 C.ar      1 T1Q         0.1511
     15 C15        12.8300  -29.6410   -4.4340 C.ar      1 T1Q         0.0904
     16 C16        12.4210  -30.4630   -3.3670 C.ar      1 T1Q        -0.0498
     17 C17        12.8170  -30.1580   -2.0530 C.ar      1 T1Q        -0.0484
     18 C18        13.6260  -29.0330   -1.8080 C.ar      1 T1Q         0.1191
     19 F19        14.0100  -28.7400   -0.5440 F         1 T1Q        -0.1980
     20 F20        14.0290  -27.7280   -5.2060 F         1 T1Q        -0.1975
     21 N21        12.4530  -29.9340   -5.6980 N.am      1 T1Q        -0.1939
     22 N22        19.4610  -22.8870   -1.4190 N.pl3     1 T1Q        -0.2905
     23 S23        11.5470  -31.1830   -6.1770 S.o2      1 T1Q         0.0586
     24 C24        12.7350  -32.5770   -5.9850 C.3       1 T1Q         0.0894
     25 O25        10.4400  -31.4630   -5.2510 O.2       1 T1Q        -0.1502
     26 O26        11.2220  -31.1270   -7.6090 O.2       1 T1Q        -0.1502
     27 C27        13.5690  -32.8040   -7.2490 C.3       1 T1Q        -0.0342
     28 C28        14.5930  -33.9330   -7.0960 C.3       1 T1Q        -0.0637
     29 C29        19.0530  -21.4890   -1.4110 C.3       1 T1Q         0.0335
     30 C30        18.2210  -21.1260   -2.6550 C.3       1 T1Q        -0.0089
     31 C31        17.9450  -19.6160   -2.7790 C.3       1 T1Q         0.0461
     32 O32        16.7840  -19.3940   -3.5530 O.3       1 T1Q        -0.3949
     33 H          18.9241  -27.2511   -1.8056 H         1 T1Q         0.0888
     34 H          16.6737  -28.2400   -2.3313 H         1 T1Q         0.0693
     35 H          14.1843  -23.1136   -3.4084 H         1 T1Q         0.0583
     36 H          13.8301  -23.2306   -1.6672 H         1 T1Q         0.0583
     37 H          15.4009  -22.5959   -2.2156 H         1 T1Q         0.0583
     38 H          11.7973  -31.3359   -3.5595 H         1 T1Q         0.0450
     39 H          12.4980  -30.7918   -1.2256 H         1 T1Q         0.0525
     40 H          12.7749  -29.2985   -6.4280 H         1 T1Q         0.2127
     41 H          20.4465  -23.0748   -1.2347 H         1 T1Q         0.1878
     42 H          12.1643  -33.4844   -5.7876 H         1 T1Q         0.0523
     43 H          13.4152  -32.3331   -5.1690 H         1 T1Q         0.0523
     44 H          14.1169  -31.8845   -7.4548 H         1 T1Q         0.0279
     45 H          12.8861  -33.0818   -8.0519 H         1 T1Q         0.0279
     46 H          15.2796  -33.6916   -6.2846 H         1 T1Q         0.0230
     47 H          14.0740  -34.8643   -6.8695 H         1 T1Q         0.0230
     48 H          15.1515  -34.0436   -8.0255 H         1 T1Q         0.0230
     49 H          19.9509  -20.8711   -1.4084 H         1 T1Q         0.0527
     50 H          18.4386  -21.3175   -0.5271 H         1 T1Q         0.0527
     51 H          17.2594  -21.6321   -2.5691 H         1 T1Q         0.0307
     52 H          18.7890  -21.4317   -3.5336 H         1 T1Q         0.0307
     53 H          18.7948  -19.1368   -3.2651 H         1 T1Q         0.0558
     54 H          17.7955  -19.1978   -1.7836 H         1 T1Q         0.0558
     55 H          16.6229  -18.4502   -3.6228 H         1 T1Q         0.2094
@<TRIPOS>BOND
     1    1    2 ar 
     2    1    6 ar 
     3    2    3 ar 
     4    2   22 1  
     5    3    4 ar 
     6    4    5 ar 
     7    4    7 1  
     8    5    6 ar 
     9    5   10 1  
    10    7    8 am 
    11    7   11 1  
    12    8    9 1  
    13    8   12 2  
    14    9   10 2  
    15    9   13 1  
    16   13   14 ar 
    17   13   18 ar 
    18   14   15 ar 
    19   14   20 1  
    20   15   16 ar 
    21   15   21 1  
    22   16   17 ar 
    23   17   18 ar 
    24   18   19 1  
    25   21   23 am 
    26   22   29 1  
    27   23   24 1  
    28   23   25 2  
    29   23   26 2  
    30   24   27 1  
    31   27   28 1  
    32   29   30 1  
    33   30   31 1  
    34   31   32 1  
    35    6   33 1  
    36   10   34 1  
    37   11   35 1  
    38   11   36 1  
    39   11   37 1  
    40   16   38 1  
    41   17   39 1  
    42   21   40 1  
    43   22   41 1  
    44   24   42 1  
    45   24   43 1  
    46   27   44 1  
    47   27   45 1  
    48   28   46 1  
    49   28   47 1  
    50   28   48 1  
    51   29   49 1  
    52   29   50 1  
    53   30   51 1  
    54   30   52 1  
    55   31   53 1  
    56   31   54 1  
    57   32   55 1  
@<TRIPOS>SUBSTRUCTURE
     1 T1Q         1

