### 
### Created by X-TOOL on Mon Sep 10 21:13:10 2018
### 

@<TRIPOS>MOLECULE
4e5d_ligand
   28    30     1     0     0
SMALL
GAST_HUCK


@<TRIPOS>ATOM
      1 F16        13.2550   35.5320    9.9970 F         1 0NJ        -0.1764
      2 C11        12.9370   35.3730    8.7130 C.ar      1 0NJ         0.1518
      3 C12        12.7610   34.1000    8.1730 C.ar      1 0NJ        -0.0219
      4 C13        12.4510   33.9520    6.8290 C.ar      1 0NJ        -0.0592
      5 C14        12.2960   35.0840    6.0440 C.ar      1 0NJ        -0.0601
      6 C15        12.4550   36.3520    6.5800 C.ar      1 0NJ        -0.0460
      7 C10        12.7670   36.4990    7.9150 C.ar      1 0NJ         0.0578
      8 C8         13.0070   37.8590    8.4730 C.2       1 0NJ         0.1112
      9 S7         13.2990   38.3550   10.0920 S.3       1 0NJ        -0.0047
     10 C2         13.5330   40.0440    9.7190 C.ar      1 0NJ         0.0468
     11 N9         13.1460   38.9390    7.6850 N.2       1 0NJ        -0.3041
     12 C3         13.4010   40.1560    8.3320 C.ar      1 0NJ         0.0245
     13 C4         13.5370   41.4060    7.6680 C.ar      1 0NJ        -0.0601
     14 C5         13.8180   42.5620    8.3970 C.ar      1 0NJ        -0.0392
     15 C6         13.9640   42.4720    9.7940 C.ar      1 0NJ         0.0842
     16 C1         13.8260   41.2190   10.4410 C.ar      1 0NJ        -0.0190
     17 O17        14.2310   43.6200   10.5140 O.3       1 0NJ        -0.3240
     18 C18        14.8160   43.5540   11.7600 C.3       1 0NJ         0.0589
     19 H1         12.8665   33.2249    8.8039 H         1 0NJ         0.0616
     20 H2         12.3316   32.9644    6.3984 H         1 0NJ         0.0644
     21 H3         12.0466   34.9756    4.9947 H         1 0NJ         0.0596
     22 H4         12.3343   37.2266    5.9510 H         1 0NJ         0.0656
     23 H5         13.4219   41.4610    6.5915 H         1 0NJ         0.0562
     24 H6         13.9225   43.5166    7.8942 H         1 0NJ         0.0503
     25 H7         13.9486   41.1625   11.5166 H         1 0NJ         0.0487
     26 H8         14.9418   44.5708   12.1603 H         1 0NJ         0.0577
     27 H9         15.7994   43.0680   11.6781 H         1 0NJ         0.0577
     28 H10        14.1738   42.9706   12.4362 H         1 0NJ         0.0577
@<TRIPOS>BOND
     1    1    2 1  
     2    2    3 ar 
     3    2    7 ar 
     4    3    4 ar 
     5    4    5 ar 
     6    5    6 ar 
     7    6    7 ar 
     8    7    8 1  
     9    8    9 1  
    10    8   11 2  
    11    9   10 1  
    12   10   12 ar 
    13   10   16 ar 
    14   11   12 1  
    15   12   13 ar 
    16   13   14 ar 
    17   14   15 ar 
    18   15   16 ar 
    19   15   17 1  
    20   17   18 1  
    21    3   19 1  
    22    4   20 1  
    23    5   21 1  
    24    6   22 1  
    25   13   23 1  
    26   14   24 1  
    27   16   25 1  
    28   18   26 1  
    29   18   27 1  
    30   18   28 1  
@<TRIPOS>SUBSTRUCTURE
     1 0NJ         1

