### 
### Created by X-TOOL on Mon Sep 10 21:13:11 2018
### 

@<TRIPOS>MOLECULE
4e5f_ligand
   19    20     1     0     0
SMALL
GAST_HUCK


@<TRIPOS>ATOM
      1 O1        -14.3240  -19.1740  -24.5220 O.2       1 0N7        -0.2993
      2 C1        -13.3700  -18.3580  -24.5190 C.2       1 0N7         0.3344
      3 N1        -12.7390  -18.0390  -23.3040 N.2       1 0N7        -0.0227
      4 O2        -13.1410  -18.5760  -22.2640 O.2       1 0N7        -0.1868
      5 C2        -11.6550  -17.1240  -23.2640 C.2       1 0N7         0.3071
      6 O3        -11.1160  -16.8650  -22.1690 O.2       1 0N7        -0.3152
      7 C3        -11.1080  -16.4340  -24.4950 C.3       1 0N7         0.1417
      8 C4        -11.7970  -16.7940  -25.7320 C.ar      1 0N7         0.1106
      9 C5        -12.8710  -17.7040  -25.7730 C.ar      1 0N7         0.1647
     10 C6        -13.4770  -17.9940  -26.9990 C.ar      1 0N7         0.0410
     11 C7        -13.0260  -17.3870  -28.1790 C.ar      1 0N7         0.0258
     12 C8        -11.9560  -16.4840  -28.1360 C.ar      1 0N7         0.0238
     13 C9        -11.3460  -16.1920  -26.9120 C.ar      1 0N7         0.0430
     14 H1        -10.0464  -16.7025  -24.5994 H         1 0N7         0.1035
     15 H2        -11.1990  -15.3472  -24.3519 H         1 0N7         0.1035
     16 H3        -14.3032  -18.6947  -27.0373 H         1 0N7         0.0947
     17 H4        -13.5048  -17.6161  -29.1242 H         1 0N7         0.1337
     18 H5        -11.6027  -16.0140  -29.0467 H         1 0N7         0.0977
     19 H6        -10.5174  -15.4939  -26.8770 H         1 0N7         0.0988
@<TRIPOS>BOND
     1    1    2 2  
     2    2    3 1  
     3    2    9 1  
     4    3    4 2  
     5    3    5 1  
     6    5    6 2  
     7    5    7 1  
     8    7    8 1  
     9    8    9 ar 
    10    8   13 ar 
    11    9   10 ar 
    12   10   11 ar 
    13   11   12 ar 
    14   12   13 ar 
    15    7   14 1  
    16    7   15 1  
    17   10   16 1  
    18   11   17 1  
    19   12   18 1  
    20   13   19 1  
@<TRIPOS>SUBSTRUCTURE
     1 0N7         1

