### 
### Created by X-TOOL on Mon Sep 10 21:13:11 2018
### 

@<TRIPOS>MOLECULE
4e5g_ligand
   21    21     1     0     0
SMALL
GAST_HUCK


@<TRIPOS>ATOM
      1 O8        -13.0550  -18.3250  -22.6650 O.3       1 XI7        -0.3105
      2 C9        -12.8910  -18.0560  -23.9550 C.2       1 XI7         0.1443
      3 C10       -13.7900  -18.6560  -24.9240 C.2       1 XI7         0.1128
      4 O11       -14.6860  -19.4090  -24.4950 O.co2     1 XI7        -0.5510
      5 O10       -13.6390  -18.4010  -26.1400 O.co2     1 XI7        -0.5510
      6 C8        -11.9240  -17.2480  -24.3980 C.2       1 XI7         0.0196
      7 C7        -10.9600  -16.5860  -23.5090 C.2       1 XI7         0.1292
      8 C1         -9.9120  -15.6960  -24.1160 C.ar      1 XI7         0.0261
      9 C6         -8.9810  -15.0470  -23.2950 C.ar      1 XI7        -0.0444
     10 C5         -8.0100  -14.2240  -23.8690 C.ar      1 XI7        -0.0563
     11 C4         -7.9760  -14.0490  -25.2560 C.ar      1 XI7        -0.0576
     12 C3         -8.9070  -14.6960  -26.0790 C.ar      1 XI7        -0.0563
     13 C2         -9.8720  -15.5180  -25.5080 C.ar      1 XI7        -0.0444
     14 O14       -11.0060  -16.7600  -22.3050 O.2       1 XI7        -0.3903
     15 H         -12.3893  -17.8581  -22.1548 H         1 XI7         0.2608
     16 H         -11.8465  -17.0714  -25.4708 H         1 XI7         0.0444
     17 H          -9.0143  -15.1837  -22.2141 H         1 XI7         0.0667
     18 H          -7.2797  -13.7187  -23.2370 H         1 XI7         0.0629
     19 H          -7.2185  -13.4036  -25.7007 H         1 XI7         0.0652
     20 H          -8.8750  -14.5559  -27.1595 H         1 XI7         0.0629
     21 H         -10.5989  -16.0252  -26.1423 H         1 XI7         0.0667
@<TRIPOS>BOND
     1    1    2 1  
     2    2    3 1  
     3    2    6 2  
     4    3    4 ar 
     5    3    5 ar 
     6    6    7 1  
     7    7    8 1  
     8    7   14 2  
     9    8    9 ar 
    10    8   13 ar 
    11    9   10 ar 
    12   10   11 ar 
    13   11   12 ar 
    14   12   13 ar 
    15    1   15 1  
    16    6   16 1  
    17    9   17 1  
    18   10   18 1  
    19   11   19 1  
    20   12   20 1  
    21   13   21 1  
@<TRIPOS>SUBSTRUCTURE
     1 XI7         1

