### 
### Created by X-TOOL on Mon Sep 10 21:13:12 2018
### 

@<TRIPOS>MOLECULE
4e5i_ligand
   24    25     1     0     0
SMALL
GAST_HUCK


@<TRIPOS>ATOM
      1 O16       -11.2720  -16.2040  -22.9060 O.co2     1 0N9        -0.5608
      2 C14       -11.2890  -15.7930  -24.0890 C.2       1 0N9         0.0882
      3 O15       -10.5540  -14.8570  -24.4860 O.co2     1 0N9        -0.5608
      4 C3        -12.2340  -16.4340  -25.0630 C.2       1 0N9         0.1457
      5 C2        -13.3610  -17.2710  -24.5870 C.2       1 0N9         0.1693
      6 O13       -13.5750  -17.4930  -23.2620 O.3       1 0N9        -0.3359
      7 N4        -12.0820  -16.2630  -26.3970 N.pl3     1 0N9        -0.2412
      8 C5        -12.9350  -16.8260  -27.2930 C.2       1 0N9         0.1439
      9 N6        -13.9720  -17.5960  -26.9130 N.2       1 0N9        -0.2754
     10 C1        -14.2430  -17.8520  -25.6240 C.2       1 0N9         0.1726
     11 O12       -15.2210  -18.5630  -25.3000 O.2       1 0N9        -0.4171
     12 C7        -12.7010  -16.6100  -28.7490 C.2       1 0N9         0.0930
     13 N11       -13.2970  -15.7150  -29.5610 N.2       1 0N9        -0.3045
     14 C10       -12.7780  -15.8830  -30.7990 C.2       1 0N9         0.1071
     15 N9        -11.8700  -16.8700  -30.7680 N.pl3     1 0N9        -0.2378
     16 C17       -11.0700  -17.3700  -31.9160 C.3       1 0N9         0.0526
     17 C8        -11.8040  -17.3350  -29.5180 C.2       1 0N9         0.0742
     18 H         -12.8065  -17.9258  -22.8830 H         1 0N9         0.2433
     19 H         -11.3061  -15.6962  -26.7393 H         1 0N9         0.2297
     20 H         -13.0541  -15.3072  -31.6824 H         1 0N9         0.1260
     21 H         -11.7410  -17.7420  -32.6902 H         1 0N9         0.0598
     22 H         -10.4654  -16.5568  -32.3175 H         1 0N9         0.0598
     23 H         -10.4188  -18.1767  -31.5795 H         1 0N9         0.0598
     24 H         -11.1600  -18.1406  -29.1654 H         1 0N9         0.1084
@<TRIPOS>BOND
     1    1    2 ar 
     2    2    3 ar 
     3    2    4 1  
     4    4    5 2  
     5    4    7 1  
     6    5    6 1  
     7    5   10 1  
     8    7    8 1  
     9    8    9 2  
    10    8   12 1  
    11    9   10 1  
    12   10   11 2  
    13   12   13 1  
    14   12   17 2  
    15   13   14 2  
    16   14   15 1  
    17   15   16 1  
    18   15   17 1  
    19    6   18 1  
    20    7   19 1  
    21   14   20 1  
    22   16   21 1  
    23   16   22 1  
    24   16   23 1  
    25   17   24 1  
@<TRIPOS>SUBSTRUCTURE
     1 0N9         1

