### 
### Created by X-TOOL on Mon Sep 10 21:13:12 2018
### 

@<TRIPOS>MOLECULE
4e5j_ligand
   31    32     1     0     0
SMALL
GAST_HUCK


@<TRIPOS>ATOM
      1 O5        -14.5900  -19.9960  -32.5860 O.2       1 581        -0.3853
      2 C12       -13.7530  -19.6930  -31.7370 C.2       1 581         0.2004
      3 C13       -12.5860  -20.6110  -31.4470 C.3       1 581         0.0316
      4 N3        -13.8660  -18.5360  -31.0520 N.am      1 581        -0.2328
      5 C3        -12.9850  -18.1060  -30.1130 C.ar      1 581         0.0745
      6 C2        -11.7940  -17.4670  -30.4910 C.ar      1 581        -0.0339
      7 C1        -10.8880  -17.0200  -29.5280 C.ar      1 581        -0.0666
      8 C4        -13.2700  -18.2980  -28.7600 C.ar      1 581        -0.0186
      9 C5        -12.3890  -17.8260  -27.7810 C.ar      1 581         0.0339
     10 C6        -11.1860  -17.2140  -28.1730 C.ar      1 581        -0.0540
     11 C7        -12.6510  -18.0740  -26.3320 C.2       1 581         0.1534
     12 N2        -13.6110  -18.9500  -25.9990 N.2       1 581        -0.2581
     13 C10       -13.8730  -19.2810  -24.7390 C.2       1 581         0.1807
     14 O1        -14.7860  -20.0810  -24.4670 O.2       1 581        -0.4140
     15 C9        -13.0740  -18.6710  -23.6570 C.2       1 581         0.1723
     16 O2        -13.3370  -19.0020  -22.3850 O.3       1 581        -0.3351
     17 C8        -12.0110  -17.7280  -24.0640 C.2       1 581         0.1479
     18 N1        -11.8670  -17.4860  -25.3900 N.pl3     1 581        -0.2367
     19 C11       -11.1120  -16.9950  -23.1160 C.2       1 581         0.0889
     20 O3        -11.0890  -17.2220  -21.8790 O.co2     1 581        -0.5606
     21 O4        -10.4040  -16.1110  -23.6460 O.co2     1 581        -0.5606
     22 H         -12.9606  -21.5769  -31.1083 H         1 581         0.0472
     23 H         -11.9974  -20.7461  -32.3544 H         1 581         0.0472
     24 H         -11.9621  -20.1691  -30.6701 H         1 581         0.0472
     25 H         -14.6705  -17.9424  -31.2541 H         1 581         0.2255
     26 H         -11.5742  -17.3182  -31.5482 H         1 581         0.0563
     27 H          -9.9624  -16.5273  -29.8258 H         1 581         0.0597
     28 H         -14.1819  -18.8173  -28.4653 H         1 581         0.0575
     29 H         -10.4762  -16.8863  -27.4134 H         1 581         0.0566
     30 H         -13.2152  -19.9472  -22.2698 H         1 581         0.2437
     31 H         -11.1412  -16.8366  -25.6931 H         1 581         0.2317
@<TRIPOS>BOND
     1    1    2 2  
     2    2    3 1  
     3    2    4 am 
     4    4    5 1  
     5    5    6 ar 
     6    5    8 ar 
     7    6    7 ar 
     8    7   10 ar 
     9    8    9 ar 
    10    9   10 ar 
    11    9   11 1  
    12   11   12 2  
    13   11   18 1  
    14   12   13 1  
    15   13   14 2  
    16   13   15 1  
    17   15   16 1  
    18   15   17 2  
    19   17   18 1  
    20   17   19 1  
    21   19   20 ar 
    22   19   21 ar 
    23    3   22 1  
    24    3   23 1  
    25    3   24 1  
    26    4   25 1  
    27    6   26 1  
    28    7   27 1  
    29    8   28 1  
    30   10   29 1  
    31   16   30 1  
    32   18   31 1  
@<TRIPOS>SUBSTRUCTURE
     1 581         1

