### 
### Created by X-TOOL on Mon Sep 10 21:13:08 2018
### 

@<TRIPOS>MOLECULE
4e6d_ligand
   39    42     1     0     0
SMALL
GAST_HUCK


@<TRIPOS>ATOM
      1 N5         -1.6080  -52.1280  -18.1330 N.1       1 0NU        -0.3008
      2 C15        -1.2280  -51.0590  -18.3110 C.1       1 0NU         0.1115
      3 C14        -0.5670  -49.7800  -18.5510 C.3       1 0NU         0.1612
      4 C13        -0.9580  -49.2350  -19.9960 C.2       1 0NU         0.2047
      5 O          -1.4190  -50.0030  -20.8340 O.2       1 0NU        -0.3945
      6 N4         -0.8100  -47.9190  -20.2500 N.am      1 0NU        -0.2685
      7 C11        -0.2910  -47.0010  -19.2420 C.3       1 0NU         0.0341
      8 C10        -1.3650  -46.0070  -18.8380 C.3       1 0NU        -0.0297
      9 C9         -1.8990  -45.2770  -20.0700 C.3       1 0NU        -0.0188
     10 C12        -1.1740  -47.2530  -21.5030 C.3       1 0NU         0.0641
     11 C8         -2.2610  -46.2620  -21.1780 C.3       1 0NU         0.0901
     12 N3         -2.6680  -45.5640  -22.3910 N.pl3     1 0NU        -0.2294
     13 C4         -3.9360  -45.0200  -22.5340 C.ar      1 0NU         0.0938
     14 C3         -5.0840  -44.9700  -21.7500 C.ar      1 0NU         0.0218
     15 C          -5.5730  -45.4640  -20.4940 C.2       1 0NU        -0.0603
     16 C7         -1.9490  -45.2400  -23.5220 C.2       1 0NU         0.1057
     17 N2         -2.6280  -44.5160  -24.3810 N.2       1 0NU        -0.3073
     18 C5         -3.8780  -44.3540  -23.7870 C.ar      1 0NU         0.0457
     19 C6         -4.9940  -43.6380  -24.2020 C.ar      1 0NU        -0.0037
     20 N1         -6.1110  -43.5400  -23.4720 N.ar      1 0NU        -0.3020
     21 C2         -6.1420  -44.1840  -22.2920 C.ar      1 0NU         0.1217
     22 N          -7.1830  -44.2160  -21.4100 N.pl3     1 0NU        -0.2734
     23 C1         -6.8410  -44.9970  -20.3400 C.2       1 0NU         0.0217
     24 H1          0.5231  -49.9157  -18.4943 H         1 0NU         0.0800
     25 H2         -0.8864  -49.0547  -17.7882 H         1 0NU         0.0800
     26 H3          0.5712  -46.4569  -19.6551 H         1 0NU         0.0522
     27 H4          0.0260  -47.5733  -18.3577 H         1 0NU         0.0522
     28 H5         -0.9370  -45.2739  -18.1385 H         1 0NU         0.0286
     29 H6         -2.1905  -46.5434  -18.3474 H         1 0NU         0.0286
     30 H7         -1.1273  -44.5865  -20.4411 H         1 0NU         0.0296
     31 H8         -2.7967  -44.7068  -19.7888 H         1 0NU         0.0296
     32 H9         -1.5421  -47.9919  -22.2300 H         1 0NU         0.0553
     33 H10        -0.3003  -46.7313  -21.9207 H         1 0NU         0.0553
     34 H11        -3.1262  -46.8388  -20.8192 H         1 0NU         0.0669
     35 H12        -5.0290  -46.0961  -19.7937 H         1 0NU         0.0295
     36 H13        -0.9192  -45.5538  -23.6865 H         1 0NU         0.1328
     37 H14        -4.9581  -43.1354  -25.1618 H         1 0NU         0.0712
     38 H15        -8.0829  -43.7296  -21.5307 H         1 0NU         0.2287
     39 H16        -7.4880  -45.2127  -19.4910 H         1 0NU         0.0917
@<TRIPOS>BOND
     1    1    2 3  
     2    2    3 1  
     3    3    4 1  
     4    4    5 2  
     5    4    6 am 
     6    6    7 1  
     7    6   10 1  
     8    7    8 1  
     9    8    9 1  
    10    9   11 1  
    11   10   11 1  
    12   11   12 1  
    13   12   13 1  
    14   12   16 1  
    15   13   14 ar 
    16   13   18 ar 
    17   14   15 1  
    18   14   21 ar 
    19   15   23 2  
    20   16   17 2  
    21   17   18 1  
    22   18   19 ar 
    23   19   20 ar 
    24   20   21 ar 
    25   21   22 1  
    26   22   23 1  
    27    3   24 1  
    28    3   25 1  
    29    7   26 1  
    30    7   27 1  
    31    8   28 1  
    32    8   29 1  
    33    9   30 1  
    34    9   31 1  
    35   10   32 1  
    36   10   33 1  
    37   11   34 1  
    38   15   35 1  
    39   16   36 1  
    40   19   37 1  
    41   22   38 1  
    42   23   39 1  
@<TRIPOS>SUBSTRUCTURE
     1 0NU         1

