### 
### Created by X-TOOL on Mon Sep 10 21:13:13 2018
### 

@<TRIPOS>MOLECULE
4e70_ligand
   25    25     1     0     0
SMALL
GAST_HUCK


@<TRIPOS>ATOM
      1 C1         12.3290  -19.4400  -42.2950 C.ar      1 N7I        -0.0795
      2 O1         14.0470  -17.7590  -46.9590 O.3       1 N7I        -0.3808
      3 C2         15.8750  -16.6120  -40.0650 C.3       1 N7I         0.0568
      4 O2         12.9040  -18.9510  -38.6840 O.3       1 N7I        -0.3378
      5 C3         12.1560  -19.5850  -40.9210 C.ar      1 N7I        -0.0435
      6 O3         14.7620  -17.3980  -39.6310 O.3       1 N7I        -0.3257
      7 C4         13.0020  -18.8750  -40.0190 C.ar      1 N7I         0.1144
      8 C5         14.0290  -18.0140  -40.5620 C.ar      1 N7I         0.1165
      9 C6         14.1710  -17.8830  -41.9340 C.ar      1 N7I        -0.0403
     10 C7         13.3340  -18.6050  -42.8310 C.ar      1 N7I        -0.0595
     11 C8         13.5290  -18.4040  -44.3020 C.2       1 N7I        -0.0753
     12 C9         13.0880  -19.1810  -45.2690 C.2       1 N7I        -0.0548
     13 C10        13.2890  -18.9100  -46.7580 C.3       1 N7I         0.0739
     14 H1         11.6761  -19.9815  -42.9700 H         1 N7I         0.0472
     15 H2         14.1575  -17.6127  -47.8911 H         1 N7I         0.2134
     16 H3         16.3761  -16.1716  -39.1904 H         1 N7I         0.0573
     17 H4         15.5205  -15.8086  -40.7275 H         1 N7I         0.0573
     18 H5         16.5846  -17.2511  -40.6109 H         1 N7I         0.0573
     19 H6         13.5657  -18.3970  -38.2870 H         1 N7I         0.2442
     20 H7         11.3793  -20.2367  -40.5375 H         1 N7I         0.0508
     21 H8         14.9315  -17.2202  -42.3307 H         1 N7I         0.0473
     22 H9         14.0945  -17.5234  -44.6033 H         1 N7I         0.0412
     23 H10        12.5416  -20.0799  -44.9871 H         1 N7I         0.0700
     24 H11        13.8085  -19.7665  -47.2123 H         1 N7I         0.0748
     25 H12        12.3066  -18.7815  -47.2358 H         1 N7I         0.0748
@<TRIPOS>BOND
     1    1    5 ar 
     2   10    1 ar 
     3   13    2 1  
     4    6    3 1  
     5    7    4 1  
     6    5    7 ar 
     7    8    6 1  
     8    8    7 ar 
     9    9    8 ar 
    10   10    9 ar 
    11   11   10 1  
    12   12   11 2  
    13   12   13 1  
    14    1   14 1  
    15    2   15 1  
    16    3   16 1  
    17    3   17 1  
    18    3   18 1  
    19    4   19 1  
    20    5   20 1  
    21    9   21 1  
    22   11   22 1  
    23   12   23 1  
    24   13   24 1  
    25   13   25 1  
@<TRIPOS>SUBSTRUCTURE
     1 N7I         1

