### 
### Created by X-TOOL on Mon Sep 10 21:13:09 2018
### 

@<TRIPOS>MOLECULE
4e7r_ligand
   75    78     1     0     0
SMALL
GAST_HUCK


@<TRIPOS>ATOM
      1 C1         16.2890    2.4740   21.1970 C.ar      1 0NW        -0.0686
      2 C2         15.7060    1.8320   22.2850 C.ar      1 0NW        -0.0635
      3 C3         16.0880    0.5420   22.6000 C.ar      1 0NW         0.0192
      4 C7         18.6720   -0.2010   19.9120 C.3       1 0NW         0.0179
      5 C8         20.0910    0.0560   20.4450 C.3       1 0NW         0.1358
      6 C9         20.2890    1.4880   20.8790 C.2       1 0NW         0.2023
      7 C12        20.7310    3.8030   20.4640 C.3       1 0NW         0.0342
      8 C13        21.9650    4.4410   19.8260 C.3       1 0NW        -0.0294
      9 C14        21.9270    4.3060   18.3170 C.3       1 0NW        -0.0326
     10 C15        22.0020    2.8160   18.0350 C.3       1 0NW        -0.0294
     11 C16        20.7340    2.1530   18.5540 C.3       1 0NW         0.0342
     12 C30        25.0800    0.2470   20.6660 C.ar      1 0NW        -0.0593
     13 C31        25.0990    1.3140   21.5690 C.ar      1 0NW        -0.0539
     14 C32        24.0790    1.4380   22.5000 C.ar      1 0NW        -0.0157
     15 C33        23.0350    0.5070   22.4760 C.ar      1 0NW        -0.0274
     16 C34        24.0150    2.5720   23.4740 C.ar      1 0NW        -0.0040
     17 C35        23.7530    2.3680   24.8210 C.ar      1 0NW         0.0486
     18 C44        15.4550   -0.1500   23.7620 C.cat     1 0NW         0.2340
     19 N46        14.5580    0.4850   24.5020 N.pl3     1 0NW        -0.2722
     20 N45        15.7530   -1.3410   24.0230 N.pl3     1 0NW        -0.2722
     21 C4         17.0370   -0.1100   21.8320 C.ar      1 0NW        -0.0549
     22 C5         17.6220    0.5240   20.7430 C.ar      1 0NW        -0.0390
     23 N24        20.3940   -0.8420   21.5500 N.am      1 0NW        -0.2235
     24 S25        21.8030   -1.6230   21.5890 S.o2      1 0NW         0.0706
     25 C28        23.0090   -0.5620   21.5790 C.ar      1 0NW         0.1089
     26 C39        24.1650    3.8760   23.0190 C.ar      1 0NW        -0.0532
     27 C38        24.0780    4.9480   23.9090 C.ar      1 0NW        -0.0472
     28 C37        23.8230    4.7210   25.2510 C.ar      1 0NW         0.0410
     29 CL2        23.6790    6.0560   26.4370 Cl        1 0NW        -0.0704
     30 C36        23.6600    3.4310   25.7050 C.ar      1 0NW        -0.0334
     31 CL1        23.5460    0.7340   25.5120 Cl        1 0NW        -0.0695
     32 C29        24.0510   -0.6890   20.6680 C.ar      1 0NW        -0.0350
     33 O27        21.8470   -2.4310   22.7860 O.2       1 0NW        -0.1501
     34 O26        21.8700   -2.4570   20.4310 O.2       1 0NW        -0.1501
     35 N11        20.5910    2.4260   19.9900 N.am      1 0NW        -0.2715
     36 C17        23.1240    5.0240   17.7040 C.3       1 0NW        -0.0097
     37 C18        22.7240    5.9590   16.5640 C.3       1 0NW        -0.0351
     38 N19        22.5560    5.2200   15.3270 N.4       1 0NW         0.2185
     39 O10        20.1520    1.7890   22.0510 O.2       1 0NW        -0.3946
     40 C6         17.2380    1.8230   20.4230 C.ar      1 0NW        -0.0601
     41 H1         15.9996    3.4897   20.9527 H         1 0NW         0.0599
     42 H2         14.9572    2.3404   22.8815 H         1 0NW         0.0559
     43 H3         18.4688   -1.2816   19.9438 H         1 0NW         0.0469
     44 H4         18.6115    0.1531   18.8723 H         1 0NW         0.0469
     45 H5         20.7988   -0.1512   19.6288 H         1 0NW         0.0777
     46 H6         19.8359    4.3788   20.1861 H         1 0NW         0.0522
     47 H7         20.8425    3.8040   21.5583 H         1 0NW         0.0522
     48 H8         22.8671    3.9416   20.2092 H         1 0NW         0.0287
     49 H9         21.9960    5.5081   20.0910 H         1 0NW         0.0287
     50 H10        20.9949    4.7282   17.9134 H         1 0NW         0.0304
     51 H11        22.8779    2.3872   18.5438 H         1 0NW         0.0287
     52 H12        22.0893    2.6490   16.9513 H         1 0NW         0.0287
     53 H13        20.7954    1.0668   18.3917 H         1 0NW         0.0522
     54 H14        19.8632    2.5555   18.0159 H         1 0NW         0.0522
     55 H15        25.8857    0.1467   19.9477 H         1 0NW         0.0618
     56 H16        25.9047    2.0386   21.5416 H         1 0NW         0.0624
     57 H17        22.2175    0.6199   23.1788 H         1 0NW         0.0643
     58 H18        14.1211    0.0082   25.3036 H         1 0NW         0.3181
     59 H19        14.2976    1.4555   24.2756 H         1 0NW         0.3181
     60 H20        16.4502   -1.8353   23.4481 H         1 0NW         0.3181
     61 H21        15.3003   -1.8241   24.8120 H         1 0NW         0.3181
     62 H22        17.3264   -1.1242   22.0824 H         1 0NW         0.0556
     63 H23        19.7282   -0.9741   22.2844 H         1 0NW         0.1708
     64 H24        24.3506    4.0621   21.9673 H         1 0NW         0.0623
     65 H25        24.2105    5.9616   23.5483 H         1 0NW         0.0624
     66 H26        23.4589    3.2472   26.7542 H         1 0NW         0.0629
     67 H27        24.0617   -1.5126   19.9632 H         1 0NW         0.0637
     68 H28        23.8249    4.2714   17.3136 H         1 0NW         0.0319
     69 H29        23.6200    5.6154   18.4877 H         1 0NW         0.0319
     70 H30        23.5089    6.7174   16.4273 H         1 0NW         0.0813
     71 H31        21.7758    6.4545   16.8197 H         1 0NW         0.0813
     72 H32        22.2927    5.8547   14.5895 H         1 0NW         0.1994
     73 H33        21.8352    4.5255   15.4457 H         1 0NW         0.1994
     74 H34        23.4233    4.7664   15.0861 H         1 0NW         0.1994
     75 H35        17.6800    2.3251   19.5700 H         1 0NW         0.0557
@<TRIPOS>BOND
     1    1    2 ar 
     2   40    1 ar 
     3    3    2 ar 
     4    3   18 1  
     5   21    3 ar 
     6    5    4 1  
     7    4   22 1  
     8    5    6 1  
     9   23    5 1  
    10    6   35 am 
    11    6   39 2  
    12    7    8 1  
    13   35    7 1  
    14    8    9 1  
    15   10    9 1  
    16    9   36 1  
    17   11   10 1  
    18   35   11 1  
    19   13   12 ar 
    20   12   32 ar 
    21   14   13 ar 
    22   15   14 ar 
    23   14   16 1  
    24   25   15 ar 
    25   16   17 ar 
    26   16   26 ar 
    27   17   30 ar 
    28   17   31 1  
    29   18   19 ar 
    30   18   20 ar 
    31   22   21 ar 
    32   22   40 ar 
    33   24   23 am 
    34   24   25 1  
    35   24   33 2  
    36   24   34 2  
    37   25   32 ar 
    38   26   27 ar 
    39   27   28 ar 
    40   28   29 1  
    41   28   30 ar 
    42   36   37 1  
    43   37   38 1  
    44    1   41 1  
    45    2   42 1  
    46    4   43 1  
    47    4   44 1  
    48    5   45 1  
    49    7   46 1  
    50    7   47 1  
    51    8   48 1  
    52    8   49 1  
    53    9   50 1  
    54   10   51 1  
    55   10   52 1  
    56   11   53 1  
    57   11   54 1  
    58   12   55 1  
    59   13   56 1  
    60   15   57 1  
    61   19   58 1  
    62   19   59 1  
    63   20   60 1  
    64   20   61 1  
    65   21   62 1  
    66   23   63 1  
    67   26   64 1  
    68   27   65 1  
    69   30   66 1  
    70   32   67 1  
    71   36   68 1  
    72   36   69 1  
    73   37   70 1  
    74   37   71 1  
    75   38   72 1  
    76   38   73 1  
    77   38   74 1  
    78   40   75 1  
@<TRIPOS>SUBSTRUCTURE
     1 0NW         1

