### 
### Created by X-TOOL on Mon Sep 10 21:13:11 2018
### 

@<TRIPOS>MOLECULE
4e8w_ligand
   50    53     1     0     0
SMALL
GAST_HUCK


@<TRIPOS>ATOM
      1 O27        13.1860  -41.6630  -22.5900 O.co2     1 IHA        -0.5663
      2 C25        13.4870  -40.5200  -23.0010 C.2       1 IHA         0.0650
      3 O26        12.6570  -39.5930  -23.1230 O.co2     1 IHA        -0.5663
      4 C24        14.9190  -40.2340  -23.3820 C.3       1 IHA         0.1210
      5 O23        15.0940  -38.8210  -23.4080 O.3       1 IHA        -0.3095
      6 C22        16.1970  -38.2720  -23.9930 C.ar      1 IHA         0.0817
      7 C21        17.0250  -39.0580  -24.7900 C.ar      1 IHA        -0.0315
      8 C28        16.4660  -36.9250  -23.7860 C.ar      1 IHA        -0.0423
      9 C29        17.5810  -36.3520  -24.3730 C.ar      1 IHA        -0.0573
     10 C30        18.3970  -37.1510  -25.1610 C.ar      1 IHA         0.0426
     11 C20        18.1470  -38.4970  -25.3880 C.ar      1 IHA         0.0130
     12 N19        19.1210  -39.0220  -26.2040 N.2       1 IHA        -0.3098
     13 S31        19.7210  -36.6040  -25.9050 S.3       1 IHA         0.0030
     14 C18        20.0620  -38.1020  -26.5690 C.2       1 IHA         0.1187
     15 C17        21.3090  -38.1320  -27.4240 C.3       1 IHA         0.1066
     16 N16        22.2430  -39.1050  -26.8930 N.pl3     1 IHA        -0.2685
     17 C15        22.6150  -39.0190  -25.6010 C.ar      1 IHA         0.1764
     18 N14        23.5630  -38.1520  -25.1970 N.ar      1 IHA        -0.2534
     19 N13        23.9200  -38.0940  -23.8470 N.ar      1 IHA        -0.2360
     20 C12        23.3240  -38.9030  -22.9590 C.ar      1 IHA         0.0750
     21 N32        22.0210  -39.8330  -24.7110 N.ar      1 IHA        -0.2317
     22 C11        22.3500  -39.7910  -23.4080 C.ar      1 IHA         0.1019
     23 C10        21.6390  -40.7080  -22.4900 C.ar      1 IHA         0.0911
     24 C3         22.1900  -41.9300  -22.1770 C.ar      1 IHA         0.1118
     25 O2         23.4030  -42.2820  -22.7360 O.3       1 IHA        -0.3133
     26 C1         24.4970  -42.7410  -21.9200 C.3       1 IHA         0.0628
     27 C7         20.4240  -40.3380  -21.9630 C.ar      1 IHA         0.1118
     28 O8         19.9000  -39.1140  -22.2900 O.3       1 IHA        -0.3133
     29 C9         18.7490  -38.6060  -21.6020 C.3       1 IHA         0.0628
     30 C6         19.7460  -41.1980  -21.1080 C.ar      1 IHA        -0.0314
     31 C5         20.2950  -42.4340  -20.7880 C.ar      1 IHA        -0.0695
     32 C4         21.5180  -42.8050  -21.3290 C.ar      1 IHA        -0.0314
     33 H          15.1401  -40.6588  -24.3612 H         1 IHA         0.0782
     34 H          15.5983  -40.6842  -22.6581 H         1 IHA         0.0782
     35 H          16.7935  -40.1118  -24.9447 H         1 IHA         0.0467
     36 H          15.8029  -36.3227  -23.1649 H         1 IHA         0.0490
     37 H          17.8125  -35.2979  -24.2198 H         1 IHA         0.0543
     38 H          21.7735  -37.1459  -27.4197 H         1 IHA         0.0813
     39 H          21.0410  -38.4080  -28.4438 H         1 IHA         0.0813
     40 H          22.6136  -39.8448  -27.4895 H         1 IHA         0.1934
     41 H          23.5972  -38.8661  -21.9044 H         1 IHA         0.1132
     42 H          24.7659  -41.9639  -21.2045 H         1 IHA         0.0585
     43 H          24.1963  -43.6414  -21.3844 H         1 IHA         0.0585
     44 H          25.3540  -42.9639  -22.5555 H         1 IHA         0.0585
     45 H          17.9125  -39.2908  -21.7412 H         1 IHA         0.0585
     46 H          18.9732  -38.5156  -20.5391 H         1 IHA         0.0585
     47 H          18.4895  -37.6268  -22.0045 H         1 IHA         0.0585
     48 H          18.7841  -40.9035  -20.6884 H         1 IHA         0.0479
     49 H          19.7671  -43.1094  -20.1147 H         1 IHA         0.0640
     50 H          21.9500  -43.7770  -21.0908 H         1 IHA         0.0479
@<TRIPOS>BOND
     1    1    2 ar 
     2    2    3 ar 
     3    2    4 1  
     4    4    5 1  
     5    5    6 1  
     6    6    7 ar 
     7    6    8 ar 
     8    7   11 ar 
     9    8    9 ar 
    10    9   10 ar 
    11   10   11 ar 
    12   10   13 1  
    13   11   12 1  
    14   12   14 2  
    15   13   14 1  
    16   14   15 1  
    17   15   16 1  
    18   16   17 1  
    19   17   18 ar 
    20   17   21 ar 
    21   18   19 ar 
    22   19   20 ar 
    23   20   22 ar 
    24   21   22 ar 
    25   22   23 1  
    26   23   24 ar 
    27   23   27 ar 
    28   24   25 1  
    29   24   32 ar 
    30   25   26 1  
    31   27   28 1  
    32   27   30 ar 
    33   28   29 1  
    34   30   31 ar 
    35   31   32 ar 
    36    4   33 1  
    37    4   34 1  
    38    7   35 1  
    39    8   36 1  
    40    9   37 1  
    41   15   38 1  
    42   15   39 1  
    43   16   40 1  
    44   20   41 1  
    45   26   42 1  
    46   26   43 1  
    47   26   44 1  
    48   29   45 1  
    49   29   46 1  
    50   29   47 1  
    51   30   48 1  
    52   31   49 1  
    53   32   50 1  
@<TRIPOS>SUBSTRUCTURE
     1 IHA         1

