### 
### Created by X-TOOL on Mon Sep 10 21:13:10 2018
### 

@<TRIPOS>MOLECULE
4e8y_ligand
   50    53     1     0     0
SMALL
GAST_HUCK


@<TRIPOS>ATOM
      1 O27         6.0190  -11.0650   30.0990 O.co2     1 IHA        -0.5663
      2 C25         7.0580  -11.7640   30.0790 C.2       1 IHA         0.0650
      3 O26         7.0900  -12.9530   29.6910 O.co2     1 IHA        -0.5663
      4 C24         8.3540  -11.1540   30.5410 C.3       1 IHA         0.1210
      5 O23         9.2490  -11.1010   29.4340 O.3       1 IHA        -0.3095
      6 C22        10.5270  -10.6720   29.6600 C.ar      1 IHA         0.0817
      7 C21        11.5880  -11.5670   29.5770 C.ar      1 IHA        -0.0315
      8 C28        10.7460   -9.3310   29.9610 C.ar      1 IHA        -0.0423
      9 C29        12.0380   -8.8750   30.1960 C.ar      1 IHA        -0.0573
     10 C30        13.0860   -9.7820   30.1140 C.ar      1 IHA         0.0426
     11 C20        12.8820  -11.1220   29.8060 C.ar      1 IHA         0.0130
     12 N19        14.0790  -11.7830   29.7880 N.2       1 IHA        -0.3098
     13 S31        14.6420   -9.3990   30.3550 S.3       1 IHA         0.0030
     14 C18        15.1430  -10.9840   30.0680 C.2       1 IHA         0.1187
     15 C17        16.6220  -11.2790   30.1640 C.3       1 IHA         0.1066
     16 N16        17.1610  -10.7740   31.4130 N.pl3     1 IHA        -0.2685
     17 C15        16.9870  -11.4230   32.5880 C.ar      1 IHA         0.1764
     18 N14        17.8920  -11.2360   33.5690 N.ar      1 IHA        -0.2534
     19 N13        17.7360  -11.8860   34.7970 N.ar      1 IHA        -0.2360
     20 C12        16.6880  -12.6880   34.9990 C.ar      1 IHA         0.0750
     21 N32        15.9250  -12.2370   32.7980 N.ar      1 IHA        -0.2317
     22 C11        15.7600  -12.8810   33.9810 C.ar      1 IHA         0.1019
     23 C10        14.5720  -13.7630   34.1970 C.ar      1 IHA         0.0911
     24 C3         14.6710  -15.0420   34.7310 C.ar      1 IHA         0.1118
     25 O2         15.8870  -15.5670   35.0790 O.3       1 IHA        -0.3133
     26 C1         15.9780  -16.7510   35.8700 C.3       1 IHA         0.0628
     27 C7         13.3240  -13.2660   33.8630 C.ar      1 IHA         0.1118
     28 O8         13.2250  -12.0030   33.3430 O.3       1 IHA        -0.3133
     29 C9         11.9510  -11.4630   33.0110 C.3       1 IHA         0.0628
     30 C6         12.1770  -14.0320   34.0450 C.ar      1 IHA        -0.0314
     31 C5         12.2730  -15.3130   34.5720 C.ar      1 IHA        -0.0695
     32 C4         13.5240  -15.8130   34.9140 C.ar      1 IHA        -0.0314
     33 H           8.7854  -11.7576   31.3395 H         1 IHA         0.0782
     34 H           8.1764  -10.1491   30.9241 H         1 IHA         0.0782
     35 H          11.4039  -12.6133   29.3332 H         1 IHA         0.0467
     36 H           9.9054   -8.6390   30.0124 H         1 IHA         0.0490
     37 H          12.2241   -7.8289   30.4392 H         1 IHA         0.0543
     38 H          17.1348  -10.7921   29.3345 H         1 IHA         0.0813
     39 H          16.7711  -12.3580   30.1245 H         1 IHA         0.0813
     40 H          17.6885   -9.9010   31.4053 H         1 IHA         0.1934
     41 H          16.5600  -13.1897   35.9582 H         1 IHA         0.1132
     42 H          15.4898  -16.5834   36.8300 H         1 IHA         0.0585
     43 H          15.4864  -17.5728   35.3495 H         1 IHA         0.0585
     44 H          17.0271  -16.9980   36.0326 H         1 IHA         0.0585
     45 H          11.4750  -12.0936   32.2600 H         1 IHA         0.0585
     46 H          11.3286  -11.4277   33.9051 H         1 IHA         0.0585
     47 H          12.0770  -10.4555   32.6145 H         1 IHA         0.0585
     48 H          11.2024  -13.6263   33.7737 H         1 IHA         0.0479
     49 H          11.3784  -15.9190   34.7157 H         1 IHA         0.0640
     50 H          13.6090  -16.8173   35.3291 H         1 IHA         0.0479
@<TRIPOS>BOND
     1    1    2 ar 
     2    2    3 ar 
     3    2    4 1  
     4    4    5 1  
     5    5    6 1  
     6    6    7 ar 
     7    6    8 ar 
     8    7   11 ar 
     9    8    9 ar 
    10    9   10 ar 
    11   10   11 ar 
    12   10   13 1  
    13   11   12 1  
    14   12   14 2  
    15   13   14 1  
    16   14   15 1  
    17   15   16 1  
    18   16   17 1  
    19   17   18 ar 
    20   17   21 ar 
    21   18   19 ar 
    22   19   20 ar 
    23   20   22 ar 
    24   21   22 ar 
    25   22   23 1  
    26   23   24 ar 
    27   23   27 ar 
    28   24   25 1  
    29   24   32 ar 
    30   25   26 1  
    31   27   28 1  
    32   27   30 ar 
    33   28   29 1  
    34   30   31 ar 
    35   31   32 ar 
    36    4   33 1  
    37    4   34 1  
    38    7   35 1  
    39    8   36 1  
    40    9   37 1  
    41   15   38 1  
    42   15   39 1  
    43   16   40 1  
    44   20   41 1  
    45   26   42 1  
    46   26   43 1  
    47   26   44 1  
    48   29   45 1  
    49   29   46 1  
    50   29   47 1  
    51   30   48 1  
    52   31   49 1  
    53   32   50 1  
@<TRIPOS>SUBSTRUCTURE
     1 IHA         1

