### 
### Created by X-TOOL on Mon Sep 10 21:13:11 2018
### 

@<TRIPOS>MOLECULE
4e8z_ligand
   42    45     1     0     0
SMALL
GAST_HUCK


@<TRIPOS>ATOM
      1 CL1       -14.0570    3.0480   21.2320 Cl        1 IHC        -0.0606
      2 CL2       -10.5330    7.1430   22.4250 Cl        1 IHC        -0.0606
      3 C1        -20.9930    3.9970   21.3160 C.2       1 IHC         0.0650
      4 N1        -11.6760    2.3050   25.5540 N.pl3     1 IHC        -0.2664
      5 O1        -20.7160    5.1800   21.4200 O.co2     1 IHC        -0.5663
      6 C2        -20.0690    2.9590   21.9050 C.3       1 IHC         0.1210
      7 N2        -10.0280    2.4890   23.9110 N.ar      1 IHC        -0.2421
      8 O2        -22.1070    3.6450   20.6790 O.co2     1 IHC        -0.5663
      9 C3        -18.1430    3.0380   23.3790 C.ar      1 IHC         0.0817
     10 N3         -9.5520    3.0210   22.7060 N.ar      1 IHC        -0.2311
     11 O3        -19.3230    3.5830   22.9480 O.3       1 IHC        -0.3095
     12 C4        -17.8090    1.7460   22.9850 C.ar      1 IHC        -0.0423
     13 N4        -12.0000    3.7190   23.6710 N.ar      1 IHC        -0.2165
     14 C5        -16.6140    1.1830   23.4140 C.ar      1 IHC        -0.0573
     15 N5        -15.0800    3.7090   25.4300 N.2       1 IHC        -0.3098
     16 C6        -15.7720    1.9300   24.2270 C.ar      1 IHC         0.0426
     17 C7        -14.0550    2.8250   25.6090 C.2       1 IHC         0.1187
     18 C8        -12.7450    2.8740   26.3650 C.3       1 IHC         0.1068
     19 C9        -11.2420    2.8480   24.3840 C.ar      1 IHC         0.1890
     20 C10       -10.3050    3.8830   22.0160 C.ar      1 IHC         0.0791
     21 C11       -11.5530    4.2500   22.5070 C.ar      1 IHC         0.1117
     22 C12       -12.4010    5.2080   21.7390 C.ar      1 IHC         0.0555
     23 C13       -13.5600    4.7690   21.1130 C.ar      1 IHC         0.0636
     24 C14       -14.3480    5.6610   20.3920 C.ar      1 IHC        -0.0379
     25 C15       -13.9790    6.9950   20.2890 C.ar      1 IHC        -0.0527
     26 C16       -12.8170    7.4320   20.9120 C.ar      1 IHC        -0.0379
     27 C17       -12.0270    6.5410   21.6300 C.ar      1 IHC         0.0636
     28 C18       -16.0850    3.2220   24.6310 C.ar      1 IHC         0.0130
     29 C19       -17.2870    3.7760   24.1960 C.ar      1 IHC        -0.0315
     30 S         -14.3540    1.3940   24.7940 S.3       1 IHC         0.0030
     31 H         -11.2270    1.4501   25.8825 H         1 IHC         0.1937
     32 H         -19.3977    2.5709   21.1389 H         1 IHC         0.0782
     33 H         -20.6432    2.1206   22.2992 H         1 IHC         0.0782
     34 H         -18.4821    1.1783   22.3426 H         1 IHC         0.0490
     35 H         -16.3413    0.1703   23.1170 H         1 IHC         0.0543
     36 H         -12.5045    3.9117   26.5962 H         1 IHC         0.0813
     37 H         -12.8414    2.2972   27.2848 H         1 IHC         0.0813
     38 H          -9.9431    4.2957   21.0743 H         1 IHC         0.1135
     39 H         -15.2587    5.3106   19.9062 H         1 IHC         0.0648
     40 H         -14.5959    7.6938   19.7240 H         1 IHC         0.0685
     41 H         -12.5229    8.4789   20.8377 H         1 IHC         0.0648
     42 H         -17.5589    4.7883   24.4948 H         1 IHC         0.0467
@<TRIPOS>BOND
     1   23    1 1  
     2   27    2 1  
     3    3    5 ar 
     4    6    3 1  
     5    3    8 ar 
     6    4   18 1  
     7   19    4 1  
     8   11    6 1  
     9   10    7 ar 
    10   19    7 ar 
    11    9   11 1  
    12   12    9 ar 
    13    9   29 ar 
    14   20   10 ar 
    15   14   12 ar 
    16   13   19 ar 
    17   21   13 ar 
    18   16   14 ar 
    19   17   15 2  
    20   15   28 1  
    21   16   28 ar 
    22   30   16 1  
    23   18   17 1  
    24   17   30 1  
    25   21   20 ar 
    26   22   21 1  
    27   22   23 ar 
    28   22   27 ar 
    29   23   24 ar 
    30   24   25 ar 
    31   25   26 ar 
    32   26   27 ar 
    33   28   29 ar 
    34    4   31 1  
    35    6   32 1  
    36    6   33 1  
    37   12   34 1  
    38   14   35 1  
    39   18   36 1  
    40   18   37 1  
    41   20   38 1  
    42   24   39 1  
    43   25   40 1  
    44   26   41 1  
    45   29   42 1  
@<TRIPOS>SUBSTRUCTURE
     1 IHC         1

