### 
### Created by X-TOOL on Mon Sep 10 21:13:14 2018
### 

@<TRIPOS>MOLECULE
4e90_ligand
   55    59     1     0     0
SMALL
GAST_HUCK


@<TRIPOS>ATOM
      1 N1         77.8500   51.0390   42.1990 N.pl3     1 7RG        -0.1716
      2 N2         78.4570   50.5020   43.3420 N.2       1 7RG        -0.2275
      3 C3         77.7490   50.8010   44.3920 C.2       1 7RG         0.0001
      4 C4         76.6640   51.6000   43.9900 C.2       1 7RG         0.0738
      5 C5         75.5540   52.2770   44.6750 C.2       1 7RG         0.1305
      6 O6         75.4030   52.2170   45.8860 O.2       1 7RG        -0.4240
      7 N7         74.7020   52.9970   43.8970 N.2       1 7RG        -0.2740
      8 C8         74.8650   53.0910   42.5430 C.2       1 7RG         0.1531
      9 N9         75.8420   52.4850   41.9220 N.pl3     1 7RG        -0.1970
     10 C10        76.7510   51.7340   42.5880 C.2       1 7RG         0.2188
     11 C11        73.8980   53.9560   41.7640 C.3       1 7RG         0.0990
     12 C12        73.1960   53.1980   40.6220 C.3       1 7RG        -0.0055
     13 N13        73.5670   53.9320   39.4020 N.4       1 7RG         0.2553
     14 C14        73.7970   55.3320   39.7850 C.3       1 7RG        -0.0235
     15 C15        74.6070   55.1690   41.0880 C.3       1 7RG         0.0252
     16 C16        72.4070   53.9170   38.5100 C.3       1 7RG         0.0374
     17 C17        72.5040   52.7440   37.5750 C.ar      1 7RG         0.1501
     18 N18        73.6950   52.3270   37.1540 N.ar      1 7RG        -0.2592
     19 C19        73.7930   51.3100   36.2990 C.ar      1 7RG         0.0216
     20 C20        72.6310   50.6640   35.8630 C.ar      1 7RG        -0.0158
     21 C21        71.4000   51.1250   36.3420 C.ar      1 7RG         0.0216
     22 N22        71.3780   52.1510   37.1930 N.ar      1 7RG        -0.2592
     23 C23        78.3460   50.9970   40.8290 C.3       1 7RG         0.0871
     24 C24        77.9510   49.7090   40.0900 C.3       1 7RG         0.0025
     25 C25        78.5560   49.7750   38.6720 C.3       1 7RG         0.0505
     26 O26        79.9850   49.9280   38.7610 O.3       1 7RG        -0.3795
     27 C27        80.3390   51.2120   39.2990 C.3       1 7RG         0.0505
     28 C28        79.8470   51.3380   40.7490 C.3       1 7RG         0.0025
     29 C29        74.5240   56.4260   41.9530 C.3       1 7RG        -0.0541
     30 H1         77.9614   50.4850   45.4123 H         1 7RG         0.0654
     31 H2         75.9228   52.5810   40.8997 H         1 7RG         0.2418
     32 H3         73.1385   54.3272   42.4679 H         1 7RG         0.0672
     33 H4         72.1052   53.2073   40.7635 H         1 7RG         0.0856
     34 H5         73.5504   52.1579   40.5716 H         1 7RG         0.0856
     35 H6         74.3791   53.5295   38.9610 H         1 7RG         0.2057
     36 H7         72.8488   55.8596   39.9654 H         1 7RG         0.0820
     37 H8         74.3748   55.8682   39.0178 H         1 7RG         0.0820
     38 H9         75.6622   54.9430   40.8750 H         1 7RG         0.0391
     39 H10        72.3821   54.8490   37.9263 H         1 7RG         0.1058
     40 H11        71.4871   53.8337   39.1073 H         1 7RG         0.1058
     41 H12        74.7646   50.9858   35.9442 H         1 7RG         0.0920
     42 H13        72.6831   49.8294   35.1732 H         1 7RG         0.0720
     43 H14        70.4763   50.6542   36.0254 H         1 7RG         0.0920
     44 H15        77.8294   51.8095   40.2970 H         1 7RG         0.0667
     45 H16        76.8554   49.6350   40.0263 H         1 7RG         0.0318
     46 H17        78.3472   48.8337   40.6255 H         1 7RG         0.0318
     47 H18        78.1293   50.6330   38.1319 H         1 7RG         0.0561
     48 H19        78.3207   48.8470   38.1304 H         1 7RG         0.0561
     49 H20        79.8754   52.0012   38.6889 H         1 7RG         0.0561
     50 H21        81.4328   51.3258   39.2761 H         1 7RG         0.0561
     51 H22        80.4127   50.6432   41.3871 H         1 7RG         0.0318
     52 H23        80.0054   52.3688   41.0989 H         1 7RG         0.0318
     53 H24        75.1102   56.2781   42.8719 H         1 7RG         0.0237
     54 H25        73.4739   56.6218   42.2156 H         1 7RG         0.0237
     55 H26        74.9282   57.2830   41.3942 H         1 7RG         0.0237
@<TRIPOS>BOND
     1    1    2 1  
     2    1   10 1  
     3    1   23 1  
     4    2    3 2  
     5    3    4 1  
     6    4    5 1  
     7    4   10 2  
     8    5    6 2  
     9    5    7 1  
    10    7    8 2  
    11    8    9 1  
    12    8   11 1  
    13    9   10 1  
    14   11   12 1  
    15   11   15 1  
    16   12   13 1  
    17   13   14 1  
    18   13   16 1  
    19   14   15 1  
    20   15   29 1  
    21   16   17 1  
    22   17   18 ar 
    23   17   22 ar 
    24   18   19 ar 
    25   19   20 ar 
    26   20   21 ar 
    27   21   22 ar 
    28   23   24 1  
    29   23   28 1  
    30   24   25 1  
    31   25   26 1  
    32   26   27 1  
    33   27   28 1  
    34    3   30 1  
    35    9   31 1  
    36   11   32 1  
    37   12   33 1  
    38   12   34 1  
    39   13   35 1  
    40   14   36 1  
    41   14   37 1  
    42   15   38 1  
    43   16   39 1  
    44   16   40 1  
    45   19   41 1  
    46   20   42 1  
    47   21   43 1  
    48   23   44 1  
    49   24   45 1  
    50   24   46 1  
    51   25   47 1  
    52   25   48 1  
    53   27   49 1  
    54   27   50 1  
    55   28   51 1  
    56   28   52 1  
    57   29   53 1  
    58   29   54 1  
    59   29   55 1  
@<TRIPOS>SUBSTRUCTURE
     1 7RG         1

