### 
### Created by X-TOOL on Mon Sep 10 21:13:10 2018
### 

@<TRIPOS>MOLECULE
4e93_ligand
   84    88     1     0     0
SMALL
GAST_HUCK


@<TRIPOS>ATOM
      1 C1          2.0770   14.3910   23.7010 C.ar      1 GUI         0.0977
      2 C2          2.4490   15.5000   24.4940 C.ar      1 GUI         0.1474
      3 N3          1.4880   16.1830   25.1490 N.ar      1 GUI        -0.2355
      4 C4          0.2280   15.7720   25.1410 C.ar      1 GUI         0.1902
      5 N5         -0.1570   14.6940   24.3790 N.ar      1 GUI        -0.2698
      6 C6          0.7450   13.9990   23.7120 C.ar      1 GUI         0.0145
      7 N7         -0.7070   16.4230   25.7820 N.pl3     1 GUI        -0.2542
      8 C8         -0.5960   17.4730   26.6370 C.ar      1 GUI         0.0831
      9 C9          0.5700   17.7530   27.3490 C.ar      1 GUI        -0.0568
     10 C10         0.6150   18.8670   28.1920 C.ar      1 GUI        -0.0642
     11 C11        -0.4880   19.7080   28.3160 C.ar      1 GUI         0.0202
     12 C12        -1.6480   19.4670   27.5600 C.ar      1 GUI        -0.0241
     13 C13        -1.6740   18.3280   26.7390 C.ar      1 GUI         0.1048
     14 O14        -2.7730   18.0310   26.0150 O.3       1 GUI        -0.3280
     15 C15        -3.8470   18.9800   26.1190 C.3       1 GUI         0.0568
     16 N16        -0.3650   20.8640   29.1480 N.pl3     1 GUI        -0.3162
     17 C17         0.6370   20.8540   30.2660 C.3       1 GUI         0.0297
     18 C18         0.5260   22.0410   31.2410 C.3       1 GUI         0.0097
     19 C19         0.2780   23.4090   30.5840 C.3       1 GUI        -0.0169
     20 C20        -0.9500   23.3420   29.6250 C.3       1 GUI         0.0097
     21 C21        -0.9390   22.1430   28.6030 C.3       1 GUI         0.0297
     22 N22        -0.0180   24.5080   31.6190 N.4       1 GUI         0.2449
     23 C23         1.1370   24.8190   32.4080 C.3       1 GUI         0.0097
     24 C24         0.7630   26.0320   33.3340 C.3       1 GUI         0.0092
     25 N25        -0.2830   26.9140   32.7550 N.4       1 GUI         0.2405
     26 C26        -0.4620   26.9390   31.3120 C.3       1 GUI         0.0092
     27 C27        -0.5180   25.5350   30.7440 C.3       1 GUI         0.0097
     28 C28        -0.0670   28.3130   33.1810 C.3       1 GUI        -0.0427
     29 N29         3.7340   15.8670   24.5110 N.pl3     1 GUI        -0.2538
     30 C30         4.2700   16.9410   25.1510 C.ar      1 GUI         0.0891
     31 C31         5.6360   16.9570   25.4930 C.ar      1 GUI         0.1116
     32 C32         6.1360   18.1020   26.1670 C.ar      1 GUI        -0.0464
     33 C33         5.3470   19.2160   26.4420 C.ar      1 GUI        -0.0715
     34 C34         3.9940   19.2060   26.1160 C.ar      1 GUI        -0.0713
     35 C35         3.5020   18.0460   25.4850 C.ar      1 GUI        -0.0363
     36 S36         6.7120   15.6950   25.2160 S.o2      1 GUI        -0.0030
     37 C37         6.7930   14.6930   26.7270 C.3       1 GUI         0.0748
     38 C38         5.4070   14.0960   26.9570 C.3       1 GUI        -0.0429
     39 C39         7.2060   15.5250   27.9370 C.3       1 GUI        -0.0429
     40 O40         8.1260   16.1550   24.9640 O.2       1 GUI        -0.1707
     41 O41         6.2780   14.8260   24.0870 O.2       1 GUI        -0.1707
     42 CL          3.2470   13.4590   22.8500 Cl        1 GUI        -0.0753
     43 H1          0.4427   13.1123   23.1667 H         1 GUI         0.0853
     44 H2         -1.6678   16.0917   25.6145 H         1 GUI         0.2118
     45 H3          1.4370   17.1100   27.2492 H         1 GUI         0.0475
     46 H4          1.5171   19.0783   28.7546 H         1 GUI         0.0397
     47 H5         -2.4966   20.1397   27.6091 H         1 GUI         0.0409
     48 H6         -4.6906   18.6487   25.4956 H         1 GUI         0.0573
     49 H7         -3.5005   19.9652   25.7736 H         1 GUI         0.0573
     50 H8         -4.1721   19.0525   27.1674 H         1 GUI         0.0573
     51 H9          1.6440   20.8672   29.8236 H         1 GUI         0.0511
     52 H10         0.5007   19.9255   30.8399 H         1 GUI         0.0511
     53 H11         1.4653   22.1025   31.8101 H         1 GUI         0.0339
     54 H12        -0.3075   21.8385   31.9297 H         1 GUI         0.0339
     55 H13         1.1750   23.6867   30.0111 H         1 GUI         0.0852
     56 H14        -0.9840   24.2790   29.0498 H         1 GUI         0.0339
     57 H15        -1.8578   23.2563   30.2402 H         1 GUI         0.0339
     58 H16        -1.9756   21.9486   28.2904 H         1 GUI         0.0511
     59 H17        -0.3423   22.4423   27.7287 H         1 GUI         0.0511
     60 H18        -0.7464   24.2180   32.2525 H         1 GUI         0.2040
     61 H19         1.9773   25.0918   31.7527 H         1 GUI         0.0868
     62 H20         1.4177   23.9504   33.0218 H         1 GUI         0.0868
     63 H21         1.6689   26.6317   33.5064 H         1 GUI         0.0868
     64 H22         0.3957   25.6385   34.2933 H         1 GUI         0.0868
     65 H23        -1.1564   26.5969   33.1457 H         1 GUI         0.2035
     66 H24         0.3809   27.4779   30.8548 H         1 GUI         0.0868
     67 H25        -1.4017   27.4597   31.0756 H         1 GUI         0.0868
     68 H26        -1.5672   25.3029   30.5090 H         1 GUI         0.0868
     69 H27         0.0777   25.5163   29.8194 H         1 GUI         0.0868
     70 H28         0.0743   28.3466   34.2714 H         1 GUI         0.0778
     71 H29        -0.9426   28.9194   32.9060 H         1 GUI         0.0778
     72 H30         0.8280   28.7140   32.6828 H         1 GUI         0.0778
     73 H31         4.3888   15.2728   23.9828 H         1 GUI         0.2165
     74 H32         7.1737   18.1094   26.4802 H         1 GUI         0.0606
     75 H33         5.7861   20.0899   26.9094 H         1 GUI         0.0520
     76 H34         3.3500   20.0495   26.3367 H         1 GUI         0.0587
     77 H35         2.4458   18.0154   25.2430 H         1 GUI         0.0537
     78 H36         7.5253   13.8842   26.5868 H         1 GUI         0.0533
     79 H37         5.4197   13.4802   27.8684 H         1 GUI         0.0248
     80 H38         5.1296   13.4705   26.0957 H         1 GUI         0.0248
     81 H39         4.6730   14.9070   27.0728 H         1 GUI         0.0248
     82 H40         7.2428   14.8820   28.8288 H         1 GUI         0.0248
     83 H41         6.4736   16.3302   28.0956 H         1 GUI         0.0248
     84 H42         8.1994   15.9626   27.7593 H         1 GUI         0.0248
@<TRIPOS>BOND
     1    1    2 ar 
     2    1    6 ar 
     3    1   42 1  
     4    2    3 ar 
     5    2   29 1  
     6    3    4 ar 
     7    4    5 ar 
     8    4    7 1  
     9    5    6 ar 
    10    7    8 1  
    11    8    9 ar 
    12    8   13 ar 
    13    9   10 ar 
    14   10   11 ar 
    15   11   12 ar 
    16   11   16 1  
    17   12   13 ar 
    18   13   14 1  
    19   14   15 1  
    20   16   17 1  
    21   16   21 1  
    22   17   18 1  
    23   18   19 1  
    24   19   20 1  
    25   19   22 1  
    26   20   21 1  
    27   22   23 1  
    28   22   27 1  
    29   23   24 1  
    30   24   25 1  
    31   25   26 1  
    32   25   28 1  
    33   26   27 1  
    34   29   30 1  
    35   30   31 ar 
    36   30   35 ar 
    37   31   32 ar 
    38   31   36 1  
    39   32   33 ar 
    40   33   34 ar 
    41   34   35 ar 
    42   36   37 1  
    43   36   40 2  
    44   36   41 2  
    45   37   38 1  
    46   37   39 1  
    47    6   43 1  
    48    7   44 1  
    49    9   45 1  
    50   10   46 1  
    51   12   47 1  
    52   15   48 1  
    53   15   49 1  
    54   15   50 1  
    55   17   51 1  
    56   17   52 1  
    57   18   53 1  
    58   18   54 1  
    59   19   55 1  
    60   20   56 1  
    61   20   57 1  
    62   21   58 1  
    63   21   59 1  
    64   22   60 1  
    65   23   61 1  
    66   23   62 1  
    67   24   63 1  
    68   24   64 1  
    69   25   65 1  
    70   26   66 1  
    71   26   67 1  
    72   27   68 1  
    73   27   69 1  
    74   28   70 1  
    75   28   71 1  
    76   28   72 1  
    77   29   73 1  
    78   32   74 1  
    79   33   75 1  
    80   34   76 1  
    81   35   77 1  
    82   37   78 1  
    83   38   79 1  
    84   38   80 1  
    85   38   81 1  
    86   39   82 1  
    87   39   83 1  
    88   39   84 1  
@<TRIPOS>SUBSTRUCTURE
     1 GUI         1

