### 
### Created by X-TOOL on Mon Sep 10 21:13:11 2018
### 

@<TRIPOS>MOLECULE
4e96_ligand
   41    43     1     0     0
SMALL
GAST_HUCK


@<TRIPOS>ATOM
      1 CAX        27.3250   13.8220   -6.1070 C.3       1 0NS         0.0595
      2 OAW        26.5780   14.0800   -4.8550 O.3       1 0NS        -0.3192
      3 CAE        26.2290   15.3730   -4.5680 C.ar      1 0NS         0.1177
      4 CAF        26.5080   16.3920   -5.4780 C.ar      1 0NS        -0.0312
      5 CAA        26.1180   17.7040   -5.1820 C.ar      1 0NS        -0.0705
      6 CAB        25.4880   18.0280   -4.0040 C.ar      1 0NS        -0.0710
      7 CAC        25.2320   17.0330   -3.0790 C.ar      1 0NS        -0.0434
      8 CAD        25.5520   15.7140   -3.3800 C.ar      1 0NS         0.1414
      9 SAT        25.2120   14.4980   -2.1690 S.o2      1 0NS         0.0848
     10 OAU        24.4250   13.3740   -2.7560 O.2       1 0NS        -0.1469
     11 OAV        24.5590   15.1630   -1.0130 O.2       1 0NS        -0.1469
     12 NAG        26.7170   13.9770   -1.7620 N.am      1 0NS        -0.1987
     13 CAH        27.7490   14.8060   -1.4870 C.ar      1 0NS         0.0411
     14 CAM        27.6820   15.7430   -0.4450 C.ar      1 0NS        -0.0539
     15 CAL        28.7760   16.5630   -0.1280 C.ar      1 0NS        -0.0134
     16 CAQ        28.5820   17.5480    1.0110 C.3       1 0NS         0.0609
     17 NAP        29.7430   18.4570    1.1770 N.am      1 0NS        -0.2496
     18 CAS        29.6700   19.5550    2.1940 C.3       1 0NS         0.0252
     19 CAO        30.9100   18.3040    0.4400 C.2       1 0NS         0.2849
     20 OAR        31.7930   19.1210    0.6420 O.2       1 0NS        -0.3927
     21 NAN        31.0500   17.2970   -0.5700 N.am      1 0NS        -0.2317
     22 CAK        29.9530   16.4520   -0.8690 C.ar      1 0NS         0.0547
     23 CAJ        30.0230   15.5360   -1.9290 C.ar      1 0NS        -0.0620
     24 CAI        28.9400   14.7020   -2.2170 C.ar      1 0NS        -0.0648
     25 H          26.7289   14.1503   -6.9585 H         1 0NS         0.0577
     26 H          28.2660   14.3718   -6.0870 H         1 0NS         0.0577
     27 H          27.5281   12.7546   -6.1940 H         1 0NS         0.0577
     28 H          27.0250   16.1693   -6.4114 H         1 0NS         0.0542
     29 H          26.3201   18.4920   -5.9075 H         1 0NS         0.0589
     30 H          25.1936   19.0578   -3.8015 H         1 0NS         0.0523
     31 H          24.7813   17.2815   -2.1181 H         1 0NS         0.0608
     32 H          26.8816   12.9715   -1.7142 H         1 0NS         0.2104
     33 H          26.7610   15.8361    0.1304 H         1 0NS         0.0386
     34 H          28.4652   16.9785    1.9330 H         1 0NS         0.0652
     35 H          27.7067   18.1569    0.7847 H         1 0NS         0.0652
     36 H          28.8377   20.2165    1.9535 H         1 0NS         0.0485
     37 H          29.5182   19.1229    3.1831 H         1 0NS         0.0485
     38 H          30.6011   20.1215    2.1826 H         1 0NS         0.0485
     39 H          31.9327   17.1895   -1.0697 H         1 0NS         0.2179
     40 H          30.9288   15.4745   -2.5322 H         1 0NS         0.0442
     41 H          29.0223   13.9648   -3.0157 H         1 0NS         0.0391
@<TRIPOS>BOND
     1    1    2 1  
     2    2    3 1  
     3    3    4 ar 
     4    3    8 ar 
     5    4    5 ar 
     6    5    6 ar 
     7    6    7 ar 
     8    7    8 ar 
     9    8    9 1  
    10    9   10 2  
    11    9   11 2  
    12    9   12 am 
    13   12   13 1  
    14   13   14 ar 
    15   13   24 ar 
    16   14   15 ar 
    17   15   16 1  
    18   15   22 ar 
    19   16   17 1  
    20   17   18 1  
    21   17   19 am 
    22   19   20 2  
    23   19   21 am 
    24   21   22 1  
    25   22   23 ar 
    26   23   24 ar 
    27    1   25 1  
    28    1   26 1  
    29    1   27 1  
    30    4   28 1  
    31    5   29 1  
    32    6   30 1  
    33    7   31 1  
    34   12   32 1  
    35   14   33 1  
    36   16   34 1  
    37   16   35 1  
    38   18   36 1  
    39   18   37 1  
    40   18   38 1  
    41   21   39 1  
    42   23   40 1  
    43   24   41 1  
@<TRIPOS>SUBSTRUCTURE
     1 0NS         1

