### 
### Created by X-TOOL on Mon Sep 10 21:13:10 2018
### 

@<TRIPOS>MOLECULE
4e9u_ligand
   32    33     1     0     0
SMALL
GAST_HUCK


@<TRIPOS>ATOM
      1 NAA        22.4090  -10.1520    8.8920 N.1       1 RWY        -0.3401
      2 CAB        22.6250  -10.6120    7.8740 C.1       1 RWY         0.1607
      3 CAC        23.7840  -21.6090    6.7750 C.ar      1 RWY        -0.0725
      4 CAD        23.2190  -21.6030    8.0440 C.ar      1 RWY        -0.0699
      5 CAE        23.9840  -20.4130    6.0960 C.ar      1 RWY        -0.0699
      6 CAF        22.8570  -20.3990    8.6320 C.ar      1 RWY        -0.0290
      7 CAG        23.6230  -19.2080    6.6850 C.ar      1 RWY        -0.0290
      8 CAH        24.7960  -15.0510    8.6080 C.ar      1 RWY        -0.0404
      9 CAI        24.6860  -15.8860    6.3550 C.ar      1 RWY        -0.0404
     10 CAJ        23.9730  -16.0870    9.0310 C.ar      1 RWY        -0.0367
     11 CAK        23.8640  -16.9220    6.7780 C.ar      1 RWY        -0.0367
     12 CAL        25.1560  -12.9670    6.1710 C.3       1 RWY         0.0820
     13 CAM        23.8310  -12.7860    6.9120 C.3       1 RWY         0.0603
     14 OAN        25.9550  -13.9380    6.8580 O.3       1 RWY        -0.3235
     15 OAO        22.7010  -18.0310    8.5350 O.3       1 RWY        -0.2649
     16 SAP        22.9350  -11.2730    6.4070 S.3       1 RWY         0.0450
     17 CAQ        25.1520  -14.9520    7.2700 C.ar      1 RWY         0.0807
     18 CAR        23.0590  -19.2030    7.9530 C.ar      1 RWY         0.1133
     19 CAS        23.5080  -17.0220    8.1160 C.ar      1 RWY         0.1050
     20 H1         24.0692  -22.5476    6.3138 H         1 RWY         0.0526
     21 H2         23.0613  -22.5357    8.5734 H         1 RWY         0.0590
     22 H3         24.4226  -20.4206    5.1047 H         1 RWY         0.0590
     23 H4         22.4161  -20.3913    9.6222 H         1 RWY         0.0550
     24 H5         23.7812  -18.2750    6.1562 H         1 RWY         0.0550
     25 H6         25.1598  -14.3208    9.3218 H         1 RWY         0.0518
     26 H7         24.9638  -15.8066    5.3102 H         1 RWY         0.0518
     27 H8         23.6938  -16.1655   10.0755 H         1 RWY         0.0527
     28 H9         23.5005  -17.6521    6.0640 H         1 RWY         0.0527
     29 H10        25.6924  -12.0072    6.1378 H         1 RWY         0.0621
     30 H11        24.9591  -13.3127    5.1455 H         1 RWY         0.0621
     31 H12        24.0371  -12.7284    7.9910 H         1 RWY         0.0460
     32 H13        23.1920  -13.6575    6.7068 H         1 RWY         0.0460
@<TRIPOS>BOND
     1    2    1 3  
     2   16    2 1  
     3    4    3 ar 
     4    5    3 ar 
     5    6    4 ar 
     6    7    5 ar 
     7   18    6 ar 
     8   18    7 ar 
     9   10    8 ar 
    10    8   17 ar 
    11   11    9 ar 
    12    9   17 ar 
    13   19   10 ar 
    14   19   11 ar 
    15   12   13 1  
    16   14   12 1  
    17   13   16 1  
    18   17   14 1  
    19   15   18 1  
    20   15   19 1  
    21    3   20 1  
    22    4   21 1  
    23    5   22 1  
    24    6   23 1  
    25    7   24 1  
    26    8   25 1  
    27    9   26 1  
    28   10   27 1  
    29   11   28 1  
    30   12   29 1  
    31   12   30 1  
    32   13   31 1  
    33   13   32 1  
@<TRIPOS>SUBSTRUCTURE
     1 RWY         1

