### 
### Created by X-TOOL on Mon Sep 10 21:13:11 2018
### 

@<TRIPOS>MOLECULE
4ea1_ligand
   64    66     1     0     0
SMALL
GAST_HUCK


@<TRIPOS>ATOM
      1 CAA         4.0360  -29.9110    8.4190 C.3       1 3RX        -0.0558
      2 CAB         2.5800  -28.7810    6.5860 C.3       1 3RX        -0.0558
      3 CAC        -1.1940  -25.9420    9.2920 C.3       1 3RX        -0.0389
      4 CAD         1.6670  -29.1260    8.7490 C.2       1 3RX        -0.0940
      5 CAE        -2.8760  -27.8610    9.1930 C.2       1 3RX        -0.0627
      6 CAF         0.5480  -28.5050    8.2640 C.2       1 3RX        -0.0889
      7 CAG        -4.0920  -27.2090    9.2230 C.3       1 3RX        -0.0262
      8 CAH        -6.3290  -27.8830    9.8950 C.3       1 3RX         0.0081
      9 CAI        -6.9720  -29.2410   10.1490 C.3       1 3RX         0.0077
     10 CAJ        -0.5350  -28.5400    9.2800 C.3       1 3RX        -0.0125
     11 CAK       -12.5360  -28.1060   11.8350 C.3       1 3RX        -0.0473
     12 CAL       -10.7700  -29.2180   13.1560 C.3       1 3RX        -0.0422
     13 CAM       -11.2340  -29.9570   10.8890 C.3       1 3RX        -0.0422
     14 CAN       -10.4520  -26.9110   12.3410 C.3       1 3RX        -0.0422
     15 CAO       -10.8370  -27.7290   10.0390 C.3       1 3RX        -0.0422
     16 NAP        -4.9000  -27.9690   10.1810 N.4       1 3RX         0.2372
     17 NAQ        -8.4470  -29.1330   10.1390 N.4       1 3RX         0.2333
     18 CAR         2.7440  -29.3020    7.9580 C.3       1 3RX        -0.0297
     19 CAS        -1.5590  -27.4170    9.2250 C.2       1 3RX        -0.0715
     20 CAT       -11.4560  -27.9050   12.8680 C.3       1 3RX        -0.0399
     21 CAU       -11.8970  -28.6600   10.5770 C.3       1 3RX        -0.0399
     22 CAV       -10.1110  -29.6920   11.8840 C.3       1 3RX         0.0028
     23 CAW        -9.7970  -27.4450   11.0910 C.3       1 3RX         0.0028
     24 CAX        -9.0790  -28.7010   11.3870 C.3       1 3RX        -0.0167
     25 H1          4.7480  -29.9384    7.5810 H         1 3RX         0.0252
     26 H2          3.8517  -30.9346    8.7772 H         1 3RX         0.0252
     27 H3          4.4553  -29.3063    9.2366 H         1 3RX         0.0252
     28 H4          1.5619  -28.3827    6.4643 H         1 3RX         0.0252
     29 H5          2.7446  -29.5936    5.8631 H         1 3RX         0.0252
     30 H6          3.3112  -27.9786    6.4086 H         1 3RX         0.0252
     31 H7         -2.1093  -25.3348    9.2328 H         1 3RX         0.0375
     32 H8         -0.5315  -25.6896    8.4509 H         1 3RX         0.0375
     33 H9         -0.6773  -25.7348   10.2407 H         1 3RX         0.0375
     34 H10         1.6873  -29.4796    9.7788 H         1 3RX         0.0461
     35 H11        -2.9667  -28.9445    9.1318 H         1 3RX         0.0303
     36 H12         0.4639  -28.0515    7.2775 H         1 3RX         0.0465
     37 H13        -4.5609  -27.2173    8.2280 H         1 3RX         0.0889
     38 H14        -3.9663  -26.1697    9.5606 H         1 3RX         0.0889
     39 H15        -6.7906  -27.1289   10.5493 H         1 3RX         0.0867
     40 H16        -6.4774  -27.5963    8.8434 H         1 3RX         0.0867
     41 H17        -6.6445  -29.6176   11.1293 H         1 3RX         0.0867
     42 H18        -6.6563  -29.9424    9.3626 H         1 3RX         0.0867
     43 H19        -0.0620  -28.5115   10.2727 H         1 3RX         0.0532
     44 H20        -1.0756  -29.4903    9.1585 H         1 3RX         0.0532
     45 H21       -13.0212  -27.1442   11.6127 H         1 3RX         0.0271
     46 H22       -13.2857  -28.8159   12.2145 H         1 3RX         0.0271
     47 H23       -11.5100  -29.9596   13.4911 H         1 3RX         0.0273
     48 H24       -10.0106  -29.0779   13.9394 H         1 3RX         0.0273
     49 H25       -10.8200  -30.3942    9.9685 H         1 3RX         0.0273
     50 H26       -11.9644  -30.6520   11.3288 H         1 3RX         0.0273
     51 H27        -9.6824  -26.7314   13.1061 H         1 3RX         0.0273
     52 H28       -10.9644  -25.9661   12.1074 H         1 3RX         0.0273
     53 H29       -11.3082  -26.7836    9.7321 H         1 3RX         0.0273
     54 H30       -10.3528  -28.1967    9.1691 H         1 3RX         0.0273
     55 H31        -4.7326  -27.6054   11.1061 H         1 3RX         0.2023
     56 H32        -4.6202  -28.9367   10.1446 H         1 3RX         0.2023
     57 H33        -8.8189  -30.0403    9.9055 H         1 3RX         0.2018
     58 H34        -8.7008  -28.4712    9.4222 H         1 3RX         0.2018
     59 H35         2.3882  -30.2984    7.6570 H         1 3RX         0.0420
     60 H36       -11.9036  -27.5177   13.7952 H         1 3RX         0.0301
     61 H37       -12.6750  -28.8106    9.8141 H         1 3RX         0.0301
     62 H38        -9.5902  -30.6401   12.0836 H         1 3RX         0.0356
     63 H39        -9.0855  -26.6974   10.7104 H         1 3RX         0.0356
     64 H40        -8.3115  -28.5428   12.1589 H         1 3RX         0.0856
@<TRIPOS>BOND
     1   18    1 1  
     2   18    2 1  
     3   19    3 1  
     4    6    4 2  
     5    4   18 1  
     6    7    5 1  
     7    5   19 2  
     8   10    6 1  
     9   16    7 1  
    10    9    8 1  
    11    8   16 1  
    12   17    9 1  
    13   19   10 1  
    14   20   11 1  
    15   21   11 1  
    16   12   20 1  
    17   22   12 1  
    18   13   21 1  
    19   22   13 1  
    20   20   14 1  
    21   14   23 1  
    22   21   15 1  
    23   15   23 1  
    24   24   17 1  
    25   22   24 1  
    26   23   24 1  
    27    1   25 1  
    28    1   26 1  
    29    1   27 1  
    30    2   28 1  
    31    2   29 1  
    32    2   30 1  
    33    3   31 1  
    34    3   32 1  
    35    3   33 1  
    36    4   34 1  
    37    5   35 1  
    38    6   36 1  
    39    7   37 1  
    40    7   38 1  
    41    8   39 1  
    42    8   40 1  
    43    9   41 1  
    44    9   42 1  
    45   10   43 1  
    46   10   44 1  
    47   11   45 1  
    48   11   46 1  
    49   12   47 1  
    50   12   48 1  
    51   13   49 1  
    52   13   50 1  
    53   14   51 1  
    54   14   52 1  
    55   15   53 1  
    56   15   54 1  
    57   16   55 1  
    58   16   56 1  
    59   17   57 1  
    60   17   58 1  
    61   18   59 1  
    62   20   60 1  
    63   21   61 1  
    64   22   62 1  
    65   23   63 1  
    66   24   64 1  
@<TRIPOS>SUBSTRUCTURE
     1 3RX         1

