### 
### Created by X-TOOL on Mon Sep 10 21:13:13 2018
### 

@<TRIPOS>MOLECULE
4ear_ligand
   39    41     1     0     0
SMALL
GAST_HUCK


@<TRIPOS>ATOM
      1 N1        -19.8460   26.4910  -47.3730 N.am      1 IM5        -0.2471
      2 C2        -18.9290   27.1450  -46.5310 C.cat     1 IM5         0.1780
      3 N2        -18.4760   26.4840  -45.4810 N.pl3     1 IM5        -0.3388
      4 N3        -18.6000   28.4440  -46.7570 N.pl3     1 IM5        -0.2603
      5 C4        -19.1600   29.1090  -47.8200 C.2       1 IM5         0.1889
      6 C5        -20.0320   28.4690  -48.6590 C.2       1 IM5         0.2677
      7 C6        -20.3920   27.1680  -48.4520 C.2       1 IM5         0.2962
      8 O6        -21.1760   26.5190  -49.1820 O.2       1 IM5        -0.3417
      9 N7        -20.3890   29.3620  -49.6030 N.pl3     1 IM5        -0.1827
     10 C8        -19.7760   30.5280  -49.3530 C.2       1 IM5         0.1195
     11 C9        -18.9870   30.3680  -48.2820 C.2       1 IM5         0.1187
     12 N1'       -16.6800   31.5010  -48.0870 N.4       1 IM5         0.2484
     13 C10       -18.1220   31.4520  -47.6210 C.3       1 IM5         0.0121
     14 C2'       -15.9090   30.3670  -47.6320 C.3       1 IM5        -0.0035
     15 C3'       -14.5440   30.7200  -48.3060 C.3       1 IM5         0.1046
     16 O3'       -13.8130   31.7610  -47.6080 O.3       1 IM5        -0.3860
     17 C4'       -14.9880   31.1760  -49.7040 C.3       1 IM5         0.0531
     18 C5'       -14.8610   30.0210  -50.6510 C.3       1 IM5         0.0544
     19 O5'       -15.5840   30.3640  -51.8460 O.3       1 IM5        -0.3944
     20 C6'       -16.5110   31.5640  -49.5310 C.3       1 IM5        -0.0230
     21 H1        -20.1031   25.5413  -47.1939 H         1 IM5         0.1817
     22 H2        -17.8031   26.9311  -44.8420 H         1 IM5         0.1747
     23 H3        -18.7956   25.5215  -45.3012 H         1 IM5         0.1747
     24 H4        -17.9353   28.9264  -46.1354 H         1 IM5         0.2181
     25 H5        -21.0289   29.1786  -50.3890 H         1 IM5         0.2608
     26 H6        -19.8985   31.4478  -49.9230 H         1 IM5         0.1599
     27 H7        -16.2766   32.3360  -47.6920 H         1 IM5         0.2047
     28 H8        -18.1229   31.2731  -46.5357 H         1 IM5         0.0960
     29 H9        -18.5810   32.4291  -47.8319 H         1 IM5         0.0960
     30 H10       -16.3178   29.4146  -48.0005 H         1 IM5         0.0840
     31 H11       -15.8318   30.3330  -46.5353 H         1 IM5         0.0840
     32 H12       -13.9050   29.8270  -48.3714 H         1 IM5         0.0652
     33 H13       -12.9961   31.9316  -48.0620 H         1 IM5         0.2100
     34 H14       -14.3944   32.0318  -50.0579 H         1 IM5         0.0402
     35 H15       -15.2903   29.1148  -50.1988 H         1 IM5         0.0562
     36 H16       -13.8017   29.8451  -50.8898 H         1 IM5         0.0562
     37 H17       -15.2098   31.1498  -52.2266 H         1 IM5         0.2094
     38 H18       -16.7109   32.5762  -49.9125 H         1 IM5         0.0819
     39 H19       -17.1669   30.8435  -50.0415 H         1 IM5         0.0819
@<TRIPOS>BOND
     1    1    2 ar 
     2    1    7 am 
     3    2    3 ar 
     4    2    4 ar 
     5    4    5 1  
     6    5    6 2  
     7    5   11 1  
     8    6    7 1  
     9    6    9 1  
    10    7    8 2  
    11    9   10 1  
    12   10   11 2  
    13   11   13 1  
    14   13   12 1  
    15   12   14 1  
    16   12   20 1  
    17   14   15 1  
    18   15   16 1  
    19   15   17 1  
    20   17   18 1  
    21   17   20 1  
    22   18   19 1  
    23    1   21 1  
    24    3   22 1  
    25    3   23 1  
    26    4   24 1  
    27    9   25 1  
    28   10   26 1  
    29   12   27 1  
    30   13   28 1  
    31   13   29 1  
    32   14   30 1  
    33   14   31 1  
    34   15   32 1  
    35   16   33 1  
    36   17   34 1  
    37   18   35 1  
    38   18   36 1  
    39   19   37 1  
    40   20   38 1  
    41   20   39 1  
@<TRIPOS>SUBSTRUCTURE
     1 IM5         1

