### 
### Created by X-TOOL on Mon Sep 10 21:13:13 2018
### 

@<TRIPOS>MOLECULE
4eb8_ligand
   39    41     1     0     0
SMALL
GAST_HUCK


@<TRIPOS>ATOM
      1 N1         21.3350  -28.0980  -19.7440 N.am      1 IM5        -0.2471
      2 C2         20.0980  -27.4370  -19.6710 C.cat     1 IM5         0.1780
      3 N2         19.5280  -27.0360  -20.8070 N.pl3     1 IM5        -0.3388
      4 N3         19.5300  -27.2040  -18.4670 N.pl3     1 IM5        -0.2603
      5 C4         20.1420  -27.6050  -17.3260 C.2       1 IM5         0.1889
      6 C5         21.3350  -28.2470  -17.3700 C.2       1 IM5         0.2677
      7 C6         21.9330  -28.5150  -18.5530 C.2       1 IM5         0.2962
      8 O6         22.9960  -29.1400  -18.6290 O.2       1 IM5        -0.3417
      9 N7         21.6950  -28.5270  -16.1050 N.pl3     1 IM5        -0.1827
     10 C8         20.7560  -28.0550  -15.2760 C.2       1 IM5         0.1195
     11 C9         19.8040  -27.5090  -16.0300 C.2       1 IM5         0.1187
     12 N1'        17.3040  -27.5940  -15.3400 N.4       1 IM5         0.2484
     13 C10        18.5470  -26.8030  -15.4550 C.3       1 IM5         0.0121
     14 C2'        16.7520  -27.9580  -16.6580 C.3       1 IM5        -0.0035
     15 C3'        15.6740  -28.9730  -16.2950 C.3       1 IM5         0.1046
     16 O3'        14.4690  -28.3100  -15.8870 O.3       1 IM5        -0.3860
     17 C4'        16.2450  -29.7210  -15.1080 C.3       1 IM5         0.0531
     18 C5'        16.6840  -31.0830  -15.5950 C.3       1 IM5         0.0544
     19 O5'        17.5320  -31.6610  -14.6030 O.3       1 IM5        -0.3944
     20 C6'        17.4800  -28.8810  -14.6350 C.3       1 IM5        -0.0230
     21 H1         21.7760  -28.2656  -20.6257 H         1 IM5         0.1817
     22 H2         18.6208  -26.5487  -20.7840 H         1 IM5         0.1747
     23 H3         19.9946  -27.2134  -21.7079 H         1 IM5         0.1747
     24 H4         18.6237  -26.7172  -18.4160 H         1 IM5         0.2181
     25 H5         22.5519  -29.0229  -15.8208 H         1 IM5         0.2608
     26 H6         20.7684  -28.1077  -14.1883 H         1 IM5         0.1599
     27 H7         16.6317  -27.0343  -14.8392 H         1 IM5         0.2047
     28 H8         18.3289  -25.9419  -16.1037 H         1 IM5         0.0960
     29 H9         18.8035  -26.4467  -14.4464 H         1 IM5         0.0960
     30 H10        17.5223  -28.4089  -17.3009 H         1 IM5         0.0840
     31 H11        16.3192  -27.0821  -17.1635 H         1 IM5         0.0840
     32 H12        15.4687  -29.6503  -17.1371 H         1 IM5         0.0652
     33 H13        13.8113  -28.9588  -15.6656 H         1 IM5         0.2100
     34 H14        15.5054  -29.8205  -14.2999 H         1 IM5         0.0402
     35 H15        17.2351  -30.9799  -16.5414 H         1 IM5         0.0562
     36 H16        15.8037  -31.7239  -15.7512 H         1 IM5         0.0562
     37 H17        17.0519  -31.7449  -13.7875 H         1 IM5         0.2094
     38 H18        17.4655  -28.7384  -13.5444 H         1 IM5         0.0819
     39 H19        18.4226  -29.3659  -14.9289 H         1 IM5         0.0819
@<TRIPOS>BOND
     1    1    2 ar 
     2    1    7 am 
     3    2    3 ar 
     4    2    4 ar 
     5    4    5 1  
     6    5    6 2  
     7    5   11 1  
     8    6    7 1  
     9    6    9 1  
    10    7    8 2  
    11    9   10 1  
    12   10   11 2  
    13   11   13 1  
    14   13   12 1  
    15   12   14 1  
    16   12   20 1  
    17   14   15 1  
    18   15   16 1  
    19   15   17 1  
    20   17   18 1  
    21   17   20 1  
    22   18   19 1  
    23    1   21 1  
    24    3   22 1  
    25    3   23 1  
    26    4   24 1  
    27    9   25 1  
    28   10   26 1  
    29   12   27 1  
    30   13   28 1  
    31   13   29 1  
    32   14   30 1  
    33   14   31 1  
    34   15   32 1  
    35   16   33 1  
    36   17   34 1  
    37   18   35 1  
    38   18   36 1  
    39   19   37 1  
    40   20   38 1  
    41   20   39 1  
@<TRIPOS>SUBSTRUCTURE
     1 IM5         1

