### 
### Created by X-TOOL on Mon Sep 10 21:13:10 2018
### 

@<TRIPOS>MOLECULE
4ebv_ligand
   41    44     1     0     0
SMALL
GAST_HUCK


@<TRIPOS>ATOM
      1 C1         -8.0970    9.4540  -19.3230 C.3       1 0O7        -0.0555
      2 C2         -8.9670    9.6000  -18.0830 C.3       1 0O7        -0.0226
      3 C3         -9.3760    8.2090  -17.6400 C.ar      1 0O7        -0.0446
      4 C4        -10.3520    7.5220  -18.3540 C.ar      1 0O7        -0.0616
      5 C5        -10.7710    6.2450  -17.9820 C.ar      1 0O7        -0.0640
      6 C6        -10.2040    5.6370  -16.8490 C.ar      1 0O7        -0.0344
      7 C7         -9.2010    6.3470  -16.1420 C.ar      1 0O7        -0.0640
      8 C8         -8.7830    7.6220  -16.5230 C.ar      1 0O7        -0.0616
      9 C9        -10.5810    4.2550  -16.3930 C.ar      1 0O7        -0.0365
     10 C10       -10.8130    3.2300  -17.3270 C.ar      1 0O7        -0.0687
     11 C11       -11.1100    1.9260  -16.9370 C.ar      1 0O7        -0.0405
     12 C12       -11.2050    1.5980  -15.5830 C.ar      1 0O7         0.0826
     13 N13       -11.4870    0.2640  -15.2660 N.am      1 0O7        -0.1749
     14 C14       -11.1960   -0.8170  -16.2160 C.3       1 0O7         0.0472
     15 S15       -12.1920   -0.1090  -13.8060 S.o2      1 0O7         0.0806
     16 O16       -13.5780    0.1550  -14.0790 O.2       1 0O7        -0.1487
     17 O17       -11.7810   -1.4270  -13.3920 O.2       1 0O7        -0.1487
     18 C18       -11.6040    1.0990  -12.6820 C.2       1 0O7         0.1291
     19 C19       -11.5770    1.1150  -11.3510 C.2       1 0O7         0.0176
     20 N20       -11.0760    2.3020  -10.9930 N.2       1 0O7        -0.2235
     21 N22       -10.7580    3.0430  -12.1300 N.pl3     1 0O7        -0.2189
     22 C23       -11.0890    2.3260  -13.1660 C.2       1 0O7         0.1060
     23 C24       -10.9890    2.6250  -14.6150 C.ar      1 0O7         0.0326
     24 C25       -10.6700    3.9310  -15.0260 C.ar      1 0O7        -0.0578
     25 H          -7.2167    8.8590  -19.0797 H         1 0O7         0.0252
     26 H          -8.6667    8.9577  -20.1086 H         1 0O7         0.0252
     27 H          -7.7866   10.4410  -19.6658 H         1 0O7         0.0252
     28 H          -9.8483   10.2011  -18.3068 H         1 0O7         0.0422
     29 H          -8.4148   10.1036  -17.2895 H         1 0O7         0.0422
     30 H         -10.8014    7.9943  -19.2276 H         1 0O7         0.0554
     31 H         -11.5308    5.7236  -18.5643 H         1 0O7         0.0587
     32 H          -8.7408    5.8806  -15.2709 H         1 0O7         0.0587
     33 H          -8.0109    8.1471  -15.9607 H         1 0O7         0.0554
     34 H         -10.7587    3.4631  -18.3904 H         1 0O7         0.0584
     35 H         -11.2692    1.1573  -17.6932 H         1 0O7         0.0491
     36 H         -10.5104   -1.5286  -15.7559 H         1 0O7         0.0527
     37 H         -12.1233   -1.3242  -16.4825 H         1 0O7         0.0527
     38 H         -10.7390   -0.3979  -17.1125 H         1 0O7         0.0527
     39 H         -11.9002    0.3163  -10.6834 H         1 0O7         0.0670
     40 H         -10.3428    3.9745  -12.1476 H         1 0O7         0.2522
     41 H         -10.4894    4.7021  -14.2771 H         1 0O7         0.0581
@<TRIPOS>BOND
     1    1    2 1  
     2    2    3 1  
     3    3    4 ar 
     4    3    8 ar 
     5    4    5 ar 
     6    5    6 ar 
     7    6    7 ar 
     8    6    9 1  
     9    7    8 ar 
    10    9   10 ar 
    11    9   24 ar 
    12   10   11 ar 
    13   11   12 ar 
    14   12   13 1  
    15   12   23 ar 
    16   13   14 1  
    17   13   15 am 
    18   15   16 2  
    19   15   17 2  
    20   15   18 1  
    21   18   19 1  
    22   18   22 2  
    23   19   20 2  
    24   20   21 1  
    25   21   22 1  
    26   22   23 1  
    27   23   24 ar 
    28    1   25 1  
    29    1   26 1  
    30    1   27 1  
    31    2   28 1  
    32    2   29 1  
    33    4   30 1  
    34    5   31 1  
    35    7   32 1  
    36    8   33 1  
    37   10   34 1  
    38   11   35 1  
    39   14   36 1  
    40   14   37 1  
    41   14   38 1  
    42   19   39 1  
    43   21   40 1  
    44   24   41 1  
@<TRIPOS>SUBSTRUCTURE
     1 0O7         1

