### 
### Created by X-TOOL on Mon Sep 10 21:13:09 2018
### 

@<TRIPOS>MOLECULE
4ebw_ligand
   47    50     1     0     0
SMALL
GAST_HUCK


@<TRIPOS>ATOM
      1 C1         13.0750    9.1250   18.4220 C.3       1 0PF        -0.0555
      2 C2         11.6670    9.2370   19.0120 C.3       1 0PF        -0.0226
      3 C3         11.1870    7.8880   19.5190 C.ar      1 0PF        -0.0446
      4 C4         10.2140    7.2080   18.7960 C.ar      1 0PF        -0.0616
      5 C5          9.7620    5.9820   19.2310 C.ar      1 0PF        -0.0640
      6 C6         10.2760    5.4250   20.4050 C.ar      1 0PF        -0.0344
      7 C7         11.2520    6.1090   21.1390 C.ar      1 0PF        -0.0640
      8 C8         11.7020    7.3330   20.6890 C.ar      1 0PF        -0.0616
      9 C9          9.7650    4.1100   20.8630 C.ar      1 0PF        -0.0365
     10 C10         9.5110    3.0820   19.9510 C.ar      1 0PF        -0.0687
     11 C11         9.0400    1.8750   20.3950 C.ar      1 0PF        -0.0405
     12 C12         8.7940    1.6500   21.7530 C.ar      1 0PF         0.0826
     13 N13         8.2900    0.3990   22.1330 N.am      1 0PF        -0.1749
     14 C14         7.4580   -0.4270   21.2410 C.3       1 0PF         0.0472
     15 S15         8.5970   -0.1750   23.6510 S.o2      1 0PF         0.0806
     16 O16         7.4440   -0.9190   24.0180 O.2       1 0PF        -0.1487
     17 O17         9.9230   -0.6860   23.6160 O.2       1 0PF        -0.1487
     18 C18         8.6480    1.2580   24.6740 C.2       1 0PF         0.1293
     19 C19         8.5260    1.3620   26.0310 C.2       1 0PF         0.0178
     20 N20         8.6430    2.6320   26.3330 N.2       1 0PF        -0.2210
     21 N21         8.8530    3.3930   25.1660 N.pl3     1 0PF        -0.2053
     22 C22         9.0110    4.8620   25.1280 C.3       1 0PF         0.0658
     23 C23        10.4660    5.2690   25.3700 C.3       1 0PF        -0.0360
     24 C24         8.8370    2.5150   24.1270 C.2       1 0PF         0.1090
     25 C25         9.0360    2.6900   22.6690 C.ar      1 0PF         0.0328
     26 C26         9.5320    3.9070   22.2100 C.ar      1 0PF        -0.0578
     27 H          13.7627    8.7724   19.1907 H         1 0PF         0.0252
     28 H          13.0643    8.4197   17.5910 H         1 0PF         0.0252
     29 H          13.3971   10.1034   18.0656 H         1 0PF         0.0252
     30 H          10.9861    9.5832   18.2344 H         1 0PF         0.0422
     31 H          11.6897    9.9386   19.8459 H         1 0PF         0.0422
     32 H           9.8083    7.6455   17.8838 H         1 0PF         0.0554
     33 H           9.0037    5.4464   18.6598 H         1 0PF         0.0587
     34 H          11.6525    5.6789   22.0570 H         1 0PF         0.0587
     35 H          12.4654    7.8696   21.2523 H         1 0PF         0.0554
     36 H           9.6876    3.2407   18.8872 H         1 0PF         0.0584
     37 H           8.8537    1.0760   19.6774 H         1 0PF         0.0491
     38 H           7.9390   -1.3933   21.0892 H         1 0PF         0.0527
     39 H           6.4778   -0.5748   21.6942 H         1 0PF         0.0527
     40 H           7.3438    0.0781   20.2819 H         1 0PF         0.0527
     41 H           8.3621    0.5426   26.7309 H         1 0PF         0.0670
     42 H           8.3927    5.2986   25.9123 H         1 0PF         0.0628
     43 H           8.7093    5.2188   24.1432 H         1 0PF         0.0628
     44 H          10.7845    4.9098   26.3486 H         1 0PF         0.0257
     45 H          11.0978    4.8308   24.5974 H         1 0PF         0.0257
     46 H          10.5486    6.3553   25.3358 H         1 0PF         0.0257
     47 H           9.7387    4.7078   22.9200 H         1 0PF         0.0581
@<TRIPOS>BOND
     1    1    2 1  
     2    2    3 1  
     3    3    4 ar 
     4    3    8 ar 
     5    4    5 ar 
     6    5    6 ar 
     7    6    7 ar 
     8    6    9 1  
     9    7    8 ar 
    10    9   10 ar 
    11    9   26 ar 
    12   10   11 ar 
    13   11   12 ar 
    14   12   13 1  
    15   12   25 ar 
    16   13   14 1  
    17   13   15 am 
    18   15   16 2  
    19   15   17 2  
    20   15   18 1  
    21   18   19 1  
    22   18   24 2  
    23   19   20 2  
    24   20   21 1  
    25   21   22 1  
    26   21   24 1  
    27   22   23 1  
    28   24   25 1  
    29   25   26 ar 
    30    1   27 1  
    31    1   28 1  
    32    1   29 1  
    33    2   30 1  
    34    2   31 1  
    35    4   32 1  
    36    5   33 1  
    37    7   34 1  
    38    8   35 1  
    39   10   36 1  
    40   11   37 1  
    41   14   38 1  
    42   14   39 1  
    43   14   40 1  
    44   19   41 1  
    45   22   42 1  
    46   22   43 1  
    47   23   44 1  
    48   23   45 1  
    49   23   46 1  
    50   26   47 1  
@<TRIPOS>SUBSTRUCTURE
     1 0PF         1

