### 
### Created by X-TOOL on Mon Sep 10 21:13:10 2018
### 

@<TRIPOS>MOLECULE
4ede_ligand
   50    50     1     0     0
SMALL
GAST_HUCK


@<TRIPOS>ATOM
      1 C1         -7.6490   -1.0010    7.1940 C.3       1 RET        -0.0970
      2 C2         -7.5430   -1.2730    5.6820 C.3       1 RET        -0.1037
      3 C3         -8.0690   -2.6090    5.1420 C.3       1 RET        -0.0389
      4 C4         -9.0030   -3.2940    6.1370 C.3       1 RET         0.0374
      5 C5         -8.3230   -3.3750    7.4800 C.2       1 RET         0.0234
      6 C6         -7.8930   -2.2580    8.0430 C.2       1 RET        -0.0560
      7 C7         -7.6960   -2.3160    9.5170 C.2       1 RET        -0.0696
      8 C8         -6.5380   -1.8640   10.0110 C.2       1 RET        -0.0618
      9 C9         -6.2690   -1.8470   11.4500 C.2       1 RET        -0.0512
     10 C10        -5.4150   -0.8820   11.8910 C.2       1 RET        -0.0715
     11 C11        -5.0510   -0.6610   13.2750 C.2       1 RET        -0.0806
     12 C12        -3.9390    0.0530   13.5450 C.2       1 RET        -0.0756
     13 C13        -3.6160    0.3170   14.9550 C.2       1 RET        -0.0610
     14 C14        -2.7240    1.2530   15.2180 C.2       1 RET        -0.0818
     15 C15        -2.4870    1.5070   16.6760 C.3       1 RET        -0.0401
     16 C16        -6.3660   -0.3100    7.6370 C.3       1 RET        -0.1205
     17 C17        -8.6720    0.1010    7.4380 C.3       1 RET        -0.1205
     18 C18        -8.1200   -4.6880    8.1720 C.3       1 RET         0.0278
     19 C19        -6.9240   -2.8690   12.3430 C.3       1 RET        -0.0323
     20 C20        -4.2260   -0.4210   16.1270 C.3       1 RET        -0.0402
     21 H          -6.4744   -1.2788    5.4670 H         1 RET         0.0062
     22 H          -8.1628   -0.5104    5.2104 H         1 RET         0.0062
     23 H          -7.2175   -3.2656    4.9633 H         1 RET         0.0308
     24 H          -8.6275   -2.4128    4.2268 H         1 RET         0.0308
     25 H          -9.2392   -4.2983    5.7853 H         1 RET         0.0732
     26 H          -9.9252   -2.7201    6.2279 H         1 RET         0.0732
     27 H          -8.4703   -2.7140   10.1729 H         1 RET         0.0605
     28 H          -5.7746   -1.4987    9.3241 H         1 RET         0.0560
     29 H          -4.9708   -0.2246   11.1436 H         1 RET         0.0484
     30 H          -5.6631   -1.0634   14.0821 H         1 RET         0.0518
     31 H          -3.2999    0.4227   12.7432 H         1 RET         0.0522
     32 H          -2.1994    1.7999   14.4346 H         1 RET         0.0575
     33 H          -3.4194    1.8214   17.1450 H         1 RET         0.0401
     34 H          -2.1309    0.5922   17.1497 H         1 RET         0.0401
     35 H          -1.7389    2.2916   16.7899 H         1 RET         0.0401
     36 H          -6.2036    0.5780    7.0262 H         1 RET         0.0022
     37 H          -6.4534   -0.0211    8.6844 H         1 RET         0.0022
     38 H          -5.5261   -0.9942    7.5164 H         1 RET         0.0022
     39 H          -8.6661    0.3733    8.4934 H         1 RET         0.0022
     40 H          -8.4162    0.9724    6.8352 H         1 RET         0.0022
     41 H          -9.6631   -0.2569    7.1593 H         1 RET         0.0022
     42 H          -7.0535   -4.8591    8.3183 H         1 RET         0.0698
     43 H          -8.6222   -4.6690    9.1392 H         1 RET         0.0698
     44 H          -8.5371   -5.4880    7.5603 H         1 RET         0.0698
     45 H          -6.1556   -3.4619   12.8390 H         1 RET         0.0396
     46 H          -7.5313   -2.3598   13.0913 H         1 RET         0.0396
     47 H          -7.5572   -3.5219   11.7423 H         1 RET         0.0396
     48 H          -3.4383   -0.9242   16.6877 H         1 RET         0.0350
     49 H          -4.7381    0.2898   16.7756 H         1 RET         0.0350
     50 H          -4.9395   -1.1583   15.7589 H         1 RET         0.0350
@<TRIPOS>BOND
     1    1    2 1  
     2    1    6 1  
     3    1   16 1  
     4    1   17 1  
     5    2    3 1  
     6    3    4 1  
     7    4    5 1  
     8    5    6 2  
     9    5   18 1  
    10    6    7 1  
    11    7    8 2  
    12    8    9 1  
    13    9   10 2  
    14    9   19 1  
    15   10   11 1  
    16   11   12 2  
    17   12   13 1  
    18   13   14 2  
    19   13   20 1  
    20   14   15 1  
    21    2   21 1  
    22    2   22 1  
    23    3   23 1  
    24    3   24 1  
    25    4   25 1  
    26    4   26 1  
    27    7   27 1  
    28    8   28 1  
    29   10   29 1  
    30   11   30 1  
    31   12   31 1  
    32   14   32 1  
    33   15   33 1  
    34   15   34 1  
    35   15   35 1  
    36   16   36 1  
    37   16   37 1  
    38   16   38 1  
    39   17   39 1  
    40   17   40 1  
    41   17   41 1  
    42   18   42 1  
    43   18   43 1  
    44   18   44 1  
    45   19   45 1  
    46   19   46 1  
    47   19   47 1  
    48   20   48 1  
    49   20   49 1  
    50   20   50 1  
@<TRIPOS>SUBSTRUCTURE
     1 RET         1

