### 
### Created by X-TOOL on Mon Sep 10 21:13:09 2018
### 

@<TRIPOS>MOLECULE
4eeh_ligand
   27    29     1     0     0
SMALL
GAST_HUCK


@<TRIPOS>ATOM
      1 C1         64.5150   33.8730   25.2380 C.ar      1 HH6         0.0071
      2 C2         64.0260   34.5900   24.0580 C.2       1 HH6         0.0501
      3 C3         63.3640   33.2990   25.8600 C.ar      1 HH6         0.0789
      4 C4         65.7970   33.6420   25.7950 C.ar      1 HH6        -0.0682
      5 C5         64.7630   35.4940   23.1280 C.ar      1 HH6        -0.0204
      6 N6         62.7330   34.3890   24.0060 N.2       1 HH6        -0.2105
      7 N7         62.2640   33.6840   25.1370 N.pl3     1 HH6        -0.2203
      8 C8         63.5110   32.5470   27.0340 C.ar      1 HH6        -0.0086
      9 C9         65.9240   32.8590   26.9270 C.ar      1 HH6        -0.0405
     10 C10        64.0920   36.0360   22.0180 C.ar      1 HH6        -0.0621
     11 C11        66.0620   35.9500   23.4330 C.ar      1 HH6        -0.0621
     12 C12        64.7710   32.3600   27.5670 C.ar      1 HH6         0.0802
     13 C13        64.7410   36.9450   21.1930 C.ar      1 HH6        -0.0322
     14 C14        66.7160   36.8310   22.5900 C.ar      1 HH6        -0.0322
     15 O15        64.8690   31.6640   28.7160 O.3       1 HH6        -0.3357
     16 C16        66.0520   37.3410   21.4720 C.ar      1 HH6         0.0887
     17 O17        66.6840   38.2270   20.6570 O.3       1 HH6        -0.3323
     18 H1         66.6761   34.0782   25.3346 H         1 HH6         0.0579
     19 H2         61.2798   33.4946   25.3742 H         1 HH6         0.2433
     20 H3         62.6428   32.1160   27.5193 H         1 HH6         0.0458
     21 H4         66.9072   32.6293   27.3215 H         1 HH6         0.0486
     22 H5         63.0695   35.7448   21.8064 H         1 HH6         0.0593
     23 H6         66.5529   35.6071   24.3366 H         1 HH6         0.0593
     24 H7         64.2281   37.3496   20.3280 H         1 HH6         0.0546
     25 H8         67.7390   37.1241   22.7963 H         1 HH6         0.0546
     26 H9         64.0011   31.4071   29.0043 H         1 HH6         0.2479
     27 H10        66.1015   38.4754   19.9489 H         1 HH6         0.2488
@<TRIPOS>BOND
     1    1    2 1  
     2    1    3 ar 
     3    1    4 ar 
     4    2    5 1  
     5    2    6 2  
     6    3    7 1  
     7    3    8 ar 
     8    4    9 ar 
     9    5   10 ar 
    10    5   11 ar 
    11    6    7 1  
    12    8   12 ar 
    13    9   12 ar 
    14   10   13 ar 
    15   11   14 ar 
    16   12   15 1  
    17   13   16 ar 
    18   14   16 ar 
    19   16   17 1  
    20    4   18 1  
    21    7   19 1  
    22    8   20 1  
    23    9   21 1  
    24   10   22 1  
    25   11   23 1  
    26   13   24 1  
    27   14   25 1  
    28   15   26 1  
    29   17   27 1  
@<TRIPOS>SUBSTRUCTURE
     1 HH6         1

