### 
### Created by X-TOOL on Mon Sep 10 21:13:09 2018
### 

@<TRIPOS>MOLECULE
4eej_ligand
   50    50     1     0     0
SMALL
GAST_HUCK


@<TRIPOS>ATOM
      1 C1         -7.9290   -0.3080   -7.6190 C.3       1 RET        -0.0970
      2 C2         -8.8400   -0.0870   -6.4560 C.3       1 RET        -0.1037
      3 C3         -8.5110    1.2640   -5.9100 C.3       1 RET        -0.0389
      4 C4         -9.0430    2.2390   -6.9140 C.3       1 RET         0.0374
      5 C5         -8.3760    2.0710   -8.2230 C.2       1 RET         0.0234
      6 C6         -7.8780    0.8910   -8.5790 C.2       1 RET        -0.0560
      7 C7         -7.2560    0.7970   -9.9160 C.2       1 RET        -0.0696
      8 C8         -6.5050   -0.2210  -10.3120 C.2       1 RET        -0.0618
      9 C9         -5.9740   -0.2080  -11.6610 C.2       1 RET        -0.0512
     10 C10        -5.1350   -1.1670  -12.0330 C.2       1 RET        -0.0715
     11 C11        -4.5460   -1.2520  -13.3660 C.2       1 RET        -0.0806
     12 C12        -3.8720   -2.3510  -13.6930 C.2       1 RET        -0.0756
     13 C13        -3.2330   -2.6370  -14.9700 C.2       1 RET        -0.0610
     14 C14        -2.3010   -3.5730  -15.1410 C.2       1 RET        -0.0818
     15 C15        -1.5950   -3.9660  -16.3350 C.3       1 RET        -0.0401
     16 C16        -6.5480   -0.4900   -6.9880 C.3       1 RET        -0.1205
     17 C17        -8.4180   -1.6030   -8.1840 C.3       1 RET        -0.1205
     18 C18        -8.3110    3.3280   -9.0330 C.3       1 RET         0.0278
     19 C19        -6.4120    0.8790  -12.5870 C.3       1 RET        -0.0323
     20 C20        -3.7070   -1.8150  -16.0880 C.3       1 RET        -0.0402
     21 H          -8.7003   -0.8585   -5.6988 H         1 RET         0.0062
     22 H          -9.8845   -0.1400   -6.7630 H         1 RET         0.0062
     23 H          -7.4378    1.3860   -5.7633 H         1 RET         0.0308
     24 H          -8.9568    1.4180   -4.9273 H         1 RET         0.0308
     25 H          -8.8540    3.2500   -6.5530 H         1 RET         0.0732
     26 H         -10.1110    2.0617   -7.0410 H         1 RET         0.0732
     27 H          -7.4247    1.6133  -10.6184 H         1 RET         0.0605
     28 H          -6.2912   -1.0503   -9.6377 H         1 RET         0.0560
     29 H          -4.8715   -1.9327  -11.3034 H         1 RET         0.0484
     30 H          -4.6561   -0.4334  -14.0772 H         1 RET         0.0518
     31 H          -3.7891   -3.1188  -12.9238 H         1 RET         0.0522
     32 H          -2.0310   -4.1260  -14.2414 H         1 RET         0.0575
     33 H          -2.3104   -4.3102  -17.0819 H         1 RET         0.0401
     34 H          -1.0419   -3.1121  -16.7262 H         1 RET         0.0401
     35 H          -0.9008   -4.7718  -16.0965 H         1 RET         0.0401
     36 H          -6.6101   -1.2268   -6.1871 H         1 RET         0.0022
     37 H          -5.8458   -0.8348   -7.7470 H         1 RET         0.0022
     38 H          -6.2072    0.4623   -6.5817 H         1 RET         0.0022
     39 H          -7.7214   -1.9513   -8.9466 H         1 RET         0.0022
     40 H          -8.4858   -2.3432   -7.3868 H         1 RET         0.0022
     41 H          -9.4020   -1.4553   -8.6291 H         1 RET         0.0022
     42 H          -7.2682    3.5902   -9.2114 H         1 RET         0.0698
     43 H          -8.8157    3.1709   -9.9863 H         1 RET         0.0698
     44 H          -8.8020    4.1350   -8.4891 H         1 RET         0.0698
     45 H          -5.5407    1.4410  -12.9234 H         1 RET         0.0396
     46 H          -6.9172    0.4400  -13.4473 H         1 RET         0.0396
     47 H          -7.0966    1.5465  -12.0636 H         1 RET         0.0396
     48 H          -2.8694   -1.2589  -16.5091 H         1 RET         0.0350
     49 H          -4.1385   -2.4595  -16.8538 H         1 RET         0.0350
     50 H          -4.4641   -1.1178  -15.7292 H         1 RET         0.0350
@<TRIPOS>BOND
     1    1    2 1  
     2    1    6 1  
     3    1   16 1  
     4    1   17 1  
     5    2    3 1  
     6    3    4 1  
     7    4    5 1  
     8    5    6 2  
     9    5   18 1  
    10    6    7 1  
    11    7    8 2  
    12    8    9 1  
    13    9   10 2  
    14    9   19 1  
    15   10   11 1  
    16   11   12 2  
    17   12   13 1  
    18   13   14 2  
    19   13   20 1  
    20   14   15 1  
    21    2   21 1  
    22    2   22 1  
    23    3   23 1  
    24    3   24 1  
    25    4   25 1  
    26    4   26 1  
    27    7   27 1  
    28    8   28 1  
    29   10   29 1  
    30   11   30 1  
    31   12   31 1  
    32   14   32 1  
    33   15   33 1  
    34   15   34 1  
    35   15   35 1  
    36   16   36 1  
    37   16   37 1  
    38   16   38 1  
    39   17   39 1  
    40   17   40 1  
    41   17   41 1  
    42   18   42 1  
    43   18   43 1  
    44   18   44 1  
    45   19   45 1  
    46   19   46 1  
    47   19   47 1  
    48   20   48 1  
    49   20   49 1  
    50   20   50 1  
@<TRIPOS>SUBSTRUCTURE
     1 RET         1

