### 
### Created by X-TOOL on Mon Sep 10 21:13:14 2018
### 

@<TRIPOS>MOLECULE
4eev_ligand
   65    70     1     0     0
SMALL
GAST_HUCK


@<TRIPOS>ATOM
      1 C1          6.3170    3.6700   45.4060 C.ar      1 L1X        -0.0423
      2 C2          5.8410    1.4840   44.4820 C.ar      1 L1X        -0.0423
      3 C3         12.3690   -0.8040   44.9960 C.ar      1 L1X        -0.0522
      4 C4         13.5840   -1.4010   44.6770 C.ar      1 L1X        -0.0429
      5 C5          5.8290    4.2570   44.2460 C.ar      1 L1X        -0.0417
      6 C6          5.3500    2.0800   43.3360 C.ar      1 L1X        -0.0417
      7 C7         14.3930   -4.4460   43.6520 C.ar      1 L1X        -0.0367
      8 C8         17.0170   -4.5440   42.4500 C.ar      1 L1X        -0.0400
      9 C9         12.2270   -2.0790   46.9960 C.ar      1 L1X        -0.0147
     10 C10        13.9150   -6.0950   41.7310 C.2       1 L1X         0.0145
     11 C11        19.1150   -2.7640   43.5560 C.2       1 L1X         0.0581
     12 C12        17.8260   -2.4380   45.3380 C.2       1 L1X         0.0042
     13 C13        14.6750   -5.2370   42.5370 C.ar      1 L1X        -0.0037
     14 C14        16.7360   -3.7880   43.5540 C.ar      1 L1X        -0.0066
     15 C15        17.8380   -3.0460   44.1040 C.2       1 L1X        -0.0031
     16 C16        15.9440   -5.2600   41.9870 C.ar      1 L1X         0.0765
     17 C17         6.3070    2.2870   45.4770 C.ar      1 L1X         0.0678
     18 C18        11.6860   -1.1450   46.1510 C.ar      1 L1X         0.0547
     19 C19        14.1200   -2.3380   45.5320 C.ar      1 L1X         0.1319
     20 C20        15.4770   -3.7320   44.1290 C.ar      1 L1X         0.1035
     21 C21         5.3530    3.4480   43.2590 C.ar      1 L1X         0.1158
     22 C22        13.4470   -2.6640   46.6850 C.ar      1 L1X         0.1518
     23 C23         7.8580    0.2660   48.7430 C.2       1 L1X        -0.0551
     24 C24         6.5880    0.9170   48.8580 C.2       1 L1X        -0.0627
     25 C25         8.5700    0.2690   47.5960 C.3       1 L1X         0.1646
     26 C26         6.0930    1.5540   47.7820 C.3       1 L1X         0.0814
     27 C27         8.0320    0.9810   46.4080 C.2       1 L1X         0.2374
     28 C28         9.8280   -0.4750   47.6250 C.2       1 L1X         0.2314
     29 C29         4.7750    2.2530   47.8070 C.3       1 L1X        -0.0296
     30 C30        16.9640   -6.4780   40.0470 C.3       1 L1X         0.0535
     31 N31        14.6340   -6.6370   40.7550 N.2       1 L1X        -0.2094
     32 N32        19.8340   -2.0300   44.4000 N.pl3     1 L1X        -0.2182
     33 N33        19.0560   -1.8510   45.4630 N.2       1 L1X        -0.2168
     34 N34        15.8620   -6.1190   40.9340 N.pl3     1 L1X        -0.2097
     35 N35         6.8210    1.6050   46.5940 N.am      1 L1X        -0.2075
     36 N36        10.4390   -0.5360   46.4070 N.am      1 L1X        -0.2371
     37 O37         8.6710    0.9420   45.3600 O.2       1 L1X        -0.3789
     38 O38        10.1540   -1.0780   48.6300 O.2       1 L1X        -0.3801
     39 O39        15.3590   -2.9220   45.2440 O.3       1 L1X        -0.2742
     40 F40         4.8580    3.9880   42.1280 F         1 L1X        -0.1963
     41 F41        13.9540   -3.5870   47.5370 F         1 L1X        -0.1928
     42 H1          6.6919    4.2721   46.2257 H         1 L1X         0.0494
     43 H2          5.8546    0.4051   44.5857 H         1 L1X         0.0494
     44 H3         11.9498   -0.0593   44.3292 H         1 L1X         0.0447
     45 H4         14.1037   -1.1315   43.7647 H         1 L1X         0.0504
     46 H5          5.8269    5.3346   44.1286 H         1 L1X         0.0566
     47 H6          4.9713    1.4792   42.5170 H         1 L1X         0.0566
     48 H7         13.4094   -4.3958   44.1048 H         1 L1X         0.0481
     49 H8         17.9957   -4.5742   41.9850 H         1 L1X         0.0487
     50 H9         11.7044   -2.3597   47.9033 H         1 L1X         0.0464
     51 H10        12.8559   -6.2945   41.8871 H         1 L1X         0.0696
     52 H11        19.4591   -3.1017   42.5795 H         1 L1X         0.1013
     53 H12        17.0117   -2.4263   46.0610 H         1 L1X         0.0668
     54 H13         8.2641   -0.2500   49.6118 H         1 L1X         0.0493
     55 H14         6.0351    0.8968   49.7960 H         1 L1X         0.0500
     56 H15         9.0995    1.1856   47.8953 H         1 L1X         0.0899
     57 H16         5.6032    0.6231   47.4605 H         1 L1X         0.0747
     58 H17         4.3143    2.1315   48.7985 H         1 L1X         0.0277
     59 H18         4.1155    1.8196   47.0407 H         1 L1X         0.0277
     60 H19         4.9235    3.3232   47.6004 H         1 L1X         0.0277
     61 H20        16.6069   -7.1898   39.2882 H         1 L1X         0.0575
     62 H21        17.7708   -6.9416   40.6336 H         1 L1X         0.0575
     63 H22        17.3448   -5.5733   39.5506 H         1 L1X         0.0575
     64 H23        20.7908   -1.6753   44.2599 H         1 L1X         0.2591
     65 H24         9.9652   -0.1154   45.6333 H         1 L1X         0.2225
@<TRIPOS>BOND
     1    1    5 ar 
     2   17    1 ar 
     3    2    6 ar 
     4   17    2 ar 
     5    3    4 ar 
     6   18    3 ar 
     7    4   19 ar 
     8    5   21 ar 
     9    6   21 ar 
    10    7   13 ar 
    11   20    7 ar 
    12   14    8 ar 
    13    8   16 ar 
    14   18    9 ar 
    15    9   22 ar 
    16   13   10 1  
    17   10   31 2  
    18   15   11 2  
    19   11   32 1  
    20   15   12 1  
    21   12   33 2  
    22   13   16 ar 
    23   14   15 1  
    24   20   14 ar 
    25   16   34 1  
    26   35   17 1  
    27   36   18 1  
    28   22   19 ar 
    29   19   39 1  
    30   39   20 1  
    31   21   40 1  
    32   22   41 1  
    33   23   24 2  
    34   25   23 1  
    35   24   26 1  
    36   25   27 1  
    37   28   25 1  
    38   26   29 1  
    39   35   26 1  
    40   27   35 am 
    41   27   37 2  
    42   28   36 am 
    43   28   38 2  
    44   34   30 1  
    45   31   34 1  
    46   32   33 1  
    47    1   42 1  
    48    2   43 1  
    49    3   44 1  
    50    4   45 1  
    51    5   46 1  
    52    6   47 1  
    53    7   48 1  
    54    8   49 1  
    55    9   50 1  
    56   10   51 1  
    57   11   52 1  
    58   12   53 1  
    59   23   54 1  
    60   24   55 1  
    61   25   56 1  
    62   26   57 1  
    63   29   58 1  
    64   29   59 1  
    65   29   60 1  
    66   30   61 1  
    67   30   62 1  
    68   30   63 1  
    69   32   64 1  
    70   36   65 1  
@<TRIPOS>SUBSTRUCTURE
     1 L1X         1

