### 
### Created by X-TOOL on Mon Sep 10 21:13:13 2018
### 

@<TRIPOS>MOLECULE
4ef6_ligand
   23    24     1     0     0
SMALL
GAST_HUCK


@<TRIPOS>ATOM
      1 C4         14.0110    9.9680   -3.9600 C.ar      1 I2E         0.1160
      2 C5         15.3410   10.2550   -3.8840 C.ar      1 I2E        -0.0478
      3 C6         15.9060   10.5870   -2.6350 C.ar      1 I2E        -0.0800
      4 C3         13.2090    9.9760   -2.8380 C.ar      1 I2E         0.1170
      5 C2         13.7160   10.2740   -1.5970 C.ar      1 I2E        -0.0396
      6 C1         15.0860   10.5630   -1.4630 C.ar      1 I2E        -0.0610
      7 C7         15.6130   10.9140   -0.1970 C.3       1 I2E        -0.0151
      8 C8         17.0060   10.2600    0.0980 C.3       1 I2E         0.0083
      9 C9         18.2290   11.1310   -0.3530 C.2       1 I2E         0.0365
     10 O1         18.1410   12.3670   -0.4680 O.co2     1 I2E        -0.5689
     11 C20        11.8820    9.5630   -4.6270 C.3       1 I2E         0.1854
     12 O2         19.2480   10.5040   -0.5910 O.co2     1 I2E        -0.5689
     13 O4         13.2800    9.6100   -5.0770 O.3       1 I2E        -0.2956
     14 O3         11.9130    9.6480   -3.1680 O.3       1 I2E        -0.2927
     15 H1         15.9585   10.2284   -4.7745 H         1 I2E         0.0493
     16 H2         16.9531   10.8582   -2.5637 H         1 I2E         0.0436
     17 H3         13.0666   10.2864   -0.7291 H         1 I2E         0.0450
     18 H4         14.9037   10.5893    0.5786 H         1 I2E         0.0422
     19 H5         15.7253   12.0075   -0.1566 H         1 I2E         0.0422
     20 H6         17.0544    9.2964   -0.4304 H         1 I2E         0.0450
     21 H7         17.0848   10.0884    1.1817 H         1 I2E         0.0450
     22 H8         11.4125    8.6197   -4.9428 H         1 I2E         0.0970
     23 H9         11.3194   10.4107   -5.0452 H         1 I2E         0.0970
@<TRIPOS>BOND
     1    1    2 ar 
     2    1    4 ar 
     3    1   13 1  
     4    2    3 ar 
     5    3    6 ar 
     6    4    5 ar 
     7    4   14 1  
     8    5    6 ar 
     9    6    7 1  
    10    7    8 1  
    11    8    9 1  
    12    9   10 ar 
    13    9   12 ar 
    14   13   11 1  
    15   11   14 1  
    16    2   15 1  
    17    3   16 1  
    18    5   17 1  
    19    7   18 1  
    20    7   19 1  
    21    8   20 1  
    22    8   21 1  
    23   11   22 1  
    24   11   23 1  
@<TRIPOS>SUBSTRUCTURE
     1 I2E         1

