### 
### Created by X-TOOL on Mon Sep 10 21:13:10 2018
### 

@<TRIPOS>MOLECULE
4efg_ligand
   50    50     1     0     0
SMALL
GAST_HUCK


@<TRIPOS>ATOM
      1 C1         -7.5700    1.7800   -8.2210 C.3       1 RET        -0.0970
      2 C2         -8.3630    1.9770   -6.9400 C.3       1 RET        -0.1037
      3 C3         -8.0700    3.3500   -6.3410 C.3       1 RET        -0.0389
      4 C4         -8.3810    4.5000   -7.2970 C.3       1 RET         0.0374
      5 C5         -7.8610    4.2600   -8.7110 C.2       1 RET         0.0234
      6 C6         -7.5660    3.0110   -9.1390 C.2       1 RET        -0.0560
      7 C7         -7.2070    2.8840  -10.5730 C.2       1 RET        -0.0696
      8 C8         -6.0350    2.3350  -10.9350 C.2       1 RET        -0.0618
      9 C9         -5.6330    2.2000  -12.3540 C.2       1 RET        -0.0512
     10 C10        -4.7060    1.2680  -12.6580 C.2       1 RET        -0.0715
     11 C11        -4.2400    1.0340  -14.0300 C.2       1 RET        -0.0806
     12 C12        -3.1830    0.2370  -14.1640 C.2       1 RET        -0.0756
     13 C13        -2.7290   -0.0390  -15.5230 C.2       1 RET        -0.0610
     14 C14        -1.9370   -1.0640  -15.7340 C.2       1 RET        -0.0818
     15 C15        -1.5470   -1.2830  -17.1630 C.3       1 RET        -0.0401
     16 C16        -8.0980    0.5230   -8.9170 C.3       1 RET        -0.1205
     17 C17        -6.1540    1.4450   -7.7700 C.3       1 RET        -0.1205
     18 C18        -7.6860    5.4770   -9.6070 C.3       1 RET         0.0278
     19 C19        -6.2210    3.0940  -13.4200 C.3       1 RET        -0.0323
     20 C20        -3.1820    0.7970  -16.6840 C.3       1 RET        -0.0402
     21 H          -8.0771    1.2076   -6.2228 H         1 RET         0.0062
     22 H          -9.4270    1.9072   -7.1660 H         1 RET         0.0062
     23 H          -7.0055    3.3901   -6.1101 H         1 RET         0.0308
     24 H          -8.7033    3.4697   -5.4620 H         1 RET         0.0308
     25 H          -7.8905    5.3935   -6.9109 H         1 RET         0.0732
     26 H          -9.4650    4.5986   -7.3550 H         1 RET         0.0732
     27 H          -7.8982    3.2382  -11.3377 H         1 RET         0.0605
     28 H          -5.3582    1.9774  -10.1590 H         1 RET         0.0560
     29 H          -4.2865    0.6649  -11.8528 H         1 RET         0.0484
     30 H          -4.7320    1.4875  -14.8905 H         1 RET         0.0518
     31 H          -2.6788   -0.1906  -13.2974 H         1 RET         0.0522
     32 H          -1.5884   -1.7091  -14.9275 H         1 RET         0.0575
     33 H          -2.4425   -1.4530  -17.7607 H         1 RET         0.0401
     34 H          -1.0226   -0.4025  -17.5342 H         1 RET         0.0401
     35 H          -0.8930   -2.1524  -17.2307 H         1 RET         0.0401
     36 H          -7.4589    0.2843   -9.7671 H         1 RET         0.0022
     37 H          -8.0943   -0.3092   -8.2131 H         1 RET         0.0022
     38 H          -9.1155    0.7020   -9.2646 H         1 RET         0.0022
     39 H          -6.1831    0.5973   -7.0854 H         1 RET         0.0022
     40 H          -5.5477    1.1909   -8.6394 H         1 RET         0.0022
     41 H          -5.7216    2.3080   -7.2636 H         1 RET         0.0022
     42 H          -6.6409    5.5596   -9.9054 H         1 RET         0.0698
     43 H          -8.3106    5.3668  -10.4934 H         1 RET         0.0698
     44 H          -7.9815    6.3734   -9.0619 H         1 RET         0.0698
     45 H          -5.4242    3.6731  -13.8869 H         1 RET         0.0396
     46 H          -6.7162    2.4815  -14.1735 H         1 RET         0.0396
     47 H          -6.9454    3.7703  -12.9662 H         1 RET         0.0396
     48 H          -2.3127    1.2269  -17.1816 H         1 RET         0.0350
     49 H          -3.7326    0.1721  -17.3871 H         1 RET         0.0350
     50 H          -3.8286    1.5971  -16.3236 H         1 RET         0.0350
@<TRIPOS>BOND
     1    1    2 1  
     2    1    6 1  
     3    1   16 1  
     4    1   17 1  
     5    2    3 1  
     6    3    4 1  
     7    4    5 1  
     8    5    6 2  
     9    5   18 1  
    10    6    7 1  
    11    7    8 2  
    12    8    9 1  
    13    9   10 2  
    14    9   19 1  
    15   10   11 1  
    16   11   12 2  
    17   12   13 1  
    18   13   14 2  
    19   13   20 1  
    20   14   15 1  
    21    2   21 1  
    22    2   22 1  
    23    3   23 1  
    24    3   24 1  
    25    4   25 1  
    26    4   26 1  
    27    7   27 1  
    28    8   28 1  
    29   10   29 1  
    30   11   30 1  
    31   12   31 1  
    32   14   32 1  
    33   15   33 1  
    34   15   34 1  
    35   15   35 1  
    36   16   36 1  
    37   16   37 1  
    38   16   38 1  
    39   17   39 1  
    40   17   40 1  
    41   17   41 1  
    42   18   42 1  
    43   18   43 1  
    44   18   44 1  
    45   19   45 1  
    46   19   46 1  
    47   19   47 1  
    48   20   48 1  
    49   20   49 1  
    50   20   50 1  
@<TRIPOS>SUBSTRUCTURE
     1 RET         1

