### 
### Created by X-TOOL on Mon Sep 10 21:13:13 2018
### 

@<TRIPOS>MOLECULE
4efk_ligand
   20    20     1     0     0
SMALL
GAST_HUCK


@<TRIPOS>ATOM
      1 CAA        13.8160    9.8840    6.5560 C.3       1 0OC         0.0176
      2 NAJ        13.7950    8.9570    7.7000 N.am      1 0OC        -0.2427
      3 CAB        13.7080    7.5100    7.5260 C.3       1 0OC         0.0176
      4 SAK        13.0790    9.6110    9.2260 S.o2      1 0OC         0.0585
      5 OAC        12.4200   11.0090    9.0130 O.2       1 0OC        -0.1532
      6 OAD        12.3190    8.5500   10.0090 O.2       1 0OC        -0.1532
      7 CAI        14.6710    9.9220   10.0250 C.2       1 0OC         0.0908
      8 CAF        15.5160    8.9220   10.4260 C.2       1 0OC        -0.0529
      9 CAE        16.7200    9.3090   11.0030 C.2       1 0OC        -0.0068
     10 SAH        16.5220   11.0950   11.0200 S.3       1 0OC        -0.0447
     11 CAG        14.9690   11.2150   10.2880 C.2       1 0OC         0.0176
     12 H1         14.2699    9.3843    5.6875 H         1 0OC         0.0442
     13 H2         14.4066   10.7747    6.8165 H         1 0OC         0.0442
     14 H3         12.7873   10.1854    6.3093 H         1 0OC         0.0442
     15 H4         14.1723    7.2271    6.5697 H         1 0OC         0.0442
     16 H5         12.6515    7.2036    7.5254 H         1 0OC         0.0442
     17 H6         14.2347    7.0091    8.3516 H         1 0OC         0.0442
     18 H7         15.2568    7.8720   10.2988 H         1 0OC         0.0422
     19 H8         17.5529    8.6987   11.3490 H         1 0OC         0.0711
     20 H9         14.3763   12.1063   10.0873 H         1 0OC         0.0730
@<TRIPOS>BOND
     1    1    2 1  
     2    2    3 1  
     3    2    4 am 
     4    4    5 2  
     5    4    6 2  
     6    4    7 1  
     7    7    8 1  
     8    7   11 2  
     9    8    9 2  
    10    9   10 1  
    11   10   11 1  
    12    1   12 1  
    13    1   13 1  
    14    1   14 1  
    15    3   15 1  
    16    3   16 1  
    17    3   17 1  
    18    8   18 1  
    19    9   19 1  
    20   11   20 1  
@<TRIPOS>SUBSTRUCTURE
     1 0OC         1

