### 
### Created by X-TOOL on Mon Sep 10 21:13:08 2018
### 

@<TRIPOS>MOLECULE
4efs_ligand
   48    50     1     0     0
SMALL
GAST_HUCK


@<TRIPOS>ATOM
      1 O1        -10.8930  -29.3390    1.7520 O.2       1 E37        -0.3947
      2 C6        -10.2010  -28.5480    2.3380 C.2       1 E37         0.1992
      3 N1         -9.3960  -29.0360    3.4060 N.am      1 E37        -0.2990
      4 C7        -10.1860  -27.0720    1.9680 C.3       1 E37         0.1316
      5 C8        -10.2370  -26.8430    0.4900 C.3       1 E37        -0.0009
      6 C9        -10.3330  -25.3640    0.2220 C.3       1 E37         0.0044
      7 C10        -8.9860  -24.6910    0.1580 C.2       1 E37         0.0350
      8 O4E        -9.0960  -23.4750    0.3600 O.co2     1 E37        -0.5690
      9 O4         -8.1030  -25.5080   -0.0700 O.co2     1 E37        -0.5690
     10 N2         -8.9920  -26.4170    2.4530 N.am      1 E37        -0.2654
     11 C11        -9.0820  -25.6230    3.6290 C.2       1 E37         0.2046
     12 O2        -10.1410  -25.5560    4.1930 O.2       1 E37        -0.3863
     13 C27        -7.8600  -24.9570    4.2050 C.ar      1 E37         0.0467
     14 C28        -6.5880  -25.3740    3.8490 C.ar      1 E37        -0.0445
     15 C15        -5.4760  -24.7720    4.4290 C.ar      1 E37        -0.0512
     16 C16        -5.6330  -23.7420    5.3350 C.ar      1 E37        -0.0079
     17 C17        -6.9000  -23.3640    5.7280 C.ar      1 E37        -0.0512
     18 C14        -8.0050  -23.9600    5.1470 C.ar      1 E37        -0.0445
     19 C18        -4.5370  -23.2040    5.9760 C.2       1 E37         0.0399
     20 C19        -3.2180  -23.6510    5.7820 C.2       1 E37        -0.0559
     21 C20        -2.2160  -22.8650    6.8080 C.2       1 E37        -0.0235
     22 C29        -2.9610  -22.0110    7.6330 C.2       1 E37         0.0098
     23 S7         -4.5670  -22.1230    7.2220 S.3       1 E37        -0.0313
     24 C21        -0.7210  -23.0830    6.8700 C.ar      1 E37        -0.0306
     25 C22         0.0350  -22.2320    7.5940 C.ar      1 E37        -0.0591
     26 C23         1.4210  -22.4890    7.6450 C.ar      1 E37        -0.0646
     27 C24         1.9430  -23.6260    6.9480 C.ar      1 E37        -0.0648
     28 C25         1.0580  -24.4700    6.2400 C.ar      1 E37        -0.0646
     29 C26        -0.2490  -24.1330    6.2550 C.ar      1 E37        -0.0591
     30 H1         -8.8080  -28.4083    3.9161 H         1 E37         0.1815
     31 H2         -9.4186  -30.0065    3.6461 H         1 E37         0.1815
     32 H3        -11.0661  -26.6001    2.4292 H         1 E37         0.0800
     33 H4        -11.1170  -27.3512    0.0689 H         1 E37         0.0330
     34 H5         -9.3245  -27.2430    0.0238 H         1 E37         0.0330
     35 H6        -10.9199  -24.8987    1.0276 H         1 E37         0.0433
     36 H7        -10.8463  -25.2140   -0.7393 H         1 E37         0.0433
     37 H8         -8.1215  -26.5201    1.9717 H         1 E37         0.1875
     38 H9         -6.4594  -26.1667    3.1209 H         1 E37         0.0660
     39 H10        -4.4808  -25.1135    4.1682 H         1 E37         0.0613
     40 H11        -7.0293  -22.6030    6.4890 H         1 E37         0.0613
     41 H12        -8.9991  -23.6388    5.4362 H         1 E37         0.0660
     42 H13        -2.9107  -24.4052    5.0591 H         1 E37         0.0468
     43 H14        -2.5526  -21.3758    8.4177 H         1 E37         0.0815
     44 H15        -0.4034  -21.3878    8.1137 H         1 E37         0.0594
     45 H16         2.0813  -21.8355    8.2035 H         1 E37         0.0609
     46 H17         3.0062  -23.8370    6.9634 H         1 E37         0.0592
     47 H18         1.4120  -25.3467    5.7098 H         1 E37         0.0609
     48 H19        -0.9470  -24.7714    5.7256 H         1 E37         0.0594
@<TRIPOS>BOND
     1    1    2 2  
     2    2    3 am 
     3    2    4 1  
     4    4    5 1  
     5    4   10 1  
     6    5    6 1  
     7    6    7 1  
     8    7    8 ar 
     9    7    9 ar 
    10   10   11 am 
    11   11   12 2  
    12   11   13 1  
    13   13   14 ar 
    14   13   18 ar 
    15   14   15 ar 
    16   15   16 ar 
    17   16   17 ar 
    18   16   19 1  
    19   17   18 ar 
    20   19   20 2  
    21   19   23 1  
    22   20   21 1  
    23   21   22 2  
    24   21   24 1  
    25   22   23 1  
    26   24   25 ar 
    27   24   29 ar 
    28   25   26 ar 
    29   26   27 ar 
    30   27   28 ar 
    31   28   29 ar 
    32    3   30 1  
    33    3   31 1  
    34    4   32 1  
    35    5   33 1  
    36    5   34 1  
    37    6   35 1  
    38    6   36 1  
    39   10   37 1  
    40   14   38 1  
    41   15   39 1  
    42   17   40 1  
    43   18   41 1  
    44   20   42 1  
    45   22   43 1  
    46   25   44 1  
    47   26   45 1  
    48   27   46 1  
    49   28   47 1  
    50   29   48 1  
@<TRIPOS>SUBSTRUCTURE
     1 E37         1

