### 
### Created by X-TOOL on Mon Sep 10 21:13:10 2018
### 

@<TRIPOS>MOLECULE
4eft_ligand
   39    41     1     0     0
SMALL
GAST_HUCK


@<TRIPOS>ATOM
      1 C1         65.1870   34.2210   24.1670 C.ar      1 EFT        -0.0408
      2 C2         64.0520   33.9760   24.9560 C.ar      1 EFT         0.0797
      3 C3         64.1210   33.4060   26.2170 C.ar      1 EFT        -0.0101
      4 C4         66.4230   33.9000   24.6560 C.ar      1 EFT        -0.0683
      5 N5         65.7990   32.4950   27.9210 N.pl3     1 EFT        -0.2300
      6 N6         67.1820   32.4090   27.8850 N.2       1 EFT        -0.2238
      7 C7         67.6560   32.8360   26.7330 C.2       1 EFT         0.0560
      8 C8         66.5350   33.3090   25.9350 C.ar      1 EFT         0.0079
      9 C9         65.3780   33.0590   26.7340 C.ar      1 EFT         0.0740
     10 C10        69.1110   32.9060   26.3380 C.3       1 EFT         0.1242
     11 C11        69.4230   32.2210   25.0000 C.3       1 EFT        -0.0137
     12 C12        69.5200   34.3190   26.2950 C.1       1 EFT         0.1065
     13 N13        69.8330   35.4100   26.2960 N.1       1 EFT        -0.3009
     14 O14        62.8460   34.2490   24.4420 O.3       1 EFT        -0.3357
     15 C15        70.6710   31.3330   25.0240 C.3       1 EFT        -0.0371
     16 C16        70.7330   30.6670   23.6440 C.3       1 EFT        -0.0500
     17 C17        71.9400   29.7400   23.5150 C.3       1 EFT        -0.0528
     18 C18        73.2480   30.5010   23.7840 C.3       1 EFT        -0.0530
     19 C19        73.1960   31.1890   25.1620 C.3       1 EFT        -0.0528
     20 C20        71.9740   32.1270   25.2580 C.3       1 EFT        -0.0500
     21 H1         65.0847   34.6598   23.1811 H         1 EFT         0.0482
     22 H2         63.2199   33.2314   26.7936 H         1 EFT         0.0453
     23 H3         67.3111   34.0975   24.0666 H         1 EFT         0.0583
     24 H4         65.1928   32.1916   28.6965 H         1 EFT         0.2367
     25 H5         69.6968   32.3954   27.1165 H         1 EFT         0.0751
     26 H6         69.5699   33.0016   24.2390 H         1 EFT         0.0312
     27 H7         68.5609   31.5965   24.7231 H         1 EFT         0.0312
     28 H8         62.3432   33.4459   24.3731 H         1 EFT         0.2480
     29 H9         70.5686   30.5735   25.8130 H         1 EFT         0.0303
     30 H10        70.8012   31.4494   22.8738 H         1 EFT         0.0268
     31 H11        69.8154   30.0801   23.4904 H         1 EFT         0.0268
     32 H12        71.9679   29.3248   22.4967 H         1 EFT         0.0265
     33 H13        71.8441   28.9206   24.2426 H         1 EFT         0.0265
     34 H14        73.3910   31.2630   23.0037 H         1 EFT         0.0265
     35 H15        74.0898   29.7932   23.7639 H         1 EFT         0.0265
     36 H16        74.1145   31.7767   25.3070 H         1 EFT         0.0265
     37 H17        73.1242   30.4212   25.9464 H         1 EFT         0.0265
     38 H18        71.9456   32.5850   26.2577 H         1 EFT         0.0268
     39 H19        72.0607   32.9153   24.4958 H         1 EFT         0.0268
@<TRIPOS>BOND
     1    2    1 ar 
     2    1    4 ar 
     3    3    2 ar 
     4    2   14 1  
     5    9    3 ar 
     6    4    8 ar 
     7    5    6 1  
     8    5    9 1  
     9    6    7 2  
    10    7    8 1  
    11    7   10 1  
    12    8    9 ar 
    13   10   11 1  
    14   10   12 1  
    15   11   15 1  
    16   12   13 3  
    17   15   16 1  
    18   15   20 1  
    19   16   17 1  
    20   17   18 1  
    21   18   19 1  
    22   19   20 1  
    23    1   21 1  
    24    3   22 1  
    25    4   23 1  
    26    5   24 1  
    27   10   25 1  
    28   11   26 1  
    29   11   27 1  
    30   14   28 1  
    31   15   29 1  
    32   16   30 1  
    33   16   31 1  
    34   17   32 1  
    35   17   33 1  
    36   18   34 1  
    37   18   35 1  
    38   19   36 1  
    39   19   37 1  
    40   20   38 1  
    41   20   39 1  
@<TRIPOS>SUBSTRUCTURE
     1 EFT         1

