### 
### Created by X-TOOL on Mon Sep 10 21:13:10 2018
### 

@<TRIPOS>MOLECULE
4efu_ligand
   52    55     1     0     0
SMALL
GAST_HUCK


@<TRIPOS>ATOM
      1 C1         -0.8670   11.0920   25.7270 C.ar      1 EFU         0.0713
      2 C2         -2.0350   11.4780   25.0190 C.ar      1 EFU         0.1004
      3 C3         -1.9520   12.1840   23.8320 C.ar      1 EFU        -0.0048
      4 C4          0.4070   11.3700   25.1900 C.ar      1 EFU        -0.0463
      5 O5         -3.2590   11.2620   25.5550 O.3       1 EFU        -0.3312
      6 C6         -0.9670   10.3650   27.0270 C.2       1 EFU         0.1985
      7 N7         -0.6750    9.0290   27.1470 N.am      1 EFU        -0.2670
      8 O8         -1.2970   11.0130   28.0170 O.2       1 EFU        -0.3935
      9 C9          0.4920   12.0110   23.9430 C.ar      1 EFU         0.0144
     10 C10        -0.6930   12.4380   23.2730 C.ar      1 EFU         0.0786
     11 N11        -0.3000   13.0240   22.1060 N.pl3     1 EFU        -0.2272
     12 N12         1.0920   12.9610   22.0130 N.2       1 EFU        -0.2220
     13 C13         1.6040   12.4290   23.0900 C.2       1 EFU         0.0407
     14 C14         3.0700   12.1190   23.2900 C.3       1 EFU         0.0201
     15 C15         3.7460   12.7600   24.4760 C.ar      1 EFU        -0.0388
     16 C16         4.1470   11.9790   25.5600 C.ar      1 EFU        -0.0654
     17 C17         5.1760   13.9040   26.6000 C.ar      1 EFU        -0.0673
     18 C18         4.7870   14.6690   25.5020 C.ar      1 EFU        -0.0526
     19 C19         4.8740   12.5480   26.6140 C.ar      1 EFU        -0.0749
     20 C20         4.0760   14.1130   24.4390 C.ar      1 EFU        -0.0576
     21 C21        -0.7630    8.3780   28.4660 C.3       1 EFU         0.0239
     22 C22        -0.3610    8.1380   26.0060 C.3       1 EFU         0.0662
     23 C23         1.0610    8.1090   25.5040 C.ar      1 EFU        -0.0209
     24 C24         1.2560    7.8480   24.1460 C.ar      1 EFU        -0.0584
     25 C25         3.6370    8.0370   24.4320 C.ar      1 EFU        -0.0687
     26 C26         3.4430    8.3040   25.7870 C.ar      1 EFU        -0.0685
     27 C27         2.5390    7.8170   23.6040 C.ar      1 EFU        -0.0685
     28 C28         2.1600    8.3360   26.3330 C.ar      1 EFU        -0.0584
     29 C29         5.1260   16.1190   25.4630 C.3       1 EFU        -0.0327
     30 H1         -2.8513   12.5366   23.3401 H         1 EFU         0.0462
     31 H2          1.3053   11.0938   25.7303 H         1 EFU         0.0649
     32 H3         -3.6753   12.0963   25.7375 H         1 EFU         0.2502
     33 H4         -0.9281   13.4449   21.4065 H         1 EFU         0.2381
     34 H5          3.6052   12.4449   22.3860 H         1 EFU         0.0579
     35 H6          3.1673   11.0289   23.4008 H         1 EFU         0.0579
     36 H7          3.8946   10.9251   25.5871 H         1 EFU         0.0503
     37 H8          5.7053   14.3593   27.4292 H         1 EFU         0.0501
     38 H9          5.2013   11.9292   27.4417 H         1 EFU         0.0582
     39 H10         3.7836   14.7261   23.5942 H         1 EFU         0.0497
     40 H11        -0.4956    7.3154   28.3690 H         1 EFU         0.0487
     41 H12        -1.7904    8.4640   28.8496 H         1 EFU         0.0487
     42 H13        -0.0687    8.8685   29.1641 H         1 EFU         0.0487
     43 H14        -0.9992    8.4458   25.1646 H         1 EFU         0.0685
     44 H15        -0.6224    7.1133   26.3088 H         1 EFU         0.0685
     45 H16         0.3995    7.6675   23.5065 H         1 EFU         0.0557
     46 H17         4.6406    8.0008   24.0240 H         1 EFU         0.0559
     47 H18         4.3004    8.4890   26.4240 H         1 EFU         0.0599
     48 H19         2.6814    7.6233   22.5470 H         1 EFU         0.0599
     49 H20         2.0183    8.5349   27.3891 H         1 EFU         0.0557
     50 H21         5.6832   16.3898   26.3720 H         1 EFU         0.0390
     51 H22         4.2002   16.7107   25.4105 H         1 EFU         0.0390
     52 H23         5.7450   16.3272   24.5779 H         1 EFU         0.0390
@<TRIPOS>BOND
     1    1    2 ar 
     2    1    4 ar 
     3    6    1 1  
     4    2    3 ar 
     5    2    5 1  
     6    3   10 ar 
     7    4    9 ar 
     8    7    6 am 
     9    6    8 2  
    10    7   21 1  
    11   22    7 1  
    12    9   10 ar 
    13    9   13 1  
    14   10   11 1  
    15   12   11 1  
    16   13   12 2  
    17   13   14 1  
    18   14   15 1  
    19   15   16 ar 
    20   15   20 ar 
    21   16   19 ar 
    22   18   17 ar 
    23   19   17 ar 
    24   20   18 ar 
    25   18   29 1  
    26   23   22 1  
    27   24   23 ar 
    28   23   28 ar 
    29   27   24 ar 
    30   25   26 ar 
    31   25   27 ar 
    32   26   28 ar 
    33    3   30 1  
    34    4   31 1  
    35    5   32 1  
    36   11   33 1  
    37   14   34 1  
    38   14   35 1  
    39   16   36 1  
    40   17   37 1  
    41   19   38 1  
    42   20   39 1  
    43   21   40 1  
    44   21   41 1  
    45   21   42 1  
    46   22   43 1  
    47   22   44 1  
    48   24   45 1  
    49   25   46 1  
    50   26   47 1  
    51   27   48 1  
    52   28   49 1  
    53   29   50 1  
    54   29   51 1  
    55   29   52 1  
@<TRIPOS>SUBSTRUCTURE
     1 EFU         1

