### 
### Created by X-TOOL on Tue Oct 16 15:17:33 2018
### 

@<TRIPOS>MOLECULE
4eg4_ligand
   52    54     1     0     0
SMALL
GAST_HUCK


@<TRIPOS>ATOM
      1 CAA        45.3670   14.5840   -7.2000 C.3       1 MOL        -0.0371
      2 CAL        43.9460   15.1390   -7.2500 C.3       1 MOL         0.0676
      3 OAT        42.9880   14.0710   -7.0770 O.3       1 MOL        -0.3175
      4 CAY        41.6410   14.3090   -7.0130 C.ar      1 MOL         0.1112
      5 CAV        41.0090   15.5750   -7.0380 C.ar      1 MOL         0.0373
      6 BR2        41.8360   17.3030   -7.1670 Br        1 MOL        -0.0593
      7 CAI        39.6280   15.6410   -6.9670 C.ar      1 MOL        -0.0584
      8 CAU        38.8620   14.5070   -6.8690 C.ar      1 MOL        -0.0025
      9 BR1        36.9870   14.7010   -6.7600 Br        1 MOL        -0.0611
     10 CAJ        39.4790   13.2720   -6.8450 C.ar      1 MOL        -0.0515
     11 CAX        40.8620   13.1590   -6.9260 C.ar      1 MOL         0.0362
     12 CAP        41.3880   11.7110   -6.8650 C.3       1 MOL        -0.0001
     13 NAQ        42.3730   11.2670   -7.8630 N.4       1 MOL         0.2376
     14 CAN        42.1860   11.9010   -9.1980 C.3       1 MOL        -0.0323
     15 CAM        43.0940   11.1550  -10.2080 C.3       1 MOL        -0.0091
     16 CAO        44.0640   12.0520  -11.0140 C.3       1 MOL        -0.0184
     17 NAR        43.3070   12.7290  -12.0830 N.2       1 MOL        -0.3664
     18 CAW        43.8230   13.6370  -12.9140 C.2       1 MOL         0.1306
     19 CAK        45.1760   13.6770  -13.2680 C.3       1 MOL         0.1058
     20 CAZ        45.6530   14.6550  -14.1540 C.2       1 MOL         0.1487
     21 OAB        46.8570   14.6900  -14.4520 O.2       1 MOL        -0.3823
     22 CBB        44.7520   15.5930  -14.6890 C.ar      1 MOL         0.0607
     23 CAH        45.1780   16.5880  -15.5690 C.ar      1 MOL        -0.0513
     24 CAF        44.2660   17.5070  -16.0820 C.ar      1 MOL        -0.0667
     25 CAE        42.9250   17.4480  -15.7310 C.ar      1 MOL        -0.0660
     26 CAG        42.4950   16.4620  -14.8610 C.ar      1 MOL        -0.0302
     27 CBA        43.4040   15.5470  -14.3380 C.ar      1 MOL         0.0910
     28 NAS        42.9500   14.5720  -13.4520 N.pl3     1 MOL        -0.2347
     29 H1         46.0864   15.4055   -7.3327 H         1 MOL         0.0256
     30 H2         45.5009   13.8459   -8.0045 H         1 MOL         0.0256
     31 H3         45.5379   14.1007   -6.2268 H         1 MOL         0.0256
     32 H4         43.7788   15.6232   -8.2234 H         1 MOL         0.0611
     33 H5         43.8158   15.8780   -6.4457 H         1 MOL         0.0611
     34 H6         39.1414   16.6094   -6.9893 H         1 MOL         0.0585
     35 H7         38.8749   12.3758   -6.7616 H         1 MOL         0.0576
     36 H8         40.5156   11.0472   -6.9558 H         1 MOL         0.0956
     37 H9         41.8492   11.5771   -5.8754 H         1 MOL         0.0956
     38 H10        42.2927   10.2679   -7.9693 H         1 MOL         0.2025
     39 H11        43.2951   11.4961   -7.5264 H         1 MOL         0.2025
     40 H12        42.4712   12.9623   -9.1515 H         1 MOL         0.0814
     41 H13        41.1339   11.8173   -9.5080 H         1 MOL         0.0814
     42 H14        42.4453   10.6279  -10.9231 H         1 MOL         0.0319
     43 H15        43.6943   10.4225   -9.6485 H         1 MOL         0.0319
     44 H16        44.8576   11.4330  -11.4580 H         1 MOL         0.0307
     45 H17        44.5140   12.8024  -10.3474 H         1 MOL         0.0307
     46 H18        45.4126   12.7018  -13.7185 H         1 MOL         0.0778
     47 H19        45.7428   13.7961  -12.3328 H         1 MOL         0.0778
     48 H20        46.2221   16.6461  -15.8544 H         1 MOL         0.0643
     49 H21        44.6079   18.2775  -16.7636 H         1 MOL         0.0538
     50 H22        42.2213   18.1672  -16.1344 H         1 MOL         0.0627
     51 H23        41.4481   16.4020  -14.5862 H         1 MOL         0.0555
     52 H24        41.9535   14.5449  -13.1930 H         1 MOL         0.2273
@<TRIPOS>BOND
     1    1    2 1  
     2    2    3 1  
     3    3    4 1  
     4    4    5 ar 
     5    4   11 ar 
     6    5    6 1  
     7    5    7 ar 
     8    7    8 ar 
     9    8    9 1  
    10    8   10 ar 
    11   10   11 ar 
    12   11   12 1  
    13   12   13 1  
    14   13   14 1  
    15   14   15 1  
    16   15   16 1  
    17   16   17 1  
    18   17   18 2  
    19   18   19 1  
    20   18   28 1  
    21   19   20 1  
    22   20   21 2  
    23   20   22 1  
    24   22   23 ar 
    25   22   27 ar 
    26   23   24 ar 
    27   24   25 ar 
    28   25   26 ar 
    29   26   27 ar 
    30   27   28 1  
    31    1   29 1  
    32    1   30 1  
    33    1   31 1  
    34    2   32 1  
    35    2   33 1  
    36    7   34 1  
    37   10   35 1  
    38   12   36 1  
    39   12   37 1  
    40   13   38 1  
    41   13   39 1  
    42   14   40 1  
    43   14   41 1  
    44   15   42 1  
    45   15   43 1  
    46   16   44 1  
    47   16   45 1  
    48   19   46 1  
    49   19   47 1  
    50   23   48 1  
    51   24   49 1  
    52   25   50 1  
    53   26   51 1  
    54   28   52 1  
@<TRIPOS>SUBSTRUCTURE
     1 MOL         1

