### 
### Created by X-TOOL on Tue Oct 16 15:17:34 2018
### 

@<TRIPOS>MOLECULE
4eg5_ligand
   45    47     1     0     0
SMALL
GAST_HUCK


@<TRIPOS>ATOM
      1 CAI        41.3830  -14.6040    7.1480 C.ar      1 MOL        -0.0413
      2 CAS        40.6960  -15.8050    7.1610 C.ar      1 MOL         0.0345
      3 CL1        41.5480  -17.2920    7.1470 Cl        1 MOL        -0.0725
      4 CAH        39.3200  -15.8350    7.1700 C.ar      1 MOL        -0.0409
      5 CAT        38.6130  -14.6460    7.1680 C.ar      1 MOL         0.0345
      6 CL2        36.8890  -14.7690    7.1780 Cl        1 MOL        -0.0725
      7 CAJ        39.2820  -13.4210    7.1630 C.ar      1 MOL        -0.0413
      8 CAU        40.6780  -13.4130    7.1360 C.ar      1 MOL         0.0022
      9 CAO        41.4680  -12.1040    7.1380 C.3       1 MOL         0.0001
     10 NAP        41.4720  -11.6790    8.5330 N.4       1 MOL         0.2391
     11 CAM        42.8640  -11.8240    9.0170 C.3       1 MOL        -0.0321
     12 CAL        42.9360  -11.1970   10.4210 C.3       1 MOL        -0.0091
     13 CAN        43.8160  -12.0140   11.3740 C.3       1 MOL        -0.0184
     14 NAQ        43.0080  -13.0020   12.1080 N.2       1 MOL        -0.3664
     15 CAV        43.5380  -13.8750   12.9820 C.2       1 MOL         0.1306
     16 CAK        44.9050  -13.9050   13.3040 C.3       1 MOL         0.1058
     17 CAW        45.4030  -14.8400   14.2240 C.2       1 MOL         0.1487
     18 OAA        46.6050  -14.8790   14.5010 O.2       1 MOL        -0.3823
     19 CAY        44.5300  -15.7530   14.8240 C.ar      1 MOL         0.0607
     20 CAG        45.0010  -16.7000   15.7360 C.ar      1 MOL        -0.0513
     21 CAE        44.1120  -17.6070   16.3280 C.ar      1 MOL        -0.0667
     22 CAD        42.7510  -17.5910   16.0250 C.ar      1 MOL        -0.0660
     23 CAF        42.2900  -16.6430   15.1150 C.ar      1 MOL        -0.0302
     24 CAX        43.1670  -15.7330   14.5140 C.ar      1 MOL         0.0910
     25 NAR        42.6750  -14.7980   13.5960 N.pl3     1 MOL        -0.2347
     26 H1         42.4670  -14.5959    7.1472 H         1 MOL         0.0565
     27 H2         38.7944  -16.7830    7.1786 H         1 MOL         0.0571
     28 H3         38.7264  -12.4903    7.1798 H         1 MOL         0.0565
     29 H4         40.9751  -11.3520    6.5044 H         1 MOL         0.0979
     30 H5         42.4947  -12.2695    6.7796 H         1 MOL         0.0979
     31 H6         40.8531  -12.2610    9.0754 H         1 MOL         0.2028
     32 H7         41.1777  -10.7176    8.6043 H         1 MOL         0.2028
     33 H8         43.5538  -11.3022    8.3374 H         1 MOL         0.0814
     34 H9         43.1346  -12.8890    9.0675 H         1 MOL         0.0814
     35 H10        41.9193  -11.1416   10.8371 H         1 MOL         0.0319
     36 H11        43.3529  -10.1827   10.3354 H         1 MOL         0.0319
     37 H12        44.2972  -11.3349   12.0932 H         1 MOL         0.0307
     38 H13        44.5880  -12.5391   10.7923 H         1 MOL         0.0307
     39 H14        45.1567  -12.9100   13.6996 H         1 MOL         0.0778
     40 H15        45.4465  -14.0725   12.3613 H         1 MOL         0.0778
     41 H16        46.0552  -16.7334   15.9861 H         1 MOL         0.0643
     42 H17        44.4899  -18.3358   17.0358 H         1 MOL         0.0538
     43 H18        42.0700  -18.2976   16.4855 H         1 MOL         0.0627
     44 H19        41.2350  -16.6094   14.8682 H         1 MOL         0.0555
     45 H20        41.6705  -14.7865   13.3684 H         1 MOL         0.2273
@<TRIPOS>BOND
     1    1    2 ar 
     2    1    8 ar 
     3    2    3 1  
     4    2    4 ar 
     5    4    5 ar 
     6    5    6 1  
     7    5    7 ar 
     8    7    8 ar 
     9    8    9 1  
    10    9   10 1  
    11   10   11 1  
    12   11   12 1  
    13   12   13 1  
    14   13   14 1  
    15   14   15 2  
    16   15   16 1  
    17   15   25 1  
    18   16   17 1  
    19   17   18 2  
    20   17   19 1  
    21   19   20 ar 
    22   19   24 ar 
    23   20   21 ar 
    24   21   22 ar 
    25   22   23 ar 
    26   23   24 ar 
    27   24   25 1  
    28    1   26 1  
    29    4   27 1  
    30    7   28 1  
    31    9   29 1  
    32    9   30 1  
    33   10   31 1  
    34   10   32 1  
    35   11   33 1  
    36   11   34 1  
    37   12   35 1  
    38   12   36 1  
    39   13   37 1  
    40   13   38 1  
    41   16   39 1  
    42   16   40 1  
    43   20   41 1  
    44   21   42 1  
    45   22   43 1  
    46   23   44 1  
    47   25   45 1  
@<TRIPOS>SUBSTRUCTURE
     1 MOL         1

