### 
### Created by X-TOOL on Tue Oct 16 15:17:32 2018
### 

@<TRIPOS>MOLECULE
4eg6_ligand
   56    60     1     0     0
SMALL
GAST_HUCK


@<TRIPOS>ATOM
      1 CL1       -41.1970  -16.4830   -6.9680 Cl        1 MOL        -0.0797
      2 CAY       -40.1100  -15.1480   -7.0030 C.ar      1 MOL         0.0659
      3 CAJ       -38.7440  -15.3350   -7.1320 C.ar      1 MOL        -0.0259
      4 CAZ       -37.9010  -14.2240   -7.1680 C.ar      1 MOL         0.0813
      5 OAV       -36.5590  -14.3670   -7.2930 O.3       1 MOL        -0.3276
      6 CAA       -36.1660  -15.6620   -6.8640 C.3       1 MOL         0.0572
      7 CAF       -38.4370  -12.9450   -7.0890 C.ar      1 MOL        -0.0395
      8 CAG       -39.8090  -12.7690   -6.9550 C.ar      1 MOL        -0.0346
      9 CBD       -40.6420  -13.8810   -6.9220 C.ar      1 MOL         0.1256
     10 OAW       -41.9870  -13.7720   -6.7770 O.3       1 MOL        -0.2451
     11 C4        -42.7500  -13.5470   -7.8700 C.ar      1 MOL         0.1742
     12 C5        -42.2420  -13.1530   -9.1130 C.ar      1 MOL         0.0230
     13 N3        -44.0670  -13.6970   -7.7210 N.ar      1 MOL        -0.2456
     14 C2        -44.8970  -13.4770   -8.7490 C.ar      1 MOL         0.1660
     15 N         -46.2600  -13.6590   -8.5810 N.pl3     1 MOL        -0.2602
     16 CA        -46.8070  -13.8120   -7.2070 C.3       1 MOL         0.1224
     17 CAM       -47.1130  -13.7490   -9.8000 C.3       1 MOL         0.0560
     18 CAL       -48.5220  -13.3020   -9.4580 C.3       1 MOL         0.0517
     19 NAS       -48.9970  -14.2030   -8.3850 N.am      1 MOL        -0.2833
     20 C         -48.1730  -14.4650   -7.2850 C.2       1 MOL         0.1991
     21 O         -48.5580  -15.2060   -6.3870 O.2       1 MOL        -0.3948
     22 N1        -44.4400  -13.1070   -9.9490 N.ar      1 MOL        -0.2575
     23 C6        -43.1360  -12.9400  -10.1570 C.ar      1 MOL         0.1036
     24 NAT       -42.7170  -12.5710  -11.3560 N.pl3     1 MOL        -0.2871
     25 CAN       -43.6600  -12.4520  -12.4800 C.3       1 MOL         0.1105
     26 CBC       -43.6800  -13.7170  -13.3230 C.2       1 MOL         0.1437
     27 NAU       -44.7540  -14.1810  -13.9490 N.pl3     1 MOL        -0.2447
     28 CBG       -44.4220  -15.3010  -14.5820 C.ar      1 MOL         0.0783
     29 CAI       -45.1520  -16.1840  -15.3730 C.ar      1 MOL        -0.0422
     30 CAE       -44.5170  -17.2940  -15.9180 C.ar      1 MOL        -0.0766
     31 CAD       -43.1630  -17.5150  -15.6640 C.ar      1 MOL        -0.0786
     32 CAH       -42.4340  -16.6300  -14.8780 C.ar      1 MOL        -0.0656
     33 CBF       -43.0750  -15.5270  -14.3330 C.ar      1 MOL         0.0208
     34 NAR       -42.6540  -14.5360  -13.5590 N.2       1 MOL        -0.3163
     35 H1        -38.3334  -16.3356   -7.2044 H         1 MOL         0.0524
     36 H2        -35.0762  -15.7681   -6.9692 H         1 MOL         0.0573
     37 H3        -36.6695  -16.4211   -7.4807 H         1 MOL         0.0573
     38 H4        -36.4477  -15.8002   -5.8097 H         1 MOL         0.0573
     39 H5        -37.7831  -12.0815   -7.1320 H         1 MOL         0.0522
     40 H6        -40.2264  -11.7717   -6.8768 H         1 MOL         0.0532
     41 H7        -41.1765  -13.0170   -9.2588 H         1 MOL         0.0482
     42 H8        -46.8985  -12.8227   -6.7350 H         1 MOL         0.0770
     43 H9        -46.1314  -14.4421   -6.6099 H         1 MOL         0.0770
     44 H10       -47.1339  -14.7888  -10.1583 H         1 MOL         0.0548
     45 H11       -46.7014  -13.0985  -10.5858 H         1 MOL         0.0548
     46 H12       -49.1726  -13.3859  -10.3410 H         1 MOL         0.0540
     47 H13       -48.5155  -12.2603   -9.1049 H         1 MOL         0.0540
     48 H14       -49.9026  -14.6227   -8.4456 H         1 MOL         0.1852
     49 H15       -41.7190  -12.3644  -11.5050 H         1 MOL         0.1871
     50 H16       -43.3574  -11.6048  -13.1130 H         1 MOL         0.0796
     51 H17       -44.6696  -12.2707  -12.0827 H         1 MOL         0.0796
     52 H18       -45.6877  -13.7462  -13.9449 H         1 MOL         0.2323
     53 H19       -46.2048  -16.0077  -15.5619 H         1 MOL         0.0541
     54 H20       -45.0729  -17.9868  -16.5394 H         1 MOL         0.0528
     55 H21       -42.6741  -18.3865  -16.0842 H         1 MOL         0.0516
     56 H22       -41.3793  -16.7994  -14.6935 H         1 MOL         0.0535
@<TRIPOS>BOND
     1    1    2 1  
     2    2    3 ar 
     3    2    9 ar 
     4    3    4 ar 
     5    4    5 1  
     6    4    7 ar 
     7    5    6 1  
     8    7    8 ar 
     9    8    9 ar 
    10    9   10 1  
    11   10   11 1  
    12   11   12 ar 
    13   11   13 ar 
    14   12   23 ar 
    15   13   14 ar 
    16   14   15 1  
    17   14   22 ar 
    18   15   16 1  
    19   15   17 1  
    20   16   20 1  
    21   17   18 1  
    22   18   19 1  
    23   19   20 am 
    24   20   21 2  
    25   22   23 ar 
    26   23   24 1  
    27   24   25 1  
    28   25   26 1  
    29   26   27 1  
    30   26   34 2  
    31   27   28 1  
    32   28   29 ar 
    33   28   33 ar 
    34   29   30 ar 
    35   30   31 ar 
    36   31   32 ar 
    37   32   33 ar 
    38   33   34 1  
    39    3   35 1  
    40    6   36 1  
    41    6   37 1  
    42    6   38 1  
    43    7   39 1  
    44    8   40 1  
    45   12   41 1  
    46   16   42 1  
    47   16   43 1  
    48   17   44 1  
    49   17   45 1  
    50   18   46 1  
    51   18   47 1  
    52   19   48 1  
    53   24   49 1  
    54   25   50 1  
    55   25   51 1  
    56   27   52 1  
    57   29   53 1  
    58   30   54 1  
    59   31   55 1  
    60   32   56 1  
@<TRIPOS>SUBSTRUCTURE
     1 MOL         1

