### 
### Created by X-TOOL on Tue Oct 16 15:17:29 2018
### 

@<TRIPOS>MOLECULE
4eg7_ligand
   42    44     1     0     0
SMALL
GAST_HUCK


@<TRIPOS>ATOM
      1 CAH       -40.0420   13.4980    6.9690 C.ar      1 MOL        -0.0413
      2 CAR       -39.3970   14.7350    6.9210 C.ar      1 MOL         0.0345
      3 CL1       -37.6480   14.8490    6.9340 Cl        1 MOL        -0.0725
      4 CAG       -40.1700   15.8940    6.8690 C.ar      1 MOL        -0.0409
      5 CAS       -41.5600   15.8210    6.8620 C.ar      1 MOL         0.0345
      6 CL2       -42.5270   17.2640    6.7900 Cl        1 MOL        -0.0725
      7 CAI       -42.1870   14.5880    6.9090 C.ar      1 MOL        -0.0413
      8 CAT       -41.4350   13.4280    6.9530 C.ar      1 MOL         0.0022
      9 CAM       -42.1610   12.0740    6.9970 C.3       1 MOL         0.0001
     10 NAO       -42.2140   11.6410    8.3880 N.4       1 MOL         0.2391
     11 CAK       -43.5640   12.0190    8.8330 C.3       1 MOL        -0.0304
     12 CAJ       -43.8390   11.4400   10.2210 C.3       1 MOL         0.0081
     13 CAL       -44.6170   12.4100   11.1050 C.3       1 MOL         0.0384
     14 NAP       -43.6830   13.1680   11.9380 N.pl3     1 MOL        -0.2746
     15 CAU       -44.1120   14.0690   12.7910 C.2       1 MOL         0.2131
     16 NAQ       -45.3780   14.2220   13.1500 N.pl3     1 MOL        -0.2303
     17 CAW       -45.4140   15.2350   14.0120 C.ar      1 MOL         0.0750
     18 CAF       -46.4550   15.8490   14.7130 C.ar      1 MOL        -0.0448
     19 CAD       -46.1910   16.9150   15.5680 C.ar      1 MOL        -0.0787
     20 CAC       -44.8850   17.3730   15.7170 C.ar      1 MOL        -0.0809
     21 CAE       -43.8420   16.7590   15.0240 C.ar      1 MOL        -0.0694
     22 CAV       -44.1100   15.6910   14.1690 C.ar      1 MOL         0.0112
     23 NAN       -43.3320   14.9440   13.3920 N.2       1 MOL        -0.3137
     24 H1        -39.4571   12.5867    7.0190 H         1 MOL         0.0565
     25 H2        -39.6835   16.8621    6.8337 H         1 MOL         0.0571
     26 H3        -43.2695   14.5313    6.9113 H         1 MOL         0.0565
     27 H4        -41.6110   11.3349    6.3959 H         1 MOL         0.0979
     28 H5        -43.1811   12.1834    6.6002 H         1 MOL         0.0979
     29 H6        -41.5119   12.1128    8.9362 H         1 MOL         0.2028
     30 H7        -42.0809   10.6443    8.4574 H         1 MOL         0.2028
     31 H8        -44.3053   11.6265    8.1213 H         1 MOL         0.0814
     32 H9        -43.6401   13.1156    8.8743 H         1 MOL         0.0814
     33 H10       -42.8787   11.2107   10.7061 H         1 MOL         0.0337
     34 H11       -44.4237   10.5150   10.1097 H         1 MOL         0.0337
     35 H12       -45.3076   11.8458   11.7490 H         1 MOL         0.0528
     36 H13       -45.1898   13.1038   10.4722 H         1 MOL         0.0528
     37 H14       -42.6717   12.9917   11.8537 H         1 MOL         0.1896
     38 H15       -46.1802   13.6640   12.8244 H         1 MOL         0.2311
     39 H16       -47.4718   15.4939   14.5905 H         1 MOL         0.0533
     40 H17       -46.9990   17.3866   16.1156 H         1 MOL         0.0513
     41 H18       -44.6779   18.2099   16.3740 H         1 MOL         0.0508
     42 H19       -42.8247   17.1116   15.1500 H         1 MOL         0.0516
@<TRIPOS>BOND
     1    1    2 ar 
     2    1    8 ar 
     3    2    3 1  
     4    2    4 ar 
     5    4    5 ar 
     6    5    6 1  
     7    5    7 ar 
     8    7    8 ar 
     9    8    9 1  
    10    9   10 1  
    11   10   11 1  
    12   11   12 1  
    13   12   13 1  
    14   13   14 1  
    15   14   15 1  
    16   15   16 1  
    17   15   23 2  
    18   16   17 1  
    19   17   18 ar 
    20   17   22 ar 
    21   18   19 ar 
    22   19   20 ar 
    23   20   21 ar 
    24   21   22 ar 
    25   22   23 1  
    26    1   24 1  
    27    4   25 1  
    28    7   26 1  
    29    9   27 1  
    30    9   28 1  
    31   10   29 1  
    32   10   30 1  
    33   11   31 1  
    34   11   32 1  
    35   12   33 1  
    36   12   34 1  
    37   13   35 1  
    38   13   36 1  
    39   14   37 1  
    40   16   38 1  
    41   18   39 1  
    42   19   40 1  
    43   20   41 1  
    44   21   42 1  
@<TRIPOS>SUBSTRUCTURE
     1 MOL         1

