### 
### Created by X-TOOL on Tue Oct 16 15:17:30 2018
### 

@<TRIPOS>MOLECULE
4ega_ligand
   49    51     1     0     0
SMALL
GAST_HUCK


@<TRIPOS>ATOM
      1 CAA       -43.5870   13.6280    6.8060 C.3       1 MOL         0.0594
      2 OAS       -42.8120   14.7020    7.2670 O.3       1 MOL        -0.3205
      3 CAX       -41.4420   14.5470    7.1990 C.ar      1 MOL         0.1109
      4 CAU       -40.7170   15.7140    7.1110 C.ar      1 MOL         0.0373
      5 BR1       -41.6530   17.3470    7.0540 Br        1 MOL        -0.0593
      6 CAI       -39.3440   15.7320    7.0410 C.ar      1 MOL        -0.0584
      7 CAT       -38.6320   14.5610    7.0680 C.ar      1 MOL        -0.0025
      8 BR2       -36.7240   14.6920    6.9640 Br        1 MOL        -0.0611
      9 CAJ       -39.3440   13.3660    7.1650 C.ar      1 MOL        -0.0515
     10 CAW       -40.7450   13.3340    7.2160 C.ar      1 MOL         0.0362
     11 CAO       -41.4120   11.9540    7.3390 C.3       1 MOL        -0.0001
     12 NAP       -41.5450   11.7420    8.7750 N.4       1 MOL         0.2376
     13 CAM       -42.8220   11.0950    9.0950 C.3       1 MOL        -0.0323
     14 CAL       -42.9160   11.0080   10.6220 C.3       1 MOL        -0.0091
     15 CAN       -43.7680   12.1270   11.2120 C.3       1 MOL        -0.0184
     16 NAQ       -43.0110   12.8370   12.2610 N.2       1 MOL        -0.3664
     17 CAV       -43.5570   13.7190   13.0880 C.2       1 MOL         0.1306
     18 CAK       -44.9220   13.7100   13.3690 C.3       1 MOL         0.1058
     19 CAY       -45.4730   14.6530   14.2400 C.2       1 MOL         0.1487
     20 OAB       -46.6870   14.6250   14.4730 O.2       1 MOL        -0.3823
     21 CBA       -44.6300   15.6050   14.8360 C.ar      1 MOL         0.0607
     22 CAH       -45.1310   16.5640   15.7110 C.ar      1 MOL        -0.0513
     23 CAF       -44.2780   17.5080   16.2830 C.ar      1 MOL        -0.0667
     24 CAE       -42.9160   17.5060   15.9970 C.ar      1 MOL        -0.0660
     25 CAG       -42.4080   16.5480   15.1320 C.ar      1 MOL        -0.0302
     26 CAZ       -43.2570   15.6060   14.5570 C.ar      1 MOL         0.0910
     27 NAR       -42.7240   14.6590   13.6820 N.pl3     1 MOL        -0.2347
     28 H1        -44.6540   13.8734    6.9126 H         1 MOL         0.0578
     29 H2        -43.3567   12.7293    7.3970 H         1 MOL         0.0578
     30 H3        -43.3583   13.4388    5.7468 H         1 MOL         0.0578
     31 H4        -38.8211   16.6784    6.9640 H         1 MOL         0.0585
     32 H5        -38.7966   12.4311    7.2022 H         1 MOL         0.0576
     33 H6        -40.7804   11.1748    6.8875 H         1 MOL         0.0956
     34 H7        -42.3986   11.9538    6.8526 H         1 MOL         0.0956
     35 H8        -41.4998   12.6324    9.2452 H         1 MOL         0.2025
     36 H9        -40.7895   11.1553    9.0929 H         1 MOL         0.2025
     37 H10       -42.8534   10.0863    8.6575 H         1 MOL         0.0814
     38 H11       -43.6567   11.6924    8.6995 H         1 MOL         0.0814
     39 H12       -41.9022   11.0749   11.0436 H         1 MOL         0.0319
     40 H13       -43.3635   10.0409   10.8948 H         1 MOL         0.0319
     41 H14       -44.6815   11.6977   11.6492 H         1 MOL         0.0307
     42 H15       -44.0405   12.8359   10.4162 H         1 MOL         0.0307
     43 H16       -45.1504   12.7201   13.7909 H         1 MOL         0.0778
     44 H17       -45.4425   13.8276   12.4071 H         1 MOL         0.0778
     45 H18       -46.1884   16.5776   15.9491 H         1 MOL         0.0643
     46 H19       -44.6814   18.2530   16.9592 H         1 MOL         0.0538
     47 H20       -42.2602   18.2440   16.4447 H         1 MOL         0.0627
     48 H21       -41.3485   16.5327   14.9033 H         1 MOL         0.0555
     49 H22       -41.7147   14.6567   13.4767 H         1 MOL         0.2273
@<TRIPOS>BOND
     1    1    2 1  
     2    2    3 1  
     3    3    4 ar 
     4    3   10 ar 
     5    4    5 1  
     6    4    6 ar 
     7    6    7 ar 
     8    7    8 1  
     9    7    9 ar 
    10    9   10 ar 
    11   10   11 1  
    12   11   12 1  
    13   12   13 1  
    14   13   14 1  
    15   14   15 1  
    16   15   16 1  
    17   16   17 2  
    18   17   18 1  
    19   17   27 1  
    20   18   19 1  
    21   19   20 2  
    22   19   21 1  
    23   21   22 ar 
    24   21   26 ar 
    25   22   23 ar 
    26   23   24 ar 
    27   24   25 ar 
    28   25   26 ar 
    29   26   27 1  
    30    1   28 1  
    31    1   29 1  
    32    1   30 1  
    33    6   31 1  
    34    9   32 1  
    35   11   33 1  
    36   11   34 1  
    37   12   35 1  
    38   12   36 1  
    39   13   37 1  
    40   13   38 1  
    41   14   39 1  
    42   14   40 1  
    43   15   41 1  
    44   15   42 1  
    45   18   43 1  
    46   18   44 1  
    47   22   45 1  
    48   23   46 1  
    49   24   47 1  
    50   25   48 1  
    51   27   49 1  
@<TRIPOS>SUBSTRUCTURE
     1 MOL         1

