### 
### Created by X-TOOL on Mon Sep 10 21:13:09 2018
### 

@<TRIPOS>MOLECULE
4egh_ligand
   28    29     1     0     0
SMALL
GAST_HUCK


@<TRIPOS>ATOM
      1 O1          2.4340   10.3740  -27.0160 O.2       1 0OY        -0.3896
      2 C1          1.6450    9.8560  -26.1860 C.2       1 0OY         0.1994
      3 N           0.9840    8.7040  -26.3730 N.am      1 0OY        -0.2696
      4 C11         0.0820    8.0620  -25.3980 C.3       1 0OY         0.0566
      5 C10         0.4610    6.5910  -25.3700 C.3       1 0OY         0.0680
      6 O3          0.2990    6.0090  -26.6660 O.3       1 0OY        -0.3758
      7 C9          1.3040    6.4990  -27.4980 C.3       1 0OY         0.0680
      8 C8          0.9830    7.9890  -27.6430 C.3       1 0OY         0.0566
      9 C2          1.4330   10.6070  -24.9210 C.ar      1 0OY         0.0387
     10 C7          0.1960   11.0460  -24.4830 C.ar      1 0OY        -0.0504
     11 C6          0.0640   11.7650  -23.2700 C.ar      1 0OY        -0.0271
     12 C5          1.2060   12.0480  -22.4790 C.ar      1 0OY         0.0931
     13 O2          1.1800   12.6790  -21.2830 O.3       1 0OY        -0.3296
     14 C4          2.4610   11.6090  -22.9480 C.ar      1 0OY        -0.0271
     15 C3          2.5420   10.9210  -24.1600 C.ar      1 0OY        -0.0504
     16 H1         -0.9653    8.1794  -25.7133 H         1 0OY         0.0544
     17 H2          0.2174    8.5091  -24.4021 H         1 0OY         0.0544
     18 H3         -0.1854    6.0639  -24.6528 H         1 0OY         0.0580
     19 H4          1.5112    6.4933  -25.0577 H         1 0OY         0.0580
     20 H5          1.2782    5.9979  -28.4769 H         1 0OY         0.0580
     21 H6          2.2935    6.3566  -27.0392 H         1 0OY         0.0580
     22 H7          1.7360    8.4460  -28.3019 H         1 0OY         0.0544
     23 H8         -0.0128    8.0890  -28.0995 H         1 0OY         0.0544
     24 H9         -0.6858   10.8363  -25.0776 H         1 0OY         0.0642
     25 H10        -0.9143   12.1003  -22.9450 H         1 0OY         0.0556
     26 H11         2.0651   12.7533  -20.9461 H         1 0OY         0.2501
     27 H12         3.3576   11.8045  -22.3710 H         1 0OY         0.0556
     28 H13         3.5191   10.6197  -24.5200 H         1 0OY         0.0642
@<TRIPOS>BOND
     1    1    2 2  
     2    2    3 am 
     3    2    9 1  
     4    3    4 1  
     5    3    8 1  
     6    4    5 1  
     7    5    6 1  
     8    6    7 1  
     9    7    8 1  
    10    9   10 ar 
    11    9   15 ar 
    12   10   11 ar 
    13   11   12 ar 
    14   12   13 1  
    15   12   14 ar 
    16   14   15 ar 
    17    4   16 1  
    18    4   17 1  
    19    5   18 1  
    20    5   19 1  
    21    7   20 1  
    22    7   21 1  
    23    8   22 1  
    24    8   23 1  
    25   10   24 1  
    26   11   25 1  
    27   13   26 1  
    28   14   27 1  
    29   15   28 1  
@<TRIPOS>SUBSTRUCTURE
     1 0OY         1

