### 
### Created by X-TOOL on Mon Sep 10 21:13:10 2018
### 

@<TRIPOS>MOLECULE
4egk_ligand
   42    44     1     0     0
SMALL
GAST_HUCK


@<TRIPOS>ATOM
      1 C1         10.8980   -4.6510   12.3330 C.2       1 RDC         0.2451
      2 C2          9.6170   -5.2340   12.7290 C.ar      1 RDC         0.0834
      3 C3          8.4740   -4.3470   12.8230 C.ar      1 RDC         0.0971
      4 C4          7.2530   -4.8470   13.2190 C.ar      1 RDC        -0.0045
      5 C5          7.0540   -6.1740   13.4710 C.ar      1 RDC         0.0931
      6 C6          8.1480   -7.0920   13.3400 C.ar      1 RDC         0.0654
      7 C7          9.4660   -6.6580   13.0120 C.ar      1 RDC        -0.0069
      8 C8         10.5340   -7.6940   12.9460 C.3       1 RDC         0.0497
      9 C9         10.7640   -8.6000   14.1420 C.2       1 RDC         0.1176
     10 C10        11.0650   -8.0570   15.4750 C.2       1 RDC        -0.0220
     11 C11        11.0670   -6.7990   15.8270 C.2       1 RDC        -0.0641
     12 C12        11.4570   -6.3830   17.1620 C.2       1 RDC        -0.0558
     13 C13        11.8860   -5.1510   17.4050 C.2       1 RDC        -0.0298
     14 C14        11.9620   -4.1170   16.3160 C.3       1 RDC         0.1255
     15 C15        13.3060   -4.1320   15.6500 C.3       1 RDC         0.1057
     16 C16        13.4970   -3.5130   14.2810 C.3       1 RDC         0.0093
     17 C17        13.1610   -4.4550   13.1340 C.3       1 RDC         0.0858
     18 C18        14.0650   -5.6600   13.1240 C.3       1 RDC        -0.0343
     19 O1         11.8430   -4.9020   13.3370 O.3       1 RDC        -0.2787
     20 O2         11.0890   -4.1030   11.3170 O.2       1 RDC        -0.3725
     21 O3          8.6860   -3.0770   12.5250 O.3       1 RDC        -0.3313
     22 O4          5.8860   -6.6580   13.8170 O.3       1 RDC        -0.3330
     23 Cl1         7.8160   -8.7690   13.6470 Cl        1 RDC        -0.0932
     24 O5         10.8400   -9.7440   13.9710 O.2       1 RDC        -0.3923
     25 O6         12.9390   -3.1480   16.5840 O.3       1 RDC        -0.3469
     26 H1          6.4205   -4.1624   13.3347 H         1 RDC         0.0425
     27 H2         11.4808   -7.1674   12.7554 H         1 RDC         0.0645
     28 H3         10.2978   -8.3447   12.0911 H         1 RDC         0.0645
     29 H4         11.3124   -8.7801   16.2508 H         1 RDC         0.0499
     30 H5         10.7688   -6.0439   15.1012 H         1 RDC         0.0706
     31 H6         11.3962   -7.0974   17.9817 H         1 RDC         0.0474
     32 H7         12.1898   -4.8828   18.4158 H         1 RDC         0.0885
     33 H8         11.0097   -3.9169   15.8031 H         1 RDC         0.0863
     34 H9         14.0268   -4.9393   15.8467 H         1 RDC         0.0661
     35 H10        14.5486   -3.2058   14.1819 H         1 RDC         0.0322
     36 H11        12.8478   -2.6282   14.2058 H         1 RDC         0.0322
     37 H12        13.2447   -3.9213   12.1758 H         1 RDC         0.0645
     38 H13        13.7927   -6.3156   12.2837 H         1 RDC         0.0258
     39 H14        13.9529   -6.2104   14.0698 H         1 RDC         0.0258
     40 H15        15.1095   -5.3339   13.0111 H         1 RDC         0.0258
     41 H16         9.5959   -2.9582   12.2791 H         1 RDC         0.2508
     42 H17         5.2538   -5.9507   13.8678 H         1 RDC         0.2502
@<TRIPOS>BOND
     1    1    2 1  
     2    1   19 1  
     3    1   20 2  
     4    2    3 ar 
     5    2    7 ar 
     6    3    4 ar 
     7    3   21 1  
     8    4    5 ar 
     9    5    6 ar 
    10    5   22 1  
    11    6    7 ar 
    12    6   23 1  
    13    7    8 1  
    14    8    9 1  
    15    9   10 1  
    16    9   24 2  
    17   10   11 2  
    18   11   12 1  
    19   12   13 2  
    20   13   14 1  
    21   14   15 1  
    22   14   25 1  
    23   15   16 1  
    24   15   25 1  
    25   16   17 1  
    26   17   18 1  
    27   17   19 1  
    28    4   26 1  
    29    8   27 1  
    30    8   28 1  
    31   10   29 1  
    32   11   30 1  
    33   12   31 1  
    34   13   32 1  
    35   14   33 1  
    36   15   34 1  
    37   16   35 1  
    38   16   36 1  
    39   17   37 1  
    40   18   38 1  
    41   18   39 1  
    42   18   40 1  
    43   21   41 1  
    44   22   42 1  
@<TRIPOS>SUBSTRUCTURE
     1 RDC         1

