### 
### Created by X-TOOL on Mon Sep 10 21:13:11 2018
### 

@<TRIPOS>MOLECULE
4eh2_ligand
   27    29     1     0     0
SMALL
GAST_HUCK


@<TRIPOS>ATOM
      1 CAG         3.0150   -1.5750   18.0250 C.ar      1 0OK        -0.0290
      2 CAC         3.3240   -2.0310   16.7430 C.ar      1 0OK        -0.0701
      3 CAB         4.6350   -1.9640   16.2660 C.ar      1 0OK        -0.0727
      4 CAD         5.6460   -1.4390   17.0700 C.ar      1 0OK        -0.0701
      5 CAH         5.3420   -0.9830   18.3530 C.ar      1 0OK        -0.0290
      6 CAM         4.0270   -1.0460   18.8320 C.ar      1 0OK         0.1110
      7 NAQ         3.7710   -0.5900   20.1470 N.am      1 0OK        -0.1371
      8 CAK         3.5660    0.7790   20.4400 C.2       1 0OK         0.1491
      9 NAL         3.3480    1.1720   21.6950 N.2       1 0OK        -0.2899
     10 CAO         3.3130    0.3020   22.7320 C.ar      1 0OK         0.0269
     11 CAI         3.0750    0.7690   24.0290 C.ar      1 0OK        -0.0493
     12 CAE         3.0290   -0.1210   25.1050 C.ar      1 0OK        -0.0640
     13 CAF         3.2250   -1.4850   24.8970 C.ar      1 0OK        -0.0631
     14 CAJ         3.4550   -1.9590   23.6040 C.ar      1 0OK        -0.0473
     15 CAP         3.5030   -1.0700   22.5180 C.ar      1 0OK         0.0697
     16 CAN         3.7360   -1.5260   21.2110 C.2       1 0OK         0.2625
     17 OAA         3.9020   -2.7270   20.9760 O.2       1 0OK        -0.3750
     18 H1          1.9969   -1.6305   18.3930 H         1 0OK         0.0551
     19 H2          2.5419   -2.4397   16.1135 H         1 0OK         0.0589
     20 H3          4.8669   -2.3208   15.2690 H         1 0OK         0.0524
     21 H4          6.6635   -1.3854   16.6999 H         1 0OK         0.0589
     22 H5          6.1267   -0.5782   18.9819 H         1 0OK         0.0551
     23 H6          3.5864    1.5145   19.6371 H         1 0OK         0.1540
     24 H7          2.9252    1.8288   24.2004 H         1 0OK         0.0577
     25 H8          2.8401    0.2509   26.1055 H         1 0OK         0.0633
     26 H9          3.1991   -2.1736   25.7338 H         1 0OK         0.0572
     27 H10         3.5975   -3.0206   23.4373 H         1 0OK         0.0649
@<TRIPOS>BOND
     1    1    2 ar 
     2    1    6 ar 
     3    2    3 ar 
     4    3    4 ar 
     5    4    5 ar 
     6    5    6 ar 
     7    6    7 1  
     8    7    8 1  
     9    7   16 am 
    10    8    9 2  
    11    9   10 1  
    12   10   11 ar 
    13   10   15 ar 
    14   11   12 ar 
    15   12   13 ar 
    16   13   14 ar 
    17   14   15 ar 
    18   15   16 1  
    19   16   17 2  
    20    1   18 1  
    21    2   19 1  
    22    3   20 1  
    23    4   21 1  
    24    5   22 1  
    25    8   23 1  
    26   11   24 1  
    27   12   25 1  
    28   13   26 1  
    29   14   27 1  
@<TRIPOS>SUBSTRUCTURE
     1 0OK         1

