### 
### Created by X-TOOL on Mon Sep 10 21:13:11 2018
### 

@<TRIPOS>MOLECULE
4eh3_ligand
   32    34     1     0     0
SMALL
GAST_HUCK


@<TRIPOS>ATOM
      1 C1         -1.4160   -0.8740  -23.9600 C.ar      1 NAR        -0.0092
      2 C2         -0.5410   -0.3050  -24.8910 C.ar      1 NAR         0.0765
      3 C3         -0.3640    1.0710  -24.9420 C.ar      1 NAR        -0.0097
      4 C4         -1.0660    1.8870  -24.0640 C.ar      1 NAR         0.0925
      5 C5         -1.9490    1.3290  -23.1390 C.ar      1 NAR         0.0787
      6 C6         -2.1220   -0.0570  -23.0780 C.ar      1 NAR         0.0990
      7 C7         -2.6500    2.1050  -22.2170 C.2       1 NAR         0.1187
      8 C8         -3.0240    1.5270  -20.8530 C.3       1 NAR         0.0562
      9 C9         -2.6680    0.0070  -20.8360 C.3       1 NAR         0.1258
     10 O1         -2.9790   -0.5870  -22.1450 O.3       1 NAR        -0.3013
     11 O2         -2.9350    3.2740  -22.4660 O.2       1 NAR        -0.3966
     12 C10        -3.3160   -0.6500  -19.6110 C.ar      1 NAR        -0.0181
     13 C11        -4.6820   -0.4950  -19.3770 C.ar      1 NAR        -0.0658
     14 C12        -5.2710   -1.0750  -18.2600 C.ar      1 NAR        -0.0397
     15 C13        -4.4850   -1.8090  -17.3790 C.ar      1 NAR         0.0805
     16 C14        -3.1150   -1.9670  -17.6030 C.ar      1 NAR        -0.0397
     17 C15        -2.5290   -1.3850  -18.7250 C.ar      1 NAR        -0.0658
     18 O3         -5.0680   -2.3730  -16.2930 O.3       1 NAR        -0.3376
     19 O4          0.1530   -1.0840  -25.7620 O.3       1 NAR        -0.3349
     20 O5         -0.8830    3.2260  -24.1220 O.3       1 NAR        -0.3326
     21 H          -1.5459   -1.9556  -23.9240 H         1 NAR         0.0390
     22 H           0.3221    1.5087  -25.6671 H         1 NAR         0.0390
     23 H          -4.0915    1.6584  -20.6763 H         1 NAR         0.0528
     24 H          -2.4718    2.0445  -20.0685 H         1 NAR         0.0528
     25 H          -1.5996   -0.1682  -20.7093 H         1 NAR         0.0822
     26 H          -5.2899    0.0832  -20.0728 H         1 NAR         0.0531
     27 H          -6.3388   -0.9556  -18.0764 H         1 NAR         0.0525
     28 H          -2.5081   -2.5423  -16.9039 H         1 NAR         0.0525
     29 H          -1.4612   -1.5035  -18.9093 H         1 NAR         0.0531
     30 H          -6.0058   -2.1678  -16.2919 H         1 NAR         0.2458
     31 H          -0.0683   -2.0059  -25.6114 H         1 NAR         0.2497
     32 H          -1.7192    3.6538  -24.3200 H         1 NAR         0.2506
@<TRIPOS>BOND
     1    1    2 ar 
     2    1    6 ar 
     3    2    3 ar 
     4    2   19 1  
     5    3    4 ar 
     6    4    5 ar 
     7    4   20 1  
     8    5    6 ar 
     9    5    7 1  
    10    6   10 1  
    11    7    8 1  
    12    7   11 2  
    13    8    9 1  
    14    9   10 1  
    15    9   12 1  
    16   12   13 ar 
    17   12   17 ar 
    18   13   14 ar 
    19   14   15 ar 
    20   15   16 ar 
    21   15   18 1  
    22   16   17 ar 
    23    1   21 1  
    24    3   22 1  
    25    8   23 1  
    26    8   24 1  
    27    9   25 1  
    28   13   26 1  
    29   14   27 1  
    30   16   28 1  
    31   17   29 1  
    32   18   30 1  
    33   19   31 1  
    34   20   32 1  
@<TRIPOS>SUBSTRUCTURE
     1 NAR         1

