### 
### Created by X-TOOL on Mon Sep 10 21:13:11 2018
### 

@<TRIPOS>MOLECULE
4eh4_ligand
   29    30     1     0     0
SMALL
GAST_HUCK


@<TRIPOS>ATOM
      1 CAJ         2.0420   -0.4240   21.9530 C.3       1 0OL         0.0334
      2 CAH         1.3370    0.7370   22.7150 C.3       1 0OL        -0.0325
      3 CAG         2.1730    2.0310   22.7960 C.3       1 0OL        -0.0494
      4 CAI         2.5070    2.5040   21.3730 C.3       1 0OL        -0.0325
      5 CAK         3.2540    1.4290   20.5250 C.3       1 0OL         0.0334
      6 NAN         2.8790   -0.0170   20.7460 N.am      1 0OL        -0.2724
      7 CAL         3.3360   -1.0150   19.8870 C.2       1 0OL         0.2074
      8 OAA         2.9850   -2.1820   20.0790 O.2       1 0OL        -0.3845
      9 CAM         4.2060   -0.7650   18.6270 C.ar      1 0OL         0.0500
     10 CAE         3.6610   -0.9630   17.3530 C.ar      1 0OL        -0.0419
     11 CAC         4.4320   -0.7120   16.2050 C.ar      1 0OL        -0.0562
     12 CAB         5.7540   -0.2840   16.3010 C.ar      1 0OL        -0.0575
     13 CAD         6.2990   -0.1050   17.5710 C.ar      1 0OL        -0.0562
     14 CAF         5.5440   -0.3560   18.7280 C.ar      1 0OL        -0.0419
     15 H1          1.2644   -1.1196   21.6046 H         1 0OL         0.0522
     16 H2          2.7042   -0.9403   22.6636 H         1 0OL         0.0522
     17 H3          1.1225    0.3988   23.7395 H         1 0OL         0.0285
     18 H4          0.3929    0.9666   22.1994 H         1 0OL         0.0285
     19 H5          3.1046    1.8338   23.3467 H         1 0OL         0.0267
     20 H6          1.5968    2.8097   23.3172 H         1 0OL         0.0267
     21 H7          3.1439    3.3981   21.4427 H         1 0OL         0.0285
     22 H8          1.5680    2.7617   20.8613 H         1 0OL         0.0285
     23 H9          4.3282    1.5274   20.7403 H         1 0OL         0.0522
     24 H10         3.0699    1.6589   19.4652 H         1 0OL         0.0522
     25 H11         2.6396   -1.3115   17.2513 H         1 0OL         0.0669
     26 H12         3.9892   -0.8543   15.2258 H         1 0OL         0.0629
     27 H13         6.3435   -0.0951   15.4111 H         1 0OL         0.0653
     28 H14         7.3241    0.2341   17.6674 H         1 0OL         0.0629
     29 H15         5.9977   -0.2330   19.7048 H         1 0OL         0.0669
@<TRIPOS>BOND
     1    1    2 1  
     2    1    6 1  
     3    2    3 1  
     4    3    4 1  
     5    4    5 1  
     6    5    6 1  
     7    6    7 am 
     8    7    8 2  
     9    7    9 1  
    10    9   10 ar 
    11    9   14 ar 
    12   10   11 ar 
    13   11   12 ar 
    14   12   13 ar 
    15   13   14 ar 
    16    1   15 1  
    17    1   16 1  
    18    2   17 1  
    19    2   18 1  
    20    3   19 1  
    21    3   20 1  
    22    4   21 1  
    23    4   22 1  
    24    5   23 1  
    25    5   24 1  
    26   10   25 1  
    27   11   26 1  
    28   12   27 1  
    29   13   28 1  
    30   14   29 1  
@<TRIPOS>SUBSTRUCTURE
     1 0OL         1

