### 
### Created by X-TOOL on Mon Sep 10 21:13:11 2018
### 

@<TRIPOS>MOLECULE
4eh5_ligand
   27    28     1     0     0
SMALL
GAST_HUCK


@<TRIPOS>ATOM
      1 CAG        -4.0120   -1.3510  -17.5390 C.ar      1 0OM        -0.0578
      2 CAC        -4.4750   -1.1260  -16.2460 C.ar      1 0OM        -0.0685
      3 CAB        -5.7260   -0.5470  -16.0400 C.ar      1 0OM        -0.0687
      4 CAD        -6.5260   -0.1930  -17.1280 C.ar      1 0OM        -0.0685
      5 CAH        -6.0650   -0.4210  -18.4230 C.ar      1 0OM        -0.0578
      6 CAO        -4.8100   -0.9990  -18.6240 C.ar      1 0OM        -0.0130
      7 CAK        -4.3460   -1.2160  -19.9150 C.3       1 0OM         0.1098
      8 OAM        -4.9490   -0.5080  -21.0230 O.3       1 0OM        -0.2632
      9 CAN        -4.1190   -0.3170  -22.0930 C.2       1 0OM         0.2734
     10 OAA        -3.8890   -1.2210  -22.8970 O.2       1 0OM        -0.3533
     11 CAP        -3.5140    1.0640  -22.2980 C.ar      1 0OM         0.0902
     12 CAI        -2.5570    1.5410  -21.4040 C.ar      1 0OM        -0.0211
     13 CAE        -2.0270    2.8040  -21.6190 C.ar      1 0OM        -0.0281
     14 CAF        -2.4860    3.5230  -22.7180 C.ar      1 0OM         0.0157
     15 NAL        -3.4070    3.0520  -23.5500 N.ar      1 0OM        -0.2900
     16 CAJ        -3.9320    1.8480  -23.3750 C.ar      1 0OM         0.0327
     17 H1         -3.0372   -1.7970  -17.7001 H         1 0OM         0.0557
     18 H2         -3.8608   -1.4019  -15.3965 H         1 0OM         0.0599
     19 H3         -6.0794   -0.3708  -15.0305 H         1 0OM         0.0559
     20 H4         -7.4992    0.2562  -16.9664 H         1 0OM         0.0599
     21 H5         -6.6800   -0.1499  -19.2735 H         1 0OM         0.0557
     22 H6         -4.4653   -2.2901  -20.1203 H         1 0OM         0.0776
     23 H7         -3.2765   -0.9589  -19.9167 H         1 0OM         0.0776
     24 H8         -2.2351    0.9395  -20.5616 H         1 0OM         0.0792
     25 H9         -1.2791    3.2179  -20.9523 H         1 0OM         0.0723
     26 H10        -2.0745    4.5087  -22.9026 H         1 0OM         0.0860
     27 H11        -4.6811    1.4742  -24.0636 H         1 0OM         0.0882
@<TRIPOS>BOND
     1    1    2 ar 
     2    1    6 ar 
     3    2    3 ar 
     4    3    4 ar 
     5    4    5 ar 
     6    5    6 ar 
     7    6    7 1  
     8    7    8 1  
     9    8    9 1  
    10    9   10 2  
    11    9   11 1  
    12   11   12 ar 
    13   11   16 ar 
    14   12   13 ar 
    15   13   14 ar 
    16   14   15 ar 
    17   15   16 ar 
    18    1   17 1  
    19    2   18 1  
    20    3   19 1  
    21    4   20 1  
    22    5   21 1  
    23    7   22 1  
    24    7   23 1  
    25   12   24 1  
    26   13   25 1  
    27   14   26 1  
    28   16   27 1  
@<TRIPOS>SUBSTRUCTURE
     1 0OM         1

