### 
### Created by X-TOOL on Mon Sep 10 21:13:11 2018
### 

@<TRIPOS>MOLECULE
4eh6_ligand
   25    26     1     0     0
SMALL
GAST_HUCK


@<TRIPOS>ATOM
      1 CAG         3.4990   -1.3670   17.5540 C.ar      1 0ON        -0.0412
      2 CAC         3.8700   -2.0740   16.4210 C.ar      1 0ON        -0.0754
      3 CAB         5.2030   -2.0850   16.0340 C.ar      1 0ON        -0.0771
      4 CAD         6.1590   -1.4030   16.7760 C.ar      1 0ON        -0.0754
      5 CAH         5.8040   -0.7050   17.9200 C.ar      1 0ON        -0.0412
      6 CAN         4.4660   -0.6880   18.3050 C.ar      1 0ON         0.0662
      7 NAL         4.1370    0.0020   19.3980 N.am      1 0ON        -0.2320
      8 CAM         3.5890   -0.5550   20.4850 C.2       1 0ON         0.2404
      9 OAA         3.2940   -1.7520   20.5820 O.2       1 0ON        -0.3698
     10 CAO         3.3550    0.4420   21.6510 C.ar      1 0ON         0.0840
     11 CAI         3.5350    0.0260   22.9760 C.ar      1 0ON        -0.0219
     12 CAE         3.3260    0.9530   23.9960 C.ar      1 0ON        -0.0284
     13 CAF         2.9500    2.2590   23.6460 C.ar      1 0ON         0.0155
     14 NAK         2.7970    2.6310   22.3740 N.ar      1 0ON        -0.2904
     15 CAJ         2.9910    1.7720   21.3820 C.ar      1 0ON         0.0318
     16 H           2.4534   -1.3396   17.8606 H         1 0ON         0.0503
     17 H           3.1232   -2.6154   15.8403 H         1 0ON         0.0577
     18 H           5.5020   -2.6332   15.1406 H         1 0ON         0.0488
     19 H           7.2006   -1.4168   16.4550 H         1 0ON         0.0577
     20 H           6.5577   -0.1797   18.5067 H         1 0ON         0.0503
     21 H           4.3121    1.0068   19.4061 H         1 0ON         0.2255
     22 H           3.8313   -0.9978   23.2043 H         1 0ON         0.0789
     23 H           3.4517    0.6700   25.0411 H         1 0ON         0.0722
     24 H           2.7781    2.9902   24.4359 H         1 0ON         0.0858
     25 H           2.8670    2.1006   20.3501 H         1 0ON         0.0878
@<TRIPOS>BOND
     1    1    2 ar 
     2    1    6 ar 
     3    2    3 ar 
     4    3    4 ar 
     5    4    5 ar 
     6    5    6 ar 
     7    6    7 1  
     8    7    8 am 
     9    8    9 2  
    10    8   10 1  
    11   10   11 ar 
    12   10   15 ar 
    13   11   12 ar 
    14   12   13 ar 
    15   13   14 ar 
    16   14   15 ar 
    17    1   16 1  
    18    2   17 1  
    19    3   18 1  
    20    4   19 1  
    21    5   20 1  
    22    7   21 1  
    23   11   22 1  
    24   12   23 1  
    25   13   24 1  
    26   15   25 1  
@<TRIPOS>SUBSTRUCTURE
     1 0ON         1

