### 
### Created by X-TOOL on Mon Sep 10 21:13:11 2018
### 

@<TRIPOS>MOLECULE
4eh7_ligand
   27    28     1     0     0
SMALL
GAST_HUCK


@<TRIPOS>ATOM
      1 CAG         5.3050   -0.7910   18.9530 C.ar      1 0OO        -0.0285
      2 CAC         5.8460   -0.8530   17.6630 C.ar      1 0OO        -0.0697
      3 CAB         5.1040   -1.4610   16.6370 C.ar      1 0OO        -0.0723
      4 CAD         3.8380   -2.0030   16.8950 C.ar      1 0OO        -0.0697
      5 CAH         3.3050   -1.9310   18.1850 C.ar      1 0OO        -0.0285
      6 CAN         4.0260   -1.3130   19.2220 C.ar      1 0OO         0.1159
      7 OAL         3.4920   -1.2610   20.5020 O.3       1 0OO        -0.2597
      8 CAO         2.8870   -0.1280   21.0210 C.ar      1 0OO         0.1095
      9 CAJ         2.2690   -0.2140   22.2770 C.ar      1 0OO        -0.0254
     10 CAI         2.8680    1.0970   20.3490 C.ar      1 0OO        -0.0354
     11 CAE         2.2440    2.2090   20.9190 C.ar      1 0OO        -0.0761
     12 CAF         1.6310    2.1200   22.1730 C.ar      1 0OO        -0.0686
     13 CAM         1.6410    0.9010   22.8560 C.ar      1 0OO        -0.0257
     14 CAK         0.9700    0.7770   24.2360 C.3       1 0OO         0.0759
     15 OAA         0.4020    2.0170   24.6780 O.3       1 0OO        -0.3827
     16 H           5.8807   -0.3335   19.7576 H         1 0OO         0.0552
     17 H           6.8312   -0.4344   17.4574 H         1 0OO         0.0590
     18 H           5.5174   -1.5117   15.6297 H         1 0OO         0.0528
     19 H           3.2718   -2.4783   16.0940 H         1 0OO         0.0590
     20 H           2.3227   -2.3573   18.3888 H         1 0OO         0.0552
     21 H           2.2762   -1.1629   22.8133 H         1 0OO         0.0489
     22 H           3.3439    1.1854   19.3724 H         1 0OO         0.0496
     23 H           2.2347    3.1567   20.3806 H         1 0OO         0.0573
     24 H           1.1500    2.9934   22.6134 H         1 0OO         0.0470
     25 H           1.7312    0.4777   24.9565 H         1 0OO         0.0720
     26 H           0.1656    0.0458   24.1565 H         1 0OO         0.0720
     27 H           1.0935    2.6798   24.7414 H         1 0OO         0.2126
@<TRIPOS>BOND
     1    1    2 ar 
     2    1    6 ar 
     3    2    3 ar 
     4    3    4 ar 
     5    4    5 ar 
     6    5    6 ar 
     7    6    7 1  
     8    7    8 1  
     9    8    9 ar 
    10    8   10 ar 
    11    9   13 ar 
    12   10   11 ar 
    13   11   12 ar 
    14   12   13 ar 
    15   13   14 1  
    16   14   15 1  
    17    1   16 1  
    18    2   17 1  
    19    3   18 1  
    20    4   19 1  
    21    5   20 1  
    22    9   21 1  
    23   10   22 1  
    24   11   23 1  
    25   12   24 1  
    26   14   25 1  
    27   14   26 1  
    28   15   27 1  
@<TRIPOS>SUBSTRUCTURE
     1 0OO         1

