### 
### Created by X-TOOL on Mon Sep 10 21:13:11 2018
### 

@<TRIPOS>MOLECULE
4eh8_ligand
   30    31     1     0     0
SMALL
GAST_HUCK


@<TRIPOS>ATOM
      1 CAF        -0.3890   -4.9550  -12.9420 C.ar      1 0OP        -0.0578
      2 CAC        -1.2310   -5.2170  -14.0100 C.ar      1 0OP        -0.0685
      3 CAB        -1.5250   -4.2320  -14.9540 C.ar      1 0OP        -0.0687
      4 CAD        -0.9690   -2.9670  -14.8490 C.ar      1 0OP        -0.0685
      5 CAG        -0.1150   -2.6930  -13.7970 C.ar      1 0OP        -0.0578
      6 CAN         0.1670   -3.6810  -12.8540 C.ar      1 0OP        -0.0129
      7 CAL         1.0120   -3.3950  -11.8050 C.3       1 0OP         0.1042
      8 OAM         1.2740   -1.9980  -11.7820 O.3       1 0OP        -0.3073
      9 CAP         2.6080   -1.8580  -11.6800 C.ar      1 0OP         0.0873
     10 CAJ         3.3320   -2.9530  -11.2350 C.ar      1 0OP        -0.0299
     11 CAI         3.2260   -0.6620  -12.0170 C.ar      1 0OP        -0.0399
     12 CAE         4.5940   -0.5730  -11.8870 C.ar      1 0OP        -0.0771
     13 CAH         5.3260   -1.6590  -11.4280 C.ar      1 0OP        -0.0692
     14 CAO         4.6920   -2.8520  -11.1030 C.ar      1 0OP        -0.0267
     15 CAK         5.3680   -3.9630  -10.6800 C.3       1 0OP         0.0757
     16 OAA         4.9960   -5.0640  -11.5330 O.3       1 0OP        -0.3827
     17 H          -0.1691   -5.7191  -12.1964 H         1 0OP         0.0557
     18 H          -1.6712   -6.2086  -14.1150 H         1 0OP         0.0599
     19 H          -2.1977   -4.4596  -15.7809 H         1 0OP         0.0559
     20 H          -1.2019   -2.1984  -15.5860 H         1 0OP         0.0599
     21 H           0.3375   -1.7057  -13.7047 H         1 0OP         0.0557
     22 H           1.9475   -3.9402  -11.9303 H         1 0OP         0.0779
     23 H           0.5445   -3.6946  -10.8670 H         1 0OP         0.0779
     24 H           2.8239   -3.8862  -10.9922 H         1 0OP         0.0479
     25 H           2.6429    0.1861  -12.3758 H         1 0OP         0.0486
     26 H           5.1043    0.3548  -12.1458 H         1 0OP         0.0572
     27 H           6.4076   -1.5754  -11.3215 H         1 0OP         0.0465
     28 H           5.1129   -4.1868   -9.6442 H         1 0OP         0.0720
     29 H           6.4432   -3.7922  -10.7337 H         1 0OP         0.0720
     30 H           5.2315   -4.8580  -12.4405 H         1 0OP         0.2126
@<TRIPOS>BOND
     1    1    2 ar 
     2    1    6 ar 
     3    2    3 ar 
     4    3    4 ar 
     5    4    5 ar 
     6    5    6 ar 
     7    6    7 1  
     8    7    8 1  
     9    8    9 1  
    10    9   10 ar 
    11    9   11 ar 
    12   10   14 ar 
    13   11   12 ar 
    14   12   13 ar 
    15   13   14 ar 
    16   14   15 1  
    17   15   16 1  
    18    1   17 1  
    19    2   18 1  
    20    3   19 1  
    21    4   20 1  
    22    5   21 1  
    23    7   22 1  
    24    7   23 1  
    25   10   24 1  
    26   11   25 1  
    27   12   26 1  
    28   13   27 1  
    29   15   28 1  
    30   15   29 1  
    31   16   30 1  
@<TRIPOS>SUBSTRUCTURE
     1 0OP         1

