### 
### Created by X-TOOL on Mon Sep 10 21:13:11 2018
### 

@<TRIPOS>MOLECULE
4eh9_ligand
   43    46     1     0     0
SMALL
GAST_HUCK


@<TRIPOS>ATOM
      1 OAB        -1.0550  -11.7710   11.6880 O.2       1 0OQ        -0.4271
      2 CAU        -1.0150  -10.8700   12.5330 C.2       1 0OQ         0.1884
      3 CAL         0.1300  -10.0640   12.5890 C.2       1 0OQ        -0.0258
      4 CAF         0.2080   -9.0460   13.5370 C.2       1 0OQ        -0.0887
      5 CAG        -0.8650   -8.8660   14.4110 C.2       1 0OQ        -0.0427
      6 CAT        -2.0090   -9.6800   14.3440 C.2       1 0OQ         0.0912
      7 NAY        -2.0590  -10.6750   13.3890 N.am      1 0OQ        -0.2021
      8 CAP        -3.2320  -11.6110   13.2460 C.3       1 0OQ         0.0750
      9 CAV        -4.4430  -11.2030   14.1000 C.3       1 0OQ         0.0120
     10 CAN        -5.1980  -10.1050   13.3220 C.3       1 0OQ         0.0398
     11 CAM        -3.9440  -10.6830   15.4740 C.3       1 0OQ        -0.0232
     12 CAW        -3.0780   -9.4080   15.2660 C.3       1 0OQ         0.0551
     13 CAO        -4.0250   -8.2990   14.7000 C.3       1 0OQ         0.0540
     14 NAX        -4.4740   -8.7830   13.3580 N.am      1 0OQ        -0.2652
     15 CAQ        -4.1120   -8.1800   12.1960 C.2       1 0OQ         0.2270
     16 OAA        -4.4440   -8.6590   11.1110 O.2       1 0OQ        -0.3722
     17 CAR        -3.5000   -6.9090   12.1970 C.ar      1 0OQ         0.0773
     18 CAH        -4.3520   -5.7920   12.1940 C.ar      1 0OQ        -0.0140
     19 CAJ        -3.8640   -4.4820   12.1890 C.ar      1 0OQ        -0.0277
     20 CAS        -2.4830   -4.2570   12.1730 C.ar      1 0OQ         0.0507
     21 CAZ        -2.0040   -2.9220   12.1490 C.3       1 0OQ         0.3785
     22 FAD        -2.6490   -2.2260   11.0760 F         1 0OQ        -0.2193
     23 FAE        -2.2710   -2.2520   13.3410 F         1 0OQ        -0.2193
     24 FAC        -0.7320   -2.8730   11.9580 F         1 0OQ        -0.2193
     25 CAK        -1.6220   -5.3760   12.1520 C.ar      1 0OQ        -0.0277
     26 CAI        -2.1180   -6.6960   12.1680 C.ar      1 0OQ        -0.0140
     27 H           0.9540  -10.2324   11.8956 H         1 0OQ         0.0305
     28 H           1.0874   -8.4045   13.5947 H         1 0OQ         0.0620
     29 H          -0.8149   -8.0773   15.1617 H         1 0OQ         0.0265
     30 H          -2.9096  -12.5968   13.5812 H         1 0OQ         0.0642
     31 H          -3.5437  -11.5914   12.2017 H         1 0OQ         0.0642
     32 H          -5.1106  -12.0440   14.2876 H         1 0OQ         0.0351
     33 H          -6.1747   -9.9700   13.7868 H         1 0OQ         0.0526
     34 H          -5.2781  -10.4201   12.2816 H         1 0OQ         0.0526
     35 H          -3.3434  -11.4540   15.9567 H         1 0OQ         0.0305
     36 H          -4.8009  -10.4403   16.1024 H         1 0OQ         0.0305
     37 H          -2.6264   -9.0843   16.2038 H         1 0OQ         0.0590
     38 H          -3.5086   -7.3423   14.6213 H         1 0OQ         0.0558
     39 H          -4.8741   -8.1302   15.3623 H         1 0OQ         0.0558
     40 H          -5.4302   -5.9522   12.1956 H         1 0OQ         0.0741
     41 H          -4.5560   -3.6398   12.1975 H         1 0OQ         0.0857
     42 H          -0.5443   -5.2151   12.1226 H         1 0OQ         0.0857
     43 H          -1.4309   -7.5421   12.1579 H         1 0OQ         0.0741
@<TRIPOS>BOND
     1    1    2 2  
     2    2    3 1  
     3    2    7 am 
     4    3    4 2  
     5    4    5 1  
     6    5    6 2  
     7    6    7 1  
     8    6   12 1  
     9    7    8 1  
    10    8    9 1  
    11    9   10 1  
    12    9   11 1  
    13   10   14 1  
    14   11   12 1  
    15   12   13 1  
    16   13   14 1  
    17   14   15 am 
    18   15   16 2  
    19   15   17 1  
    20   17   18 ar 
    21   17   26 ar 
    22   18   19 ar 
    23   19   20 ar 
    24   20   21 1  
    25   20   25 ar 
    26   21   22 1  
    27   21   23 1  
    28   21   24 1  
    29   25   26 ar 
    30    3   27 1  
    31    4   28 1  
    32    5   29 1  
    33    8   30 1  
    34    8   31 1  
    35    9   32 1  
    36   10   33 1  
    37   10   34 1  
    38   11   35 1  
    39   11   36 1  
    40   12   37 1  
    41   13   38 1  
    42   13   39 1  
    43   18   40 1  
    44   19   41 1  
    45   25   42 1  
    46   26   43 1  
@<TRIPOS>SUBSTRUCTURE
     1 0OQ         1

