### 
### Created by X-TOOL on Mon Sep 10 21:13:15 2018
### 

@<TRIPOS>MOLECULE
4ehe_ligand
   43    45     1     0     0
SMALL
GAST_HUCK


@<TRIPOS>ATOM
      1 C1         17.8020  -26.6090   -1.4320 C.ar      1 RI8         0.0545
      2 N2         18.6710  -25.6710   -0.9970 N.ar      1 RI8        -0.2657
      3 C3         18.1800  -24.4270   -0.8510 C.ar      1 RI8         0.1390
      4 C4         16.8080  -24.2090   -1.1540 C.ar      1 RI8         0.1102
      5 C5         15.9830  -25.2640   -1.5990 C.ar      1 RI8         0.0609
      6 N6         16.4920  -26.5010   -1.7440 N.ar      1 RI8        -0.2985
      7 S7         16.0340  -22.6510   -1.0060 S.3       1 RI8        -0.0090
      8 C8         14.5190  -23.3180   -1.5390 C.2       1 RI8         0.0358
      9 C9         14.6540  -24.7070   -1.8170 C.2       1 RI8         0.0796
     10 N10        19.0080  -23.4420   -0.4180 N.pl3     1 RI8        -0.3158
     11 C11        13.6080  -25.5500   -2.2640 C.2       1 RI8         0.2182
     12 O12        12.4890  -25.1260   -2.5630 O.2       1 RI8        -0.3848
     13 N13        13.9940  -26.8260   -2.2700 N.am      1 RI8        -0.2392
     14 C14        13.2570  -27.9620   -2.6220 C.ar      1 RI8         0.1174
     15 C15        13.0090  -28.2220   -3.9730 C.ar      1 RI8         0.1630
     16 C16        12.2770  -29.3710   -4.3430 C.ar      1 RI8         0.0786
     17 C17        11.7980  -30.2480   -3.3390 C.ar      1 RI8        -0.0631
     18 C18        12.0370  -29.9910   -1.9740 C.ar      1 RI8        -0.0601
     19 C19        12.7720  -28.8380   -1.6350 C.ar      1 RI8         0.1320
     20 N20        12.0410  -29.6350   -5.6270 N.am      1 RI8        -0.1970
     21 F21        13.5020  -27.3460   -4.8690 F         1 RI8        -0.2087
     22 F22        13.0340  -28.5410   -0.3560 F         1 RI8        -0.2084
     23 S23        11.1800  -31.0080   -6.1930 S.o2      1 RI8         0.0585
     24 O24        10.0110  -31.0920   -5.3100 O.2       1 RI8        -0.1502
     25 O25        11.0280  -30.9540   -7.6550 O.2       1 RI8        -0.1502
     26 C26        12.3430  -32.3900   -5.8360 C.3       1 RI8         0.0894
     27 C27        13.7740  -32.0750   -6.2820 C.3       1 RI8        -0.0342
     28 C28        14.6420  -33.3300   -6.3780 C.3       1 RI8        -0.0637
     29 H1         18.2204  -27.6021   -1.5489 H         1 RI8         0.1009
     30 H2         13.5952  -22.7513   -1.6453 H         1 RI8         0.1028
     31 H3         18.6503  -22.4833   -0.3001 H         1 RI8         0.1802
     32 H4         19.9938  -23.6534   -0.2074 H         1 RI8         0.1802
     33 H5         14.9375  -26.9939   -1.9844 H         1 RI8         0.2219
     34 H6         11.2385  -31.1312   -3.6252 H         1 RI8         0.0343
     35 H7         11.6659  -30.6612   -1.2071 H         1 RI8         0.0493
     36 H8         12.3889  -28.9898   -6.3072 H         1 RI8         0.2125
     37 H9         11.9971  -33.2895   -6.3663 H         1 RI8         0.0523
     38 H10        12.3440  -32.5807   -4.7527 H         1 RI8         0.0523
     39 H11        14.2277  -31.3861   -5.5543 H         1 RI8         0.0279
     40 H12        13.7385  -31.5932   -7.2702 H         1 RI8         0.0279
     41 H13        15.6558  -33.0508   -6.7007 H         1 RI8         0.0230
     42 H14        14.2028  -34.0246   -7.1091 H         1 RI8         0.0230
     43 H15        14.6920  -33.8175   -5.3932 H         1 RI8         0.0230
@<TRIPOS>BOND
     1    1    2 ar 
     2    1    6 ar 
     3    2    3 ar 
     4    3    4 ar 
     5    3   10 1  
     6    4    5 ar 
     7    4    7 1  
     8    5    6 ar 
     9    5    9 1  
    10    7    8 1  
    11    8    9 2  
    12    9   11 1  
    13   11   12 2  
    14   11   13 am 
    15   13   14 1  
    16   14   15 ar 
    17   14   19 ar 
    18   15   16 ar 
    19   15   21 1  
    20   16   17 ar 
    21   16   20 1  
    22   17   18 ar 
    23   18   19 ar 
    24   19   22 1  
    25   20   23 am 
    26   23   24 2  
    27   23   25 2  
    28   23   26 1  
    29   26   27 1  
    30   27   28 1  
    31    1   29 1  
    32    8   30 1  
    33   10   31 1  
    34   10   32 1  
    35   13   33 1  
    36   17   34 1  
    37   18   35 1  
    38   20   36 1  
    39   26   37 1  
    40   26   38 1  
    41   27   39 1  
    42   27   40 1  
    43   28   41 1  
    44   28   42 1  
    45   28   43 1  
@<TRIPOS>SUBSTRUCTURE
     1 RI8         1

