### 
### Created by X-TOOL on Mon Sep 10 21:13:15 2018
### 

@<TRIPOS>MOLECULE
4ehg_ligand
   49    50     1     0     0
SMALL
GAST_HUCK


@<TRIPOS>ATOM
      1 O1         -5.7180   17.8930    6.7030 O.2       1 RI9        -0.3780
      2 C2         -6.7190   18.4310    7.1620 C.2       1 RI9         0.3222
      3 N3         -7.8300   17.7620    7.4730 N.am      1 RI9        -0.1948
      4 C4         -9.0700   18.2120    7.9930 C.ar      1 RI9         0.1410
      5 N5         -9.4050   19.5060    8.1520 N.ar      1 RI9        -0.2692
      6 C6        -10.6280   19.7580    8.6530 C.ar      1 RI9         0.0538
      7 N7        -11.5590   18.8540    9.0110 N.ar      1 RI9        -0.2731
      8 C8        -11.2520   17.5510    8.8540 C.ar      1 RI9         0.1093
      9 C9         -9.9890   17.1950    8.3350 C.ar      1 RI9         0.0232
     10 N10       -12.1660   16.6080    9.2010 N.pl3     1 RI9        -0.3035
     11 N11        -6.7970   19.7380    7.4080 N.am      1 RI9        -0.2156
     12 C12        -5.8080   20.7320    7.1740 C.ar      1 RI9         0.1189
     13 C13        -5.3720   20.9370    5.8500 C.ar      1 RI9         0.1627
     14 C14        -4.3840   21.9020    5.5610 C.ar      1 RI9         0.0785
     15 C15        -3.8850   22.7170    6.5980 C.ar      1 RI9        -0.0632
     16 C16        -4.3060   22.5170    7.9280 C.ar      1 RI9        -0.0603
     17 C17        -5.2690   21.5290    8.2060 C.ar      1 RI9         0.1318
     18 F18        -5.6710   21.3550    9.4760 F         1 RI9        -0.2085
     19 F19        -5.8950   20.1660    4.8670 F         1 RI9        -0.2088
     20 N20        -4.0400   22.1240    4.2890 N.am      1 RI9        -0.1970
     21 S21        -3.1480   23.4450    3.6280 S.o2      1 RI9         0.0585
     22 C22        -4.1600   24.9480    3.9550 C.3       1 RI9         0.0894
     23 O23        -1.9000   23.4890    4.3980 O.2       1 RI9        -0.1502
     24 O24        -3.1230   23.2620    2.1750 O.2       1 RI9        -0.1502
     25 C25        -5.1560   25.2070    2.8210 C.3       1 RI9        -0.0342
     26 C26        -6.6180   25.1600    3.3400 C.3       1 RI9        -0.0637
     27 C27       -12.5040   15.3060    8.3790 C.3       1 RI9         0.0515
     28 C28       -12.0110   14.1060    9.5950 C.3       1 RI9         0.0644
     29 O29       -13.3560   13.4130    9.7560 O.3       1 RI9        -0.3930
     30 H1         -7.7801   16.7763    7.3123 H         1 RI9         0.2354
     31 H2        -10.8921   20.8014    8.7823 H         1 RI9         0.1036
     32 H3         -9.7266   16.1519    8.2001 H         1 RI9         0.0532
     33 H4        -12.6840   16.7568   10.0788 H         1 RI9         0.1831
     34 H5         -7.6564   20.0591    7.8059 H         1 RI9         0.2237
     35 H6         -3.1731   23.5023    6.3707 H         1 RI9         0.0342
     36 H7         -3.8920   23.1184    8.7293 H         1 RI9         0.0492
     37 H8         -4.3396   21.4320    3.6322 H         1 RI9         0.2125
     38 H9         -3.4914   25.8163    4.0496 H         1 RI9         0.0523
     39 H10        -4.7152   24.8086    4.8943 H         1 RI9         0.0523
     40 H11        -5.0253   24.4381    2.0453 H         1 RI9         0.0279
     41 H12        -4.9595   26.1998    2.3900 H         1 RI9         0.0279
     42 H13        -7.3095   25.3490    2.5057 H         1 RI9         0.0230
     43 H14        -6.7575   25.9297    4.1134 H         1 RI9         0.0230
     44 H15        -6.8232   24.1680    3.7687 H         1 RI9         0.0230
     45 H16       -11.9106   15.2309    7.4559 H         1 RI9         0.0544
     46 H17       -13.5740   15.2346    8.1339 H         1 RI9         0.0544
     47 H18       -11.2328   13.4256    9.2188 H         1 RI9         0.0577
     48 H19       -11.6680   14.5746   10.5292 H         1 RI9         0.0577
     49 H20       -13.6261   13.0503    8.9205 H         1 RI9         0.2095
@<TRIPOS>BOND
     1    1    2 2  
     2    2    3 am 
     3    2   11 am 
     4    3    4 1  
     5    4    5 ar 
     6    4    9 ar 
     7    5    6 ar 
     8    6    7 ar 
     9    7    8 ar 
    10    8    9 ar 
    11    8   10 1  
    12   10   27 1  
    13   11   12 1  
    14   12   13 ar 
    15   12   17 ar 
    16   13   14 ar 
    17   13   19 1  
    18   14   15 ar 
    19   14   20 1  
    20   15   16 ar 
    21   16   17 ar 
    22   17   18 1  
    23   20   21 am 
    24   21   22 1  
    25   21   23 2  
    26   21   24 2  
    27   22   25 1  
    28   25   26 1  
    29   28   29 1  
    30   28   27 1  
    31    3   30 1  
    32    6   31 1  
    33    9   32 1  
    34   10   33 1  
    35   11   34 1  
    36   15   35 1  
    37   16   36 1  
    38   20   37 1  
    39   22   38 1  
    40   22   39 1  
    41   25   40 1  
    42   25   41 1  
    43   26   42 1  
    44   26   43 1  
    45   26   44 1  
    46   27   45 1  
    47   27   46 1  
    48   28   47 1  
    49   28   48 1  
    50   29   49 1  
@<TRIPOS>SUBSTRUCTURE
     1 RI9         1

