### 
### Created by X-TOOL on Mon Sep 10 21:13:10 2018
### 

@<TRIPOS>MOLECULE
4ehm_ligand
   40    42     1     0     0
SMALL
GAST_HUCK


@<TRIPOS>ATOM
      1 CAN         5.6010   18.7300   26.0670 C.3       1 PJA        -0.0368
      2 CBB         5.7420   20.2910   25.8900 C.ar      1 PJA         0.0151
      3 CBF         5.6300   20.8440   24.5990 C.ar      1 PJA         0.1219
      4 OAS         5.4200   19.8860   23.6480 O.3       1 PJA        -0.2690
      5 CBE         6.2680   19.9950   22.5550 C.ar      1 PJA         0.1467
      6 CBA         7.1290   18.9100   22.3100 C.ar      1 PJA         0.0214
      7 CAU         7.2080   17.6530   23.1810 C.2       1 PJA         0.0499
      8 OAH         6.5510   16.6570   22.7930 O.co2     1 PJA        -0.5661
      9 OAE         7.9410   17.6860   24.2060 O.co2     1 PJA        -0.5661
     10 CAL         7.9810   18.9310   21.2060 C.ar      1 PJA        -0.0428
     11 CAZ         7.9970   20.0090   20.3160 C.ar      1 PJA         0.0782
     12 OAQ         8.8490   20.0200   19.2470 O.3       1 PJA        -0.3334
     13 CAA         9.3310   18.7340   18.8570 C.3       1 PJA         0.0554
     14 CAY         7.1500   21.0960   20.5540 C.ar      1 PJA         0.0129
     15 CAD         7.1440   22.3110   19.6050 C.3       1 PJA        -0.0354
     16 CBD         6.3050   21.0750   21.6700 C.ar      1 PJA         0.1515
     17 OAR         5.5320   22.1940   21.7570 O.3       1 PJA        -0.2280
     18 CBC         5.6130   22.8670   22.9470 C.2       1 PJA         0.2631
     19 OAG         5.4880   24.0840   22.8500 O.2       1 PJA        -0.3646
     20 CBG         5.7560   22.2090   24.3480 C.ar      1 PJA         0.0819
     21 CAW         5.9990   23.0850   25.4130 C.ar      1 PJA        -0.0459
     22 CAC         6.1600   24.5980   25.2810 C.3       1 PJA        -0.0348
     23 CAK         6.1240   22.5750   26.6800 C.ar      1 PJA        -0.0421
     24 CAX         6.0020   21.2180   26.9200 C.ar      1 PJA         0.0809
     25 OAJ         6.1350   20.8510   28.2180 O.3       1 PJA        -0.3376
     26 H           4.6185   18.4132   25.7170 H         1 PJA         0.0333
     27 H           6.3745   18.2284   25.4855 H         1 PJA         0.0333
     28 H           5.7129   18.4735   27.1205 H         1 PJA         0.0333
     29 H           8.6496   18.0877   21.0332 H         1 PJA         0.0444
     30 H           9.8725   18.2828   19.6885 H         1 PJA         0.0570
     31 H           8.4883   18.0992   18.5834 H         1 PJA         0.0570
     32 H           9.9990   18.8416   18.0024 H         1 PJA         0.0570
     33 H           6.1467   22.4362   19.1834 H         1 PJA         0.0350
     34 H           7.4196   23.2066   20.1618 H         1 PJA         0.0350
     35 H           7.8615   22.1461   18.8012 H         1 PJA         0.0350
     36 H           7.0040   24.8166   24.6268 H         1 PJA         0.0390
     37 H           5.2504   25.0233   24.8570 H         1 PJA         0.0390
     38 H           6.3401   25.0302   26.2653 H         1 PJA         0.0390
     39 H           6.3229   23.2504   27.5121 H         1 PJA         0.0393
     40 H           6.0367   19.8989   28.2919 H         1 PJA         0.2472
@<TRIPOS>BOND
     1    1    2 1  
     2    2    3 ar 
     3    2   24 ar 
     4    3    4 1  
     5    3   20 ar 
     6    4    5 1  
     7    5    6 ar 
     8    5   16 ar 
     9    6    7 1  
    10    6   10 ar 
    11    7    8 ar 
    12    7    9 ar 
    13   10   11 ar 
    14   11   12 1  
    15   11   14 ar 
    16   12   13 1  
    17   14   15 1  
    18   14   16 ar 
    19   16   17 1  
    20   17   18 1  
    21   18   19 2  
    22   18   20 1  
    23   20   21 ar 
    24   21   22 1  
    25   21   23 ar 
    26   23   24 ar 
    27   24   25 1  
    28    1   26 1  
    29    1   27 1  
    30    1   28 1  
    31   10   29 1  
    32   13   30 1  
    33   13   31 1  
    34   13   32 1  
    35   15   33 1  
    36   15   34 1  
    37   15   35 1  
    38   22   36 1  
    39   22   37 1  
    40   22   38 1  
    41   23   39 1  
    42   25   40 1  
@<TRIPOS>SUBSTRUCTURE
     1 PJA         1

