### 
### Created by X-TOOL on Mon Sep 10 21:13:11 2018
### 

@<TRIPOS>MOLECULE
4ehv_ligand
   40    43     1     0     0
SMALL
GAST_HUCK


@<TRIPOS>ATOM
      1 OAB        -0.7810  -11.3950   11.9250 O.2       1 0SJ        -0.4271
      2 CAU        -0.7130  -10.4360   12.7100 C.2       1 0SJ         0.1884
      3 CAL         0.4520   -9.6660   12.7670 C.2       1 0SJ        -0.0258
      4 CAF         0.5230   -8.5960   13.6560 C.2       1 0SJ        -0.0887
      5 CAG        -0.5740   -8.3140   14.4670 C.2       1 0SJ        -0.0427
      6 CAT        -1.7290   -9.1040   14.3960 C.2       1 0SJ         0.0912
      7 NAY        -1.7690  -10.1460   13.5070 N.am      1 0SJ        -0.2021
      8 CAP        -2.9550  -11.0480   13.3660 C.3       1 0SJ         0.0750
      9 CAV        -4.1840  -10.5230   14.0790 C.3       1 0SJ         0.0119
     10 CAN        -4.8260   -9.4360   13.2090 C.3       1 0SJ         0.0394
     11 CAM        -3.7580   -9.9720   15.4550 C.3       1 0SJ        -0.0232
     12 CAW        -2.8240   -8.7600   15.2500 C.3       1 0SJ         0.0551
     13 CAO        -3.6680   -7.6360   14.6030 C.3       1 0SJ         0.0536
     14 NAX        -4.0870   -8.1280   13.2610 N.am      1 0SJ        -0.2688
     15 CAQ        -3.7520   -7.5100   12.1020 C.2       1 0SJ         0.2076
     16 OAA        -4.0760   -7.9970   11.0140 O.2       1 0SJ        -0.3845
     17 CAR        -3.1100   -6.2630   12.0540 C.ar      1 0SJ         0.0500
     18 CAH        -3.8990   -5.1080   12.0220 C.ar      1 0SJ        -0.0416
     19 CAJ        -3.3230   -3.8390   11.9390 C.ar      1 0SJ        -0.0423
     20 CAS        -1.9340   -3.7230   11.8670 C.ar      1 0SJ         0.0450
     21 CL1        -1.1950   -2.1570   11.7510 Cl        1 0SJ        -0.0666
     22 CAK        -1.1380   -4.8700   11.8840 C.ar      1 0SJ        -0.0423
     23 CAI        -1.7200   -6.1400   11.9640 C.ar      1 0SJ        -0.0416
     24 H1          1.2973   -9.9006   12.1217 H         1 0SJ         0.0305
     25 H2          1.4243   -7.9878   13.7163 H         1 0SJ         0.0620
     26 H3         -0.5336   -7.4749   15.1600 H         1 0SJ         0.0265
     27 H4         -2.6993  -12.0320   13.7860 H         1 0SJ         0.0642
     28 H5         -3.1890  -11.1553   12.2966 H         1 0SJ         0.0642
     29 H6         -4.9056  -11.3401   14.2259 H         1 0SJ         0.0351
     30 H7         -5.8559   -9.2706   13.5582 H         1 0SJ         0.0526
     31 H8         -4.8442   -9.7869   12.1666 H         1 0SJ         0.0526
     32 H9         -3.2269  -10.7548   16.0163 H         1 0SJ         0.0305
     33 H10        -4.6496   -9.6582   16.0177 H         1 0SJ         0.0305
     34 H11        -2.4333   -8.4229   16.2214 H         1 0SJ         0.0590
     35 H12        -3.0649   -6.7219   14.4994 H         1 0SJ         0.0558
     36 H13        -4.5527   -7.4236   15.2212 H         1 0SJ         0.0558
     37 H14        -4.9783   -5.2003   12.0624 H         1 0SJ         0.0669
     38 H15        -3.9479   -2.9533   11.9306 H         1 0SJ         0.0634
     39 H16        -0.0592   -4.7758   11.8348 H         1 0SJ         0.0634
     40 H17        -1.0952   -7.0258   11.9562 H         1 0SJ         0.0669
@<TRIPOS>BOND
     1    1    2 2  
     2    2    3 1  
     3    2    7 am 
     4    3    4 2  
     5    4    5 1  
     6    5    6 2  
     7    6    7 1  
     8    6   12 1  
     9    7    8 1  
    10    8    9 1  
    11    9   10 1  
    12    9   11 1  
    13   10   14 1  
    14   11   12 1  
    15   12   13 1  
    16   13   14 1  
    17   14   15 am 
    18   15   16 2  
    19   15   17 1  
    20   17   18 ar 
    21   17   23 ar 
    22   18   19 ar 
    23   19   20 ar 
    24   20   21 1  
    25   20   22 ar 
    26   22   23 ar 
    27    3   24 1  
    28    4   25 1  
    29    5   26 1  
    30    8   27 1  
    31    8   28 1  
    32    9   29 1  
    33   10   30 1  
    34   10   31 1  
    35   11   32 1  
    36   11   33 1  
    37   12   34 1  
    38   13   35 1  
    39   13   36 1  
    40   18   37 1  
    41   19   38 1  
    42   22   39 1  
    43   23   40 1  
@<TRIPOS>SUBSTRUCTURE
     1 0SJ         1

