### 
### Created by X-TOOL on Mon Sep 10 21:13:09 2018
### 

@<TRIPOS>MOLECULE
4ehz_ligand
   37    40     1     0     0
SMALL
GAST_HUCK


@<TRIPOS>ATOM
      1 C1          9.0250   56.7440   -0.4570 C.3       1 JAK         0.0173
      2 C2          7.8940   57.7420   -0.2550 C.2       1 JAK         0.1197
      3 N3          7.9570   58.9710   -0.6380 N.2       1 JAK        -0.3195
      4 C4          6.8210   59.6150   -0.3260 C.ar      1 JAK         0.0328
      5 C5          6.4120   60.9300   -0.5330 C.ar      1 JAK        -0.0083
      6 N6          5.2400   61.3230   -0.1200 N.ar      1 JAK        -0.3048
      7 C7          4.3730   60.5150    0.4950 C.ar      1 JAK         0.1197
      8 C8          4.7130   59.1670    0.7370 C.ar      1 JAK         0.0191
      9 C9          5.9770   58.6880    0.3220 C.ar      1 JAK         0.0888
     10 N10         6.6890   57.4990    0.3410 N.pl3     1 JAK        -0.2271
     11 C11         6.3260   56.1840    0.9120 C.3       1 JAK         0.0791
     12 C12         6.0470   56.3520    2.4070 C.3       1 JAK         0.0175
     13 C13         5.8160   54.9740    3.0270 C.3       1 JAK        -0.0309
     14 N14         4.7110   54.2700    2.3530 N.4       1 JAK         0.2271
     15 C15         4.9070   54.1420    0.9070 C.3       1 JAK        -0.0309
     16 C16         5.1090   55.5140    0.2590 C.3       1 JAK         0.0175
     17 C17         3.5410   58.6020    1.4130 C.2       1 JAK        -0.0611
     18 C18         2.6230   59.5770    1.5360 C.2       1 JAK         0.0211
     19 N19         3.1000   60.7340    0.9940 N.pl3     1 JAK        -0.2742
     20 H1          9.8643   57.2393   -0.9672 H         1 JAK         0.0490
     21 H2          8.6675   55.9038   -1.0704 H         1 JAK         0.0490
     22 H3          9.3608   56.3676    0.5205 H         1 JAK         0.0490
     23 H4          7.0696   61.6279   -1.0385 H         1 JAK         0.0693
     24 H5          7.1882   55.5133    0.7827 H         1 JAK         0.0647
     25 H6          5.1512   56.9746    2.5475 H         1 JAK         0.0346
     26 H7          6.9087   56.8347    2.8912 H         1 JAK         0.0346
     27 H8          5.5685   55.0956    4.0919 H         1 JAK         0.0815
     28 H9          6.7349   54.3773    2.9299 H         1 JAK         0.0815
     29 H10         3.8578   54.7812    2.5169 H         1 JAK         0.2013
     30 H11         4.6306   53.3464    2.7486 H         1 JAK         0.2013
     31 H12         4.0217   53.6618    0.4648 H         1 JAK         0.0815
     32 H13         5.7944   53.5203    0.7176 H         1 JAK         0.0815
     33 H14         5.2860   55.3928   -0.8199 H         1 JAK         0.0346
     34 H15         4.2144   56.1344    0.4164 H         1 JAK         0.0346
     35 H16         3.4329   57.5738    1.7552 H         1 JAK         0.0292
     36 H17         1.6445   59.4601    1.9994 H         1 JAK         0.0915
     37 H18         2.5930   61.6300    0.9610 H         1 JAK         0.2282
@<TRIPOS>BOND
     1    1    2 1  
     2    2    3 2  
     3    2   10 1  
     4    3    4 1  
     5    4    5 ar 
     6    4    9 ar 
     7    5    6 ar 
     8    6    7 ar 
     9    7    8 ar 
    10    7   19 1  
    11    8    9 ar 
    12    8   17 1  
    13    9   10 1  
    14   10   11 1  
    15   11   12 1  
    16   11   16 1  
    17   12   13 1  
    18   13   14 1  
    19   14   15 1  
    20   15   16 1  
    21   17   18 2  
    22   18   19 1  
    23    1   20 1  
    24    1   21 1  
    25    1   22 1  
    26    5   23 1  
    27   11   24 1  
    28   12   25 1  
    29   12   26 1  
    30   13   27 1  
    31   13   28 1  
    32   14   29 1  
    33   14   30 1  
    34   15   31 1  
    35   15   32 1  
    36   16   33 1  
    37   16   34 1  
    38   17   35 1  
    39   18   36 1  
    40   19   37 1  
@<TRIPOS>SUBSTRUCTURE
     1 JAK         1

