### 
### Created by X-TOOL on Mon Sep 10 21:13:10 2018
### 

@<TRIPOS>MOLECULE
4ei4_ligand
   38    41     1     0     0
SMALL
GAST_HUCK


@<TRIPOS>ATOM
      1 C1         10.2940   56.7550   -0.5130 C.3       1 0Q2         0.0173
      2 C2          9.1330   57.7010   -0.2740 C.2       1 0Q2         0.1197
      3 N3          9.1270   58.9600   -0.6400 N.2       1 0Q2        -0.3195
      4 C4          7.9630   59.5520   -0.2730 C.ar      1 0Q2         0.0328
      5 C5          7.4540   60.8580   -0.3970 C.ar      1 0Q2        -0.0083
      6 N6          6.2540   61.1740    0.0550 N.ar      1 0Q2        -0.3048
      7 C7          5.4810   60.2620    0.6500 C.ar      1 0Q2         0.1197
      8 C8          5.9140   58.9270    0.8260 C.ar      1 0Q2         0.0191
      9 C9          7.1870   58.5520    0.3660 C.ar      1 0Q2         0.0887
     10 N10         7.9500   57.3840    0.3400 N.pl3     1 0Q2        -0.2274
     11 C11         7.5940   56.0600    0.8720 C.3       1 0Q2         0.0719
     12 C13         6.4090   55.4710    0.0820 C.3       1 0Q2        -0.0228
     13 C14         6.1490   54.0240    0.5280 C.3       1 0Q2        -0.0480
     14 C15         5.9330   53.9530    2.0540 C.3       1 0Q2        -0.0267
     15 C16         7.0040   54.6900    2.9040 C.3       1 0Q2         0.0580
     16 C18         7.2940   56.1100    2.3900 C.3       1 0Q2         0.0032
     17 O19         8.2230   53.9390    2.9360 O.3       1 0Q2        -0.3917
     18 C20         4.8240   58.2190    1.5110 C.2       1 0Q2        -0.0611
     19 C21         3.8540   59.1060    1.7010 C.2       1 0Q2         0.0211
     20 N22         4.2330   60.3310    1.1940 N.pl3     1 0Q2        -0.2742
     21 H1         11.1050   57.2923   -1.0265 H         1 0Q2         0.0490
     22 H2          9.9589   55.9136   -1.1373 H         1 0Q2         0.0490
     23 H3         10.6603   56.3731    0.4513 H         1 0Q2         0.0490
     24 H4          8.0594   61.6206   -0.8734 H         1 0Q2         0.0693
     25 H5          8.4591   55.3962    0.7272 H         1 0Q2         0.0644
     26 H6          6.6445   55.4845   -0.9924 H         1 0Q2         0.0294
     27 H7          5.5099   56.0768    0.2679 H         1 0Q2         0.0294
     28 H8          7.0145   53.4017    0.2567 H         1 0Q2         0.0267
     29 H9          5.2508   53.6451    0.0184 H         1 0Q2         0.0267
     30 H10         5.9328   52.8935    2.3496 H         1 0Q2         0.0290
     31 H11         4.9526   54.3972    2.2808 H         1 0Q2         0.0290
     32 H12         6.6192   54.7723    3.9312 H         1 0Q2         0.0594
     33 H13         6.4179   56.7505    2.5694 H         1 0Q2         0.0319
     34 H14         8.1643   56.5215    2.9221 H         1 0Q2         0.0319
     35 H15         8.8421   54.3669    3.5156 H         1 0Q2         0.2098
     36 H16         4.8135   57.1707    1.8057 H         1 0Q2         0.0292
     37 H17         2.9012   58.8970    2.1851 H         1 0Q2         0.0915
     38 H18         3.6527   61.1815    1.2224 H         1 0Q2         0.2282
@<TRIPOS>BOND
     1    1    2 1  
     2    2    3 2  
     3    2   10 1  
     4    3    4 1  
     5    4    5 ar 
     6    4    9 ar 
     7    5    6 ar 
     8    6    7 ar 
     9    7    8 ar 
    10    7   20 1  
    11    8    9 ar 
    12    8   18 1  
    13    9   10 1  
    14   10   11 1  
    15   11   12 1  
    16   11   16 1  
    17   12   13 1  
    18   13   14 1  
    19   14   15 1  
    20   15   16 1  
    21   15   17 1  
    22   18   19 2  
    23   19   20 1  
    24    1   21 1  
    25    1   22 1  
    26    1   23 1  
    27    5   24 1  
    28   11   25 1  
    29   12   26 1  
    30   12   27 1  
    31   13   28 1  
    32   13   29 1  
    33   14   30 1  
    34   14   31 1  
    35   15   32 1  
    36   16   33 1  
    37   16   34 1  
    38   17   35 1  
    39   18   36 1  
    40   19   37 1  
    41   20   38 1  
@<TRIPOS>SUBSTRUCTURE
     1 0Q2         1

