### 
### Created by X-TOOL on Mon Sep 10 21:13:08 2018
### 

@<TRIPOS>MOLECULE
4ej2_ligand
   50    51     1     0     0
SMALL
GAST_HUCK


@<TRIPOS>ATOM
      1 N1         34.0600   23.7760   28.9530 N.am      1 D1F        -0.1523
      2 C2         33.2520   24.4370   29.8330 C.2       1 D1F         0.3374
      3 O2         32.0170   24.4210   29.7030 O.2       1 D1F        -0.3791
      4 N3         33.7980   25.1930   30.9040 N.am      1 D1F        -0.1831
      5 C4         35.1860   25.2460   31.0670 C.2       1 D1F         0.2055
      6 O4         35.7380   25.8740   31.9770 O.2       1 D1F        -0.4057
      7 C5         35.9920   24.5660   30.1890 C.2       1 D1F         0.0998
      8 C6         35.4940   23.8150   29.1100 C.2       1 D1F         0.0844
      9 C7         37.3950   24.8240   30.6520 C.1       1 D1F        -0.1000
     10 C8         38.4760   24.9740   31.0040 C.1       1 D1F        -0.1320
     11 C9         39.8680   25.2700   31.5330 C.3       1 D1F        -0.0034
     12 C1'        33.3370   23.0080   27.8710 C.3       1 D1F         0.2086
     13 C10        40.6560   23.9770   31.8800 C.3       1 D1F        -0.0449
     14 C11        42.1020   24.1790   32.3720 C.3       1 D1F        -0.0527
     15 C12        42.9250   22.9200   32.6980 C.3       1 D1F        -0.0559
     16 C13        44.1940   22.8200   31.8470 C.3       1 D1F        -0.0653
     17 C2'        33.8730   23.1370   26.4240 C.3       1 D1F         0.1394
     18 O2'        34.2650   24.5200   26.1610 O.3       1 D1F        -0.3835
     19 C3'        32.7610   22.5320   25.4480 C.3       1 D1F         0.1146
     20 O3'        33.1250   22.5360   24.0420 O.3       1 D1F        -0.3864
     21 C4'        32.4350   21.0780   25.8730 C.3       1 D1F         0.1119
     22 O4'        31.3390   20.5260   25.0620 O.3       1 D1F        -0.3865
     23 C5'        32.1650   20.9600   27.4260 C.3       1 D1F         0.1135
     24 O5'        33.1990   21.6020   28.2040 O.3       1 D1F        -0.3361
     25 C6'        32.1070   19.4980   27.8790 C.3       1 D1F         0.0730
     26 O6'        33.2090   18.7620   27.3340 O.3       1 D1F        -0.3924
     27 H          33.1842   25.6922   31.5477 H         1 D1F         0.2263
     28 H          36.1585   23.2879   28.4254 H         1 D1F         0.1245
     29 H          39.7646   25.8574   32.4454 H         1 D1F         0.0364
     30 H          40.4179   25.8024   30.7569 H         1 D1F         0.0364
     31 H          32.3688   23.5085   27.8564 H         1 D1F         0.1006
     32 H          40.7244   23.4029   30.9560 H         1 D1F         0.0272
     33 H          40.1175   23.5009   32.6994 H         1 D1F         0.0272
     34 H          42.0183   24.7258   33.3112 H         1 D1F         0.0265
     35 H          42.6258   24.6668   31.5500 H         1 D1F         0.0265
     36 H          42.3066   22.0474   32.4875 H         1 D1F         0.0263
     37 H          43.2229   22.9721   33.7452 H         1 D1F         0.0263
     38 H          43.9207   22.7822   30.7925 H         1 D1F         0.0230
     39 H          44.8222   23.6918   32.0298 H         1 D1F         0.0230
     40 H          44.7393   21.9151   32.1150 H         1 D1F         0.0230
     41 H          34.7854   22.5654   26.2542 H         1 D1F         0.0677
     42 H          34.5960   24.5923   25.2628 H         1 D1F         0.2101
     43 H          31.8955   23.1873   25.5459 H         1 D1F         0.0648
     44 H          33.2857   23.4384   23.7568 H         1 D1F         0.2100
     45 H          33.3166   20.4677   25.6770 H         1 D1F         0.0647
     46 H          30.5532   21.0653   25.1784 H         1 D1F         0.2100
     47 H          31.2067   21.4516   27.5932 H         1 D1F         0.0647
     48 H          31.1754   19.0543   27.5278 H         1 D1F         0.0584
     49 H          32.1590   19.4612   28.9671 H         1 D1F         0.0584
     50 H          34.0329   19.1510   27.6363 H         1 D1F         0.2095
@<TRIPOS>BOND
     1    1    2 am 
     2    1    8 1  
     3    1   12 1  
     4    2    3 2  
     5    2    4 am 
     6    4    5 am 
     7    5    6 2  
     8    5    7 1  
     9    7    8 2  
    10    7    9 1  
    11    9   10 3  
    12   10   11 1  
    13   11   13 1  
    14   12   17 1  
    15   12   24 1  
    16   13   14 1  
    17   14   15 1  
    18   15   16 1  
    19   17   18 1  
    20   17   19 1  
    21   19   20 1  
    22   19   21 1  
    23   21   22 1  
    24   21   23 1  
    25   23   24 1  
    26   23   25 1  
    27   25   26 1  
    28    4   27 1  
    29    8   28 1  
    30   11   29 1  
    31   11   30 1  
    32   12   31 1  
    33   13   32 1  
    34   13   33 1  
    35   14   34 1  
    36   14   35 1  
    37   15   36 1  
    38   15   37 1  
    39   16   38 1  
    40   16   39 1  
    41   16   40 1  
    42   17   41 1  
    43   18   42 1  
    44   19   43 1  
    45   20   44 1  
    46   21   45 1  
    47   22   46 1  
    48   23   47 1  
    49   25   48 1  
    50   25   49 1  
    51   26   50 1  
@<TRIPOS>SUBSTRUCTURE
     1 D1F         1

