### 
### Created by X-TOOL on Mon Sep 10 21:13:14 2018
### 

@<TRIPOS>MOLECULE
4ej8_ligand
   18    19     1     0     0
SMALL
GAST_HUCK


@<TRIPOS>ATOM
      1 O1          9.0430   22.5950   24.5300 O.co2     1 1F1        -0.5629
      2 C2          9.5420   23.6900   24.3310 C.2       1 1F1         0.0557
      3 O3          8.8840   24.7720   24.7620 O.co2     1 1F1        -0.5629
      4 C4         10.8600   23.7930   23.6100 C.ar      1 1F1        -0.0046
      5 C5         11.4600   25.0400   23.4130 C.ar      1 1F1        -0.0655
      6 C6         12.6780   25.1920   22.7460 C.ar      1 1F1        -0.0724
      7 C7         13.2840   24.0240   22.2810 C.ar      1 1F1        -0.0256
      8 C8         14.4820   23.8190   21.5900 C.2       1 1F1        -0.0621
      9 C9         14.5930   22.4480   21.3660 C.2       1 1F1         0.0229
     10 N10        13.5070   21.8430   21.9030 N.pl3     1 1F1        -0.2785
     11 C11        12.6960   22.7730   22.4670 C.ar      1 1F1         0.0673
     12 C12        11.4710   22.6290   23.1300 C.ar      1 1F1        -0.0288
     13 H1         10.9605   25.9239   23.7928 H         1 1F1         0.0542
     14 H2         13.1290   26.1665   22.5973 H         1 1F1         0.0540
     15 H3         15.1933   24.5851   21.2848 H         1 1F1         0.0291
     16 H4         15.4114   21.9495   20.8487 H         1 1F1         0.0945
     17 H5         13.3242   20.8295   21.8859 H         1 1F1         0.2273
     18 H6         11.0144   21.6553   23.2659 H         1 1F1         0.0583
@<TRIPOS>BOND
     1    1    2 ar 
     2    2    3 ar 
     3    2    4 1  
     4    4    5 ar 
     5    4   12 ar 
     6    5    6 ar 
     7    6    7 ar 
     8    7    8 1  
     9    7   11 ar 
    10    8    9 2  
    11    9   10 1  
    12   10   11 1  
    13   11   12 ar 
    14    5   13 1  
    15    6   14 1  
    16    8   15 1  
    17    9   16 1  
    18   10   17 1  
    19   12   18 1  
@<TRIPOS>SUBSTRUCTURE
     1 1F1         1

