### 
### Created by X-TOOL on Mon Sep 10 21:13:14 2018
### 

@<TRIPOS>MOLECULE
4ejl_ligand
   24    25     1     0     0
SMALL
GAST_HUCK


@<TRIPOS>ATOM
      1 C1'        -8.8780   21.7220  -25.1880 C.2       1 IOP         0.0360
      2 O1         -7.7910   21.1570  -25.4010 O.co2     1 IOP        -0.5689
      3 O2         -9.0110   22.9620  -25.2640 O.co2     1 IOP        -0.5689
      4 C2'       -10.0570   20.8510  -24.8280 C.3       1 IOP         0.0045
      5 C3'       -11.1160   21.6960  -24.1240 C.3       1 IOP        -0.0248
      6 N1        -13.3850   19.1050  -22.7720 N.pl3     1 IOP        -0.2891
      7 C2        -12.2180   19.4650  -23.3560 C.2       1 IOP         0.0165
      8 C3        -12.2060   20.8460  -23.5200 C.2       1 IOP        -0.0447
      9 C3A       -13.4060   21.3070  -23.0090 C.ar      1 IOP        -0.0215
     10 C4        -13.9040   22.6020  -22.9190 C.ar      1 IOP        -0.0747
     11 C5        -15.1690   22.7860  -22.3570 C.ar      1 IOP        -0.0792
     12 C6        -15.9130   21.7010  -21.8860 C.ar      1 IOP        -0.0768
     13 C7        -15.3970   20.4080  -21.9870 C.ar      1 IOP        -0.0443
     14 C7A       -14.1330   20.2110  -22.5510 C.ar      1 IOP         0.0603
     15 H1         -9.7260   20.0442  -24.1575 H         1 IOP         0.0444
     16 H2        -10.4842   20.4151  -25.7431 H         1 IOP         0.0444
     17 H3        -11.5658   22.3836  -24.8553 H         1 IOP         0.0367
     18 H4        -10.6334   22.2762  -23.3238 H         1 IOP         0.0367
     19 H5        -13.6602   18.1415  -22.5335 H         1 IOP         0.2216
     20 H6        -11.4196   18.7849  -23.6492 H         1 IOP         0.0795
     21 H7        -13.3255   23.4465  -23.2757 H         1 IOP         0.0540
     22 H8        -15.5803   23.7863  -22.2850 H         1 IOP         0.0510
     23 H9        -16.8890   21.8631  -21.4430 H         1 IOP         0.0530
     24 H10       -15.9728   19.5617  -21.6303 H         1 IOP         0.0541
@<TRIPOS>BOND
     1    1    2 ar 
     2    1    3 ar 
     3    4    1 1  
     4    5    4 1  
     5    8    5 1  
     6    7    6 1  
     7    6   14 1  
     8    7    8 2  
     9    8    9 1  
    10    9   10 ar 
    11    9   14 ar 
    12   10   11 ar 
    13   11   12 ar 
    14   12   13 ar 
    15   13   14 ar 
    16    4   15 1  
    17    4   16 1  
    18    5   17 1  
    19    5   18 1  
    20    6   19 1  
    21    7   20 1  
    22   10   21 1  
    23   11   22 1  
    24   12   23 1  
    25   13   24 1  
@<TRIPOS>SUBSTRUCTURE
     1 IOP         1

