### 
### Created by X-TOOL on Mon Sep 10 21:13:11 2018
### 

@<TRIPOS>MOLECULE
4ejn_ligand
   69    74     1     0     0
SMALL
GAST_HUCK


@<TRIPOS>ATOM
      1 O1         37.4060   46.1000   24.7550 O.2       1 0R4        -0.3852
      2 C21        37.6080   45.1470   25.5140 C.2       1 0R4         0.2004
      3 C22        37.9110   45.3590   26.9720 C.3       1 0R4         0.0316
      4 N5         37.5780   43.8520   25.1510 N.am      1 0R4        -0.2341
      5 C17        37.3860   43.3700   23.8850 C.ar      1 0R4         0.0677
      6 C18        36.7520   42.1290   23.7160 C.ar      1 0R4        -0.0399
      7 C19        36.5440   41.6320   22.4240 C.ar      1 0R4        -0.0733
      8 C20        36.9660   42.3530   21.3040 C.ar      1 0R4        -0.0672
      9 C16        37.8090   44.0840   22.7580 C.ar      1 0R4        -0.0320
     10 C15        37.6110   43.5850   21.4670 C.ar      1 0R4        -0.0200
     11 C3         38.0690   44.3530   20.2650 C.ar      1 0R4         0.0338
     12 C2         39.2830   45.0680   20.2480 C.ar      1 0R4        -0.0416
     13 C1         39.6940   45.7840   19.1070 C.ar      1 0R4        -0.0415
     14 N1         37.2830   44.3380   19.1740 N.ar      1 0R4        -0.2755
     15 C5         37.6280   45.0110   18.0490 C.ar      1 0R4         0.1698
     16 C4         38.8780   45.7790   17.9700 C.ar      1 0R4         0.0610
     17 N2         38.9270   46.3140   16.7150 N.2       1 0R4        -0.2968
     18 C6         37.8160   45.9400   16.0130 C.2       1 0R4         0.1637
     19 C23        37.4720   46.3210   14.6110 C.ar      1 0R4         0.0850
     20 C24        37.7940   47.6850   14.0980 C.ar      1 0R4         0.1305
     21 N7         38.4030   48.6180   14.8950 N.pl3     1 0R4        -0.3166
     22 N6         37.4590   47.9820   12.8310 N.ar      1 0R4        -0.2784
     23 C25        36.8450   47.0960   12.0140 C.ar      1 0R4         0.0000
     24 C26        36.5250   45.8020   12.4540 C.ar      1 0R4        -0.0429
     25 C27        36.8440   45.4090   13.7480 C.ar      1 0R4        -0.0355
     26 N3         37.1010   45.1460   16.8410 N.pl3     1 0R4        -0.1799
     27 C7         35.8780   44.6160   16.6130 C.ar      1 0R4         0.0904
     28 C8         34.8280   45.4280   16.1360 C.ar      1 0R4        -0.0354
     29 C9         33.5310   44.9580   15.9290 C.ar      1 0R4        -0.0634
     30 C12        35.5150   43.2870   16.9200 C.ar      1 0R4        -0.0354
     31 C11        34.2250   42.8060   16.7360 C.ar      1 0R4        -0.0634
     32 C10        33.2210   43.6480   16.2480 C.ar      1 0R4        -0.0286
     33 C13        31.8080   43.1450   16.0250 C.3       1 0R4         0.0605
     34 N4         31.4140   42.2840   17.1250 N.am      1 0R4        -0.2760
     35 C14        30.4250   41.4270   16.9210 C.2       1 0R4         0.2057
     36 O2         29.6700   41.5770   15.9770 O.2       1 0R4        -0.3845
     37 C28        30.2050   40.2530   17.8160 C.ar      1 0R4         0.0482
     38 C33        31.2700   39.5110   18.3300 C.ar      1 0R4        -0.0084
     39 C29        28.8870   39.8870   18.1060 C.ar      1 0R4        -0.0460
     40 C30        28.6250   38.7960   18.9300 C.ar      1 0R4        -0.0580
     41 C31        29.6780   38.0520   19.4450 C.ar      1 0R4        -0.0239
     42 C32        30.9880   38.4080   19.1500 C.ar      1 0R4         0.1378
     43 F1         31.9860   37.6690   19.6790 F         1 0R4        -0.1823
     44 H          38.8185   45.9547   27.0703 H         1 0R4         0.0472
     45 H          37.0786   45.8823   27.4424 H         1 0R4         0.0472
     46 H          38.0547   44.3930   27.4561 H         1 0R4         0.0472
     47 H          37.7113   43.1629   25.8911 H         1 0R4         0.2255
     48 H          36.4243   41.5569   24.5840 H         1 0R4         0.0515
     49 H          36.0470   40.6712   22.2901 H         1 0R4         0.0582
     50 H          36.7931   41.9564   20.3035 H         1 0R4         0.0507
     51 H          38.3021   45.0472   22.8892 H         1 0R4         0.0513
     52 H          39.9163   45.0669   21.1351 H         1 0R4         0.0617
     53 H          40.6348   46.3345   19.1094 H         1 0R4         0.0676
     54 H          38.6449   48.3860   15.8583 H         1 0R4         0.1803
     55 H          38.6145   49.5447   14.5251 H         1 0R4         0.1803
     56 H          36.5941   47.3922   10.9955 H         1 0R4         0.0813
     57 H          36.0261   45.1053   11.7804 H         1 0R4         0.0609
     58 H          36.6087   44.4012   14.0901 H         1 0R4         0.0743
     59 H          35.0405   46.4747   15.9183 H         1 0R4         0.0557
     60 H          32.7670   45.6184   15.5187 H         1 0R4         0.0539
     61 H          36.2749   42.6134   17.3160 H         1 0R4         0.0557
     62 H          33.9943   41.7674   16.9731 H         1 0R4         0.0539
     63 H          31.7690   42.5805   15.0934 H         1 0R4         0.0668
     64 H          31.1272   43.9945   15.9702 H         1 0R4         0.0668
     65 H          31.8848   42.3373   18.0283 H         1 0R4         0.1870
     66 H          32.2999   39.7831   18.0989 H         1 0R4         0.0655
     67 H          28.0603   40.4590   17.6846 H         1 0R4         0.0634
     68 H          27.5964   38.5267   19.1701 H         1 0R4         0.0619
     69 H          29.4770   37.1893   20.0802 H         1 0R4         0.0639
@<TRIPOS>BOND
     1    1    2 2  
     2    2    3 1  
     3    2    4 am 
     4    4    5 1  
     5    5    6 ar 
     6    5    9 ar 
     7    6    7 ar 
     8    7    8 ar 
     9    8   10 ar 
    10    9   10 ar 
    11   10   11 1  
    12   11   12 ar 
    13   11   14 ar 
    14   12   13 ar 
    15   13   16 ar 
    16   14   15 ar 
    17   15   16 ar 
    18   15   26 1  
    19   16   17 1  
    20   17   18 2  
    21   18   19 1  
    22   18   26 1  
    23   19   20 ar 
    24   19   25 ar 
    25   20   21 1  
    26   20   22 ar 
    27   22   23 ar 
    28   23   24 ar 
    29   24   25 ar 
    30   26   27 1  
    31   27   28 ar 
    32   27   30 ar 
    33   28   29 ar 
    34   29   32 ar 
    35   30   31 ar 
    36   31   32 ar 
    37   32   33 1  
    38   33   34 1  
    39   34   35 am 
    40   35   36 2  
    41   35   37 1  
    42   37   38 ar 
    43   37   39 ar 
    44   38   42 ar 
    45   39   40 ar 
    46   40   41 ar 
    47   41   42 ar 
    48   42   43 1  
    49    3   44 1  
    50    3   45 1  
    51    3   46 1  
    52    4   47 1  
    53    6   48 1  
    54    7   49 1  
    55    8   50 1  
    56    9   51 1  
    57   12   52 1  
    58   13   53 1  
    59   21   54 1  
    60   21   55 1  
    61   23   56 1  
    62   24   57 1  
    63   25   58 1  
    64   28   59 1  
    65   29   60 1  
    66   30   61 1  
    67   31   62 1  
    68   33   63 1  
    69   33   64 1  
    70   34   65 1  
    71   38   66 1  
    72   39   67 1  
    73   40   68 1  
    74   41   69 1  
@<TRIPOS>SUBSTRUCTURE
     1 0R4         1

