### 
### Created by X-TOOL on Mon Sep 10 21:13:11 2018
### 

@<TRIPOS>MOLECULE
4ek9_ligand
   40    42     1     0     0
SMALL
GAST_HUCK


@<TRIPOS>ATOM
      1 CG         45.8240   53.2690    9.2590 C.3       1 EP4        -0.0433
      2 N2         44.6520   52.6310    9.8840 N.4       1 EP4         0.2328
      3 CE         43.5190   52.8210    8.9750 C.3       1 EP4        -0.0433
      4 C5'        44.9520   51.2040   10.1340 C.3       1 EP4        -0.0028
      5 C4'        43.9850   50.5480   11.1450 C.3       1 EP4         0.1300
      6 O4'        44.4600   49.1890   11.2980 O.3       1 EP4        -0.3338
      7 C1'        44.0440   48.7730   12.6180 C.3       1 EP4         0.2011
      8 N9         44.7650   47.5500   13.0770 N.pl3     1 EP4        -0.1919
      9 C4         44.2130   46.3200   13.0790 C.ar      1 EP4         0.1613
     10 N3         42.9870   45.8890   12.7050 N.ar      1 EP4        -0.2714
     11 C2         42.6700   44.5130   12.8120 C.ar      1 EP4         0.0533
     12 N1         43.6350   43.6230   13.3160 N.ar      1 EP4        -0.2698
     13 C6         44.8420   44.1290   13.6740 C.ar      1 EP4         0.1298
     14 N6         45.8060   43.3100   14.1320 N.pl3     1 EP4        -0.3152
     15 C5         45.1430   45.4530   13.5550 C.ar      1 EP4         0.1045
     16 N7         46.2660   46.1750   13.8310 N.2       1 EP4        -0.2958
     17 C8         46.0300   47.4620   13.5340 C.2       1 EP4         0.1123
     18 C2'        44.4390   49.9320   13.4580 C.3       1 EP4         0.1386
     19 O2'        43.6080   49.8450   14.6440 O.3       1 EP4        -0.3836
     20 C3'        44.1030   51.1420   12.5600 C.3       1 EP4         0.1174
     21 O3'        42.8040   51.6030   12.9290 O.3       1 EP4        -0.3863
     22 H1         45.6066   54.3307    9.0707 H         1 EP4         0.0777
     23 H2         46.0507   52.7668    8.3070 H         1 EP4         0.0777
     24 H3         46.6896   53.1859    9.9327 H         1 EP4         0.0777
     25 H4         44.4477   53.0779   10.7641 H         1 EP4         0.2029
     26 H5         42.6203   52.3568    9.4073 H         1 EP4         0.0777
     27 H6         43.7438   52.3519    8.0058 H         1 EP4         0.0777
     28 H7         43.3421   53.8969    8.8295 H         1 EP4         0.0777
     29 H8         45.9760   51.1256   10.5280 H         1 EP4         0.0841
     30 H9         44.8833   50.6598    9.1805 H         1 EP4         0.0841
     31 H10        42.9480   50.5963   10.7814 H         1 EP4         0.0678
     32 H11        42.9586   48.5980   12.6539 H         1 EP4         0.0996
     33 H12        41.6946   44.1499   12.5089 H         1 EP4         0.0996
     34 H13        46.7222   43.6944   14.4037 H         1 EP4         0.1820
     35 H14        45.6279   42.2986   14.2110 H         1 EP4         0.1820
     36 H15        46.7333   48.2864   13.6425 H         1 EP4         0.1349
     37 H16        45.5053   49.9214   13.7279 H         1 EP4         0.0676
     38 H17        42.6932   49.8918   14.3924 H         1 EP4         0.2101
     39 H18        44.8583   51.9391   12.6244 H         1 EP4         0.0649
     40 H19        42.1724   50.9057   12.7971 H         1 EP4         0.2100
@<TRIPOS>BOND
     1    1    2 1  
     2    2    3 1  
     3    2    4 1  
     4    4    5 1  
     5    5    6 1  
     6    5   20 1  
     7    6    7 1  
     8    7    8 1  
     9    7   18 1  
    10    8    9 1  
    11    8   17 1  
    12    9   10 ar 
    13    9   15 ar 
    14   10   11 ar 
    15   11   12 ar 
    16   12   13 ar 
    17   13   14 1  
    18   13   15 ar 
    19   15   16 1  
    20   16   17 2  
    21   18   19 1  
    22   18   20 1  
    23   20   21 1  
    24    1   22 1  
    25    1   23 1  
    26    1   24 1  
    27    2   25 1  
    28    3   26 1  
    29    3   27 1  
    30    3   28 1  
    31    4   29 1  
    32    4   30 1  
    33    5   31 1  
    34    7   32 1  
    35   11   33 1  
    36   14   34 1  
    37   14   35 1  
    38   17   36 1  
    39   18   37 1  
    40   19   38 1  
    41   20   39 1  
    42   21   40 1  
@<TRIPOS>SUBSTRUCTURE
     1 EP4         1

