### 
### Created by X-TOOL on Mon Sep 10 21:13:08 2018
### 

@<TRIPOS>MOLECULE
4eke_ligand
   52    54     1     0     0
SMALL
GAST_HUCK


@<TRIPOS>ATOM
      1 N1         34.0200   23.6700   28.7350 N.am      1 D1I        -0.2239
      2 C2         33.2910   24.1980   29.7450 C.2       1 D1I         0.2899
      3 O2         32.0630   24.1480   29.7990 O.2       1 D1I        -0.3923
      4 N3         33.8990   24.9500   30.7170 N.am      1 D1I        -0.2033
      5 C4         35.3310   24.8250   30.7920 C.2       1 D1I         0.1994
      6 C5         36.0440   24.4570   29.6610 C.2       1 D1I        -0.0254
      7 O5         36.0380   25.7220   31.5790 O.3       1 D1I        -0.2524
      8 C6         35.4380   23.7520   28.7040 C.3       1 D1I         0.0433
      9 C7         37.3090   24.7000   30.0110 C.2       1 D1I        -0.0872
     10 C8         37.3120   25.4490   31.1540 C.2       1 D1I         0.0739
     11 C9         38.6270   25.9820   31.8180 C.3       1 D1I        -0.0007
     12 C1'        33.2750   22.8820   27.7560 C.3       1 D1I         0.1756
     13 C10        38.5290   27.5060   32.2400 C.3       1 D1I        -0.0436
     14 C11        38.6750   27.7410   33.7750 C.3       1 D1I        -0.0517
     15 C12        39.6980   26.7960   34.4580 C.3       1 D1I        -0.0558
     16 C13        40.0800   27.3380   35.8490 C.3       1 D1I        -0.0653
     17 C2'        33.6900   23.0390   26.3120 C.3       1 D1I         0.1308
     18 O2'        33.9220   24.4180   25.9970 O.3       1 D1I        -0.3844
     19 C3'        32.5590   22.4200   25.4650 C.3       1 D1I         0.1138
     20 O3'        32.9110   22.3730   24.1090 O.3       1 D1I        -0.3864
     21 C4'        32.3220   20.9940   25.9170 C.3       1 D1I         0.1119
     22 O4'        31.1980   20.4600   25.2050 O.3       1 D1I        -0.3865
     23 C5'        32.1250   20.8660   27.4440 C.3       1 D1I         0.1127
     24 O5'        33.2190   21.4640   28.1430 O.3       1 D1I        -0.3435
     25 C6'        32.1580   19.4050   27.8750 C.3       1 D1I         0.0730
     26 O6'        33.2000   18.6870   27.2470 O.3       1 D1I        -0.3924
     27 H          33.3720   25.5572   31.3447 H         1 D1I         0.2229
     28 H          35.6785   24.2626   27.7715 H         1 D1I         0.0561
     29 H          35.7904   22.7284   28.8309 H         1 D1I         0.0561
     30 H          38.1935   24.3576   29.4738 H         1 D1I         0.0140
     31 H          39.4306   25.8893   31.0875 H         1 D1I         0.0415
     32 H          38.8057   25.3970   32.7202 H         1 D1I         0.0415
     33 H          32.2739   23.3121   27.7864 H         1 D1I         0.0896
     34 H          37.5413   27.8626   31.9478 H         1 D1I         0.0285
     35 H          39.3472   28.0336   31.7498 H         1 D1I         0.0285
     36 H          37.7022   27.5487   34.2274 H         1 D1I         0.0267
     37 H          39.0310   28.7616   33.9153 H         1 D1I         0.0267
     38 H          40.5944   26.7359   33.8408 H         1 D1I         0.0263
     39 H          39.2503   25.8087   34.5712 H         1 D1I         0.0263
     40 H          40.5244   28.3276   35.7425 H         1 D1I         0.0230
     41 H          39.1864   27.4046   36.4696 H         1 D1I         0.0230
     42 H          40.7984   26.6639   36.3154 H         1 D1I         0.0230
     43 H          34.6314   22.5306   26.1038 H         1 D1I         0.0668
     44 H          34.1841   24.4951   25.0767 H         1 D1I         0.2101
     45 H          31.6694   23.0366   25.5938 H         1 D1I         0.0647
     46 H          33.0800   23.2633   23.7924 H         1 D1I         0.2100
     47 H          33.2179   20.4171   25.6876 H         1 D1I         0.0647
     48 H          30.4210   20.9925   25.3902 H         1 D1I         0.2100
     49 H          31.1714   21.3432   27.6697 H         1 D1I         0.0647
     50 H          31.2109   18.9461   27.5912 H         1 D1I         0.0584
     51 H          32.3247   19.3726   28.9517 H         1 D1I         0.0584
     52 H          34.0435   19.0848   27.4745 H         1 D1I         0.2095
@<TRIPOS>BOND
     1    1    2 am 
     2    1    8 1  
     3    1   12 1  
     4    2    3 2  
     5    2    4 am 
     6    4    5 1  
     7    5    6 2  
     8    5    7 1  
     9    6    8 1  
    10    6    9 1  
    11    7   10 1  
    12    9   10 2  
    13   10   11 1  
    14   11   13 1  
    15   12   17 1  
    16   12   24 1  
    17   13   14 1  
    18   14   15 1  
    19   15   16 1  
    20   17   18 1  
    21   17   19 1  
    22   19   20 1  
    23   19   21 1  
    24   21   22 1  
    25   21   23 1  
    26   23   24 1  
    27   23   25 1  
    28   25   26 1  
    29    4   27 1  
    30    8   28 1  
    31    8   29 1  
    32    9   30 1  
    33   11   31 1  
    34   11   32 1  
    35   12   33 1  
    36   13   34 1  
    37   13   35 1  
    38   14   36 1  
    39   14   37 1  
    40   15   38 1  
    41   15   39 1  
    42   16   40 1  
    43   16   41 1  
    44   16   42 1  
    45   17   43 1  
    46   18   44 1  
    47   19   45 1  
    48   20   46 1  
    49   21   47 1  
    50   22   48 1  
    51   23   49 1  
    52   25   50 1  
    53   25   51 1  
    54   26   52 1  
@<TRIPOS>SUBSTRUCTURE
     1 D1I         1

