### 
### Created by X-TOOL on Fri Sep 26 17:34:54 2014
### 

@<TRIPOS>MOLECULE
4el0_ligand
   46    48     1     0     0
SMALL
GAST_HUCK


@<TRIPOS>ATOM
      1 N1         34.1150   23.5090   28.8320 N.am      1 D1K        -0.2012
      2 C2         33.4930   24.1610   29.8630 C.2       1 D1K         0.2913
      3 O2         32.2660   24.2820   29.9480 O.2       1 D1K        -0.3915
      4 N3         34.2580   24.7410   30.8480 N.am      1 D1K        -0.2324
      5 C4         35.5710   24.2100   30.9890 C.3       1 D1K         0.1777
      6 C5         36.2260   23.8810   29.7780 C.2       1 D1K        -0.0260
      7 O5         36.3880   25.1840   31.5140 O.3       1 D1K        -0.2864
      8 C6         35.5310   23.3600   28.7730 C.2       1 D1K         0.0127
      9 C7         37.5340   23.9080   30.0980 C.2       1 D1K        -0.0738
     10 C8         37.5890   24.5380   31.2840 C.2       1 D1K         0.0675
     11 C9         38.9010   24.8720   31.9550 C.3       1 D1K         0.0073
     12 C1'        33.2510   22.9110   27.7980 C.3       1 D1K         0.1923
     13 C10        39.5960   23.6930   32.6340 C.3       1 D1K        -0.0424
     14 C11        41.0530   24.1780   32.9320 C.3       1 D1K        -0.0631
     15 C2'        33.7420   23.1320   26.3880 C.3       1 D1K         0.1361
     16 O2'        34.0300   24.5130   26.1740 O.3       1 D1K        -0.3838
     17 C3'        32.6530   22.5410   25.4430 C.3       1 D1K         0.1143
     18 O3'        33.0610   22.6080   24.1280 O.3       1 D1K        -0.3864
     19 C4'        32.3800   21.0800   25.8260 C.3       1 D1K         0.1119
     20 O4'        31.2260   20.6490   25.0680 O.3       1 D1K        -0.3865
     21 C5'        32.1410   20.9210   27.4000 C.3       1 D1K         0.1132
     22 O5'        33.2190   21.4700   28.1290 O.3       1 D1K        -0.3389
     23 C6'        32.1570   19.4740   27.8990 C.3       1 D1K         0.0730
     24 O6'        33.1850   18.6820   27.2410 O.3       1 D1K        -0.3924
     25 H1         33.9159   25.4832   31.4243 H         1 D1K         0.1898
     26 H2         35.5274   23.3275   31.6443 H         1 D1K         0.1005
     27 H3         36.0184   22.8453   27.9463 H         1 D1K         0.0656
     28 H4         38.3660   23.5067   29.5213 H         1 D1K         0.0149
     29 H5         38.7084   25.6404   32.7182 H         1 D1K         0.0475
     30 H6         39.5819   25.2761   31.1915 H         1 D1K         0.0475
     31 H7         32.2398   23.3364   27.8778 H         1 D1K         0.0965
     32 H8         39.6113   22.8196   31.9655 H         1 D1K         0.0289
     33 H9         39.0801   23.4300   33.5692 H         1 D1K         0.0289
     34 H10        41.6144   23.3708   33.4252 H         1 D1K         0.0232
     35 H11        41.0190   25.0573   33.5920 H         1 D1K         0.0232
     36 H12        41.5502   24.4468   31.9883 H         1 D1K         0.0232
     37 H13        34.6751   22.5696   26.2363 H         1 D1K         0.0674
     38 H14        34.3376   24.6370   25.2837 H         1 D1K         0.2101
     39 H15        31.7266   23.1228   25.5585 H         1 D1K         0.0648
     40 H16        32.3849   22.2436   23.5689 H         1 D1K         0.2100
     41 H17        33.2473   20.4648   25.5445 H         1 D1K         0.0647
     42 H18        31.4129   20.7227   24.1394 H         1 D1K         0.2100
     43 H19        31.1910   21.4093   27.6628 H         1 D1K         0.0647
     44 H20        31.1758   19.0186   27.6994 H         1 D1K         0.0584
     45 H21        32.3478   19.4740   28.9823 H         1 D1K         0.0584
     46 H22        33.1623   17.7937   27.5770 H         1 D1K         0.2095
@<TRIPOS>BOND
     1    1    2 am 
     2    1    8 1  
     3    1   12 1  
     4    2    3 2  
     5    2    4 am 
     6    4    5 1  
     7    5    6 1  
     8    5    7 1  
     9    6    8 2  
    10    6    9 1  
    11    7   10 1  
    12    9   10 2  
    13   10   11 1  
    14   11   13 1  
    15   12   15 1  
    16   12   22 1  
    17   13   14 1  
    18   15   16 1  
    19   15   17 1  
    20   17   18 1  
    21   17   19 1  
    22   19   20 1  
    23   19   21 1  
    24   21   22 1  
    25   21   23 1  
    26   23   24 1  
    27    4   25 1  
    28    5   26 1  
    29    8   27 1  
    30    9   28 1  
    31   11   29 1  
    32   11   30 1  
    33   12   31 1  
    34   13   32 1  
    35   13   33 1  
    36   14   34 1  
    37   14   35 1  
    38   14   36 1  
    39   15   37 1  
    40   16   38 1  
    41   17   39 1  
    42   18   40 1  
    43   19   41 1  
    44   20   42 1  
    45   21   43 1  
    46   23   44 1  
    47   23   45 1  
    48   24   46 1  
@<TRIPOS>SUBSTRUCTURE
     1 D1K         1

