### 
### Created by X-TOOL on Fri Sep 26 17:34:54 2014
### 

@<TRIPOS>MOLECULE
4el5_ligand
   35    36     1     0     0
SMALL
GAST_HUCK


@<TRIPOS>ATOM
      1 N1         34.0970   23.5080   28.8070 N.am      1 D1M        -0.1523
      2 C2         33.4940   24.3630   29.7650 C.2       1 D1M         0.3374
      3 O2         32.2810   24.5700   29.7880 O.2       1 D1M        -0.3791
      4 N3         34.3190   25.0370   30.6860 N.am      1 D1M        -0.1831
      5 C4         35.6730   24.8070   30.7000 C.2       1 D1M         0.2055
      6 O4         36.3040   25.4480   31.5220 O.2       1 D1M        -0.4057
      7 C5         36.2930   23.9010   29.8070 C.2       1 D1M         0.0995
      8 C6         35.5090   23.2790   28.8380 C.2       1 D1M         0.0843
      9 C7         37.7090   23.6930   29.9160 C.1       1 D1M        -0.1035
     10 C8         38.8770   23.5610   30.0590 C.1       1 D1M        -0.1492
     11 C1'        33.2130   22.8510   27.8510 C.3       1 D1M         0.2086
     12 C2'        33.6980   23.1810   26.3430 C.3       1 D1M         0.1394
     13 O2'        33.8760   24.5750   26.1550 O.3       1 D1M        -0.3835
     14 C3'        32.6530   22.5760   25.4220 C.3       1 D1M         0.1146
     15 O3'        33.0970   22.6460   24.0540 O.3       1 D1M        -0.3864
     16 C4'        32.4640   21.0920   25.8560 C.3       1 D1M         0.1119
     17 O4'        31.3330   20.5960   25.1590 O.3       1 D1M        -0.3865
     18 C5'        32.2310   20.8620   27.4180 C.3       1 D1M         0.1135
     19 O5'        33.2810   21.4310   28.1410 O.3       1 D1M        -0.3361
     20 C6'        32.1090   19.2830   27.7460 C.3       1 D1M         0.0730
     21 O6'        33.3190   18.6990   27.2360 O.3       1 D1M        -0.3924
     22 H1         33.9174   25.6857   31.3324 H         1 D1M         0.2263
     23 H2         35.9704   22.6191   28.1048 H         1 D1M         0.1245
     24 H3         39.9186   23.4433   30.1865 H         1 D1M         0.1003
     25 H4         32.1807   23.2075   27.9824 H         1 D1M         0.1006
     26 H5         34.6640   22.6893   26.1559 H         1 D1M         0.0677
     27 H6         34.1601   24.7395   25.2635 H         1 D1M         0.2101
     28 H7         31.7024   23.1200   25.5241 H         1 D1M         0.0648
     29 H8         32.4360   22.2651   23.4878 H         1 D1M         0.2100
     30 H9         33.3603   20.5281   25.5583 H         1 D1M         0.0647
     31 H10        31.4878   20.6553   24.2236 H         1 D1M         0.2100
     32 H11        31.2923   21.3546   27.7114 H         1 D1M         0.0647
     33 H12        31.2306   18.8512   27.2440 H         1 D1M         0.0584
     34 H13        32.0288   19.1192   28.8308 H         1 D1M         0.0584
     35 H14        34.0666   19.0904   27.6723 H         1 D1M         0.2095
@<TRIPOS>BOND
     1    1    2 am 
     2    1    8 1  
     3    1   11 1  
     4    2    3 2  
     5    2    4 am 
     6    4    5 am 
     7    5    6 2  
     8    5    7 1  
     9    7    8 2  
    10    7    9 1  
    11    9   10 3  
    12   11   12 1  
    13   11   19 1  
    14   12   13 1  
    15   12   14 1  
    16   14   15 1  
    17   14   16 1  
    18   16   17 1  
    19   16   18 1  
    20   18   19 1  
    21   18   20 1  
    22   20   21 1  
    23    4   22 1  
    24    8   23 1  
    25   10   24 1  
    26   11   25 1  
    27   12   26 1  
    28   13   27 1  
    29   14   28 1  
    30   15   29 1  
    31   16   30 1  
    32   17   31 1  
    33   18   32 1  
    34   20   33 1  
    35   20   34 1  
    36   21   35 1  
@<TRIPOS>SUBSTRUCTURE
     1 D1M         1

