### 
### Created by X-TOOL on Mon Sep 10 21:13:11 2018
### 

@<TRIPOS>MOLECULE
4el9_ligand
   53    56     1     0     0
SMALL
GAST_HUCK


@<TRIPOS>ATOM
      1 O9         31.2360    5.1950    5.1380 O.3       1 AFE        -0.3864
      2 C23        32.0640    5.0630    6.2410 C.3       1 AFE         0.1144
      3 C22        33.4030    4.5390    5.8290 C.3       1 AFE         0.1383
      4 O22        33.8930    5.2960    4.7910 O.3       1 AFE        -0.3837
      5 C24        32.2300    6.3950    6.8690 C.3       1 AFE         0.1095
      6 O61        31.0170    6.8500    7.3400 O.3       1 AFE        -0.3866
      7 C25        33.1910    6.2720    8.0090 C.3       1 AFE         0.0877
      8 C51        33.3430    7.6080    8.6550 C.3       1 AFE        -0.0360
      9 O7         34.4180    5.8120    7.5640 O.3       1 AFE        -0.3396
     10 C21        34.3640    4.5580    6.9870 C.3       1 AFE         0.2066
     11 O8         33.9630    3.5480    7.8560 O.3       1 AFE        -0.2952
     12 C3         34.6500    3.4860    9.0650 C.2       1 AFE         0.1275
     13 C4         36.1250    3.3520    9.0960 C.2       1 AFE         0.0848
     14 O2         36.8650    3.3240    7.9550 O.3       1 AFE        -0.3671
     15 C2         33.9860    3.5180   10.2600 C.3       1 AFE         0.1600
     16 C11        32.5130    3.5710   10.4500 C.ar      1 AFE        -0.0093
     17 C12        31.6420    2.9720    9.4090 C.ar      1 AFE        -0.0642
     18 C13        30.2900    2.9570    9.6040 C.ar      1 AFE        -0.0395
     19 C14        29.7190    3.4950   10.8720 C.ar      1 AFE         0.0806
     20 O5         28.3600    3.4670   11.0730 O.3       1 AFE        -0.3375
     21 C15        30.5310    4.0010   11.8570 C.ar      1 AFE        -0.0395
     22 C16        32.0050    4.0160   11.6320 C.ar      1 AFE        -0.0642
     23 O1         34.6610    3.4200   11.4580 O.3       1 AFE        -0.2997
     24 C9         36.0220    3.2960   11.5420 C.ar      1 AFE         0.0826
     25 C8         36.6180    3.2140   12.8890 C.ar      1 AFE        -0.0219
     26 C7         37.9710    3.0860   13.0010 C.ar      1 AFE         0.0643
     27 O4         38.4770    3.0230   14.2630 O.3       1 AFE        -0.3426
     28 C6         38.8410    3.0460   11.7810 C.ar      1 AFE        -0.0226
     29 C5         38.2600    3.1330   10.5410 C.ar      1 AFE         0.0736
     30 C10        36.7830    3.2600   10.4190 C.ar      1 AFE         0.0340
     31 O3         39.0120    3.0890    9.4100 O.3       1 AFE        -0.3413
     32 H1         31.6284    5.8000    4.5194 H         1 AFE         0.2100
     33 H2         31.6073    4.3682    6.9612 H         1 AFE         0.0648
     34 H3         33.2862    3.5000    5.4871 H         1 AFE         0.0675
     35 H4         33.2939    5.2481    4.0553 H         1 AFE         0.2101
     36 H5         32.6240    7.1053    6.1272 H         1 AFE         0.0646
     37 H6         30.4039    6.9191    6.6177 H         1 AFE         0.2100
     38 H7         32.7895    5.5585    8.7437 H         1 AFE         0.0621
     39 H8         34.0480    7.5306    9.4958 H         1 AFE         0.0255
     40 H9         32.3654    7.9490    9.0265 H         1 AFE         0.0255
     41 H10        33.7277    8.3295    7.9192 H         1 AFE         0.0255
     42 H11        35.3728    4.3185    6.6195 H         1 AFE         0.0991
     43 H12        37.7842    3.2336    8.1772 H         1 AFE         0.2306
     44 H13        34.0522    4.6160   10.2584 H         1 AFE         0.0956
     45 H14        32.0722    2.5524    8.5068 H         1 AFE         0.0533
     46 H15        29.6346    2.5554    8.8396 H         1 AFE         0.0526
     47 H16        28.1587    3.8433   11.9218 H         1 AFE         0.2458
     48 H17        30.1088    4.3820   12.7799 H         1 AFE         0.0526
     49 H18        32.6698    4.3800   12.4070 H         1 AFE         0.0533
     50 H19        35.9921    3.2547   13.7731 H         1 AFE         0.0361
     51 H20        39.4220    2.9351   14.2201 H         1 AFE         0.2459
     52 H21        39.9164    2.9495   11.8772 H         1 AFE         0.0361
     53 H22        38.8807    3.8876    8.9125 H         1 AFE         0.2464
@<TRIPOS>BOND
     1    1    2 1  
     2    2    3 1  
     3    2    5 1  
     4    3    4 1  
     5    3   10 1  
     6    5    6 1  
     7    5    7 1  
     8    7    8 1  
     9    7    9 1  
    10    9   10 1  
    11   10   11 1  
    12   11   12 1  
    13   12   13 2  
    14   12   15 1  
    15   13   14 1  
    16   13   30 1  
    17   15   16 1  
    18   15   23 1  
    19   16   17 ar 
    20   16   22 ar 
    21   17   18 ar 
    22   18   19 ar 
    23   19   20 1  
    24   19   21 ar 
    25   21   22 ar 
    26   23   24 1  
    27   24   25 ar 
    28   24   30 ar 
    29   25   26 ar 
    30   26   27 1  
    31   26   28 ar 
    32   28   29 ar 
    33   29   30 ar 
    34   29   31 1  
    35    1   32 1  
    36    2   33 1  
    37    3   34 1  
    38    4   35 1  
    39    5   36 1  
    40    6   37 1  
    41    7   38 1  
    42    8   39 1  
    43    8   40 1  
    44    8   41 1  
    45   10   42 1  
    46   14   43 1  
    47   15   44 1  
    48   17   45 1  
    49   18   46 1  
    50   20   47 1  
    51   21   48 1  
    52   22   49 1  
    53   25   50 1  
    54   27   51 1  
    55   28   52 1  
    56   31   53 1  
@<TRIPOS>SUBSTRUCTURE
     1 AFE         1

