### 
### Created by X-TOOL on Mon Sep 10 21:13:16 2018
### 

@<TRIPOS>MOLECULE
4elb_ligand
   70    74     1     0     0
SMALL
GAST_HUCK


@<TRIPOS>ATOM
      1 O30        23.1210  -27.1500    0.0530 O.2       1 34S        -0.3891
      2 C16        22.5250  -27.9420   -0.6590 C.2       1 34S         0.2299
      3 N17        23.2520  -28.9450   -1.3600 N.am      1 34S        -0.2191
      4 N18        22.5960  -29.8290   -2.1530 N.4       1 34S         0.3773
      5 C19        23.3330  -30.6340   -3.0480 C.3       1 34S         0.0228
      6 C22        24.7290  -30.2780   -3.3260 C.ar      1 34S         0.0085
      7 C40        25.3710  -30.7560   -4.5200 C.ar      1 34S        -0.0613
      8 C38        26.6820  -30.4170   -4.7740 C.ar      1 34S        -0.0751
      9 C37        27.3700  -29.6250   -3.8910 C.ar      1 34S        -0.0750
     10 C23        26.7520  -29.1660   -2.7430 C.ar      1 34S        -0.0623
     11 C21        25.3870  -29.5190   -2.4790 C.ar      1 34S         0.0052
     12 C20        24.7010  -29.0200   -1.2250 C.3       1 34S         0.1463
     13 C24        25.0300  -29.8990   -0.0340 C.ar      1 34S        -0.0030
     14 C25        25.5980  -31.1470   -0.2310 C.ar      1 34S        -0.0562
     15 C26        25.8980  -31.9490    0.8620 C.ar      1 34S        -0.0682
     16 C27        25.6280  -31.5020    2.1490 C.ar      1 34S        -0.0686
     17 C28        25.0610  -30.2530    2.3450 C.ar      1 34S        -0.0682
     18 C29        24.7610  -29.4510    1.2530 C.ar      1 34S        -0.0562
     19 C15        21.0430  -27.8570   -0.7900 C.2       1 34S         0.0085
     20 C14        20.3980  -28.4640   -1.8330 C.2       1 34S        -0.0470
     21 C13        18.9630  -28.1500   -2.1030 C.ar      1 34S         0.0028
     22 C10        18.3280  -27.1370   -1.3930 C.ar      1 34S         0.1297
     23 O11        19.0250  -26.4250   -0.4400 O.3       1 34S        -0.3224
     24 C12        19.0070  -26.8560    0.8790 C.3       1 34S         0.0579
     25 C07        16.9930  -26.8430   -1.6430 C.ar      1 34S         0.1200
     26 O08        16.3660  -25.8400   -0.9410 O.3       1 34S        -0.3254
     27 C09        15.0790  -25.4750   -1.2890 C.3       1 34S         0.0568
     28 C06        16.2920  -27.5590   -2.6000 C.ar      1 34S        -0.0337
     29 C05        16.9230  -28.5730   -3.3100 C.ar      1 34S        -0.0488
     30 C04        16.1640  -29.3380   -4.3400 C.3       1 34S         0.0089
     31 C03        16.3590  -30.8030   -4.1420 C.ar      1 34S         0.0219
     32 C32        16.9280  -31.2980   -2.9680 C.ar      1 34S         0.0016
     33 N33        17.0870  -32.6240   -2.8290 N.ar      1 34S        -0.2822
     34 C34        16.7110  -33.4710   -3.7900 C.ar      1 34S         0.1638
     35 N35        16.8950  -34.8760   -3.6100 N.pl3     1 34S        -0.3098
     36 N36        16.1640  -33.0240   -4.9210 N.ar      1 34S        -0.2487
     37 C02        15.9740  -31.7080   -5.1300 C.ar      1 34S         0.1161
     38 N01        15.3920  -31.2560   -6.3360 N.pl3     1 34S        -0.3199
     39 C31        18.2580  -28.8660   -3.0620 C.ar      1 34S        -0.0653
     40 H1         21.9413  -29.2983   -2.7060 H         1 34S         0.2298
     41 H2         22.0920  -30.4534   -1.5430 H         1 34S         0.2298
     42 H3         22.7982  -30.6237   -4.0092 H         1 34S         0.0972
     43 H4         23.3340  -31.6555   -2.6399 H         1 34S         0.0972
     44 H5         24.8257  -31.3809   -5.2180 H         1 34S         0.0540
     45 H6         27.1700  -30.7767   -5.6726 H         1 34S         0.0543
     46 H7         28.4009  -29.3583   -4.0938 H         1 34S         0.0542
     47 H8         27.2970  -28.5414   -2.0445 H         1 34S         0.0542
     48 H9         25.0771  -28.0063   -1.0228 H         1 34S         0.0917
     49 H10        25.8076  -31.4964   -1.2355 H         1 34S         0.0561
     50 H11        26.3436  -32.9255    0.7106 H         1 34S         0.0600
     51 H12        25.8610  -32.1307    3.0007 H         1 34S         0.0560
     52 H13        24.8522  -29.9030    3.3495 H         1 34S         0.0600
     53 H14        24.3163  -28.4741    1.4045 H         1 34S         0.0561
     54 H15        20.4673  -27.3060   -0.0478 H         1 34S         0.0601
     55 H16        20.9296  -29.1742   -2.4646 H         1 34S         0.0728
     56 H17        19.6113  -26.1744    1.4957 H         1 34S         0.0576
     57 H18        19.4247  -27.8719    0.9386 H         1 34S         0.0576
     58 H19        17.9709  -26.8633    1.2483 H         1 34S         0.0576
     59 H20        14.7364  -24.6648   -0.6285 H         1 34S         0.0573
     60 H21        14.4105  -26.3421   -1.1827 H         1 34S         0.0573
     61 H22        15.0659  -25.1276   -2.3326 H         1 34S         0.0573
     62 H23        15.2510  -27.3280   -2.7948 H         1 34S         0.0488
     63 H24        16.5237  -29.0557   -5.3404 H         1 34S         0.0537
     64 H25        15.0937  -29.0993   -4.2543 H         1 34S         0.0537
     65 H26        17.2373  -30.6216   -2.1794 H         1 34S         0.0775
     66 H27        17.3164  -35.2330   -2.7406 H         1 34S         0.1804
     67 H28        16.6062  -35.5321   -4.3496 H         1 34S         0.1804
     68 H29        15.1117  -31.9344   -7.0585 H         1 34S         0.1790
     69 H30        15.2482  -30.2481   -6.4924 H         1 34S         0.1790
     70 H31        18.7507  -29.6553   -3.6182 H         1 34S         0.0466
@<TRIPOS>BOND
     1    1    2 2  
     2    2    3 am 
     3    2   19 1  
     4    3    4 1  
     5    3   12 1  
     6    4    5 1  
     7    5    6 1  
     8    6    7 ar 
     9    6   11 ar 
    10    7    8 ar 
    11    8    9 ar 
    12    9   10 ar 
    13   10   11 ar 
    14   11   12 1  
    15   12   13 1  
    16   13   14 ar 
    17   13   18 ar 
    18   14   15 ar 
    19   15   16 ar 
    20   16   17 ar 
    21   17   18 ar 
    22   19   20 2  
    23   20   21 1  
    24   21   22 ar 
    25   21   39 ar 
    26   22   23 1  
    27   22   25 ar 
    28   23   24 1  
    29   25   26 1  
    30   25   28 ar 
    31   26   27 1  
    32   28   29 ar 
    33   29   30 1  
    34   29   39 ar 
    35   30   31 1  
    36   31   32 ar 
    37   31   37 ar 
    38   32   33 ar 
    39   33   34 ar 
    40   34   35 1  
    41   34   36 ar 
    42   36   37 ar 
    43   37   38 1  
    44    4   40 1  
    45    4   41 1  
    46    5   42 1  
    47    5   43 1  
    48    7   44 1  
    49    8   45 1  
    50    9   46 1  
    51   10   47 1  
    52   12   48 1  
    53   14   49 1  
    54   15   50 1  
    55   16   51 1  
    56   17   52 1  
    57   18   53 1  
    58   19   54 1  
    59   20   55 1  
    60   24   56 1  
    61   24   57 1  
    62   24   58 1  
    63   27   59 1  
    64   27   60 1  
    65   27   61 1  
    66   28   62 1  
    67   30   63 1  
    68   30   64 1  
    69   32   65 1  
    70   35   66 1  
    71   35   67 1  
    72   38   68 1  
    73   38   69 1  
    74   39   70 1  
@<TRIPOS>SUBSTRUCTURE
     1 34S         1

