### 
### Created by X-TOOL on Mon Sep 10 21:13:14 2018
### 

@<TRIPOS>MOLECULE
4ele_ligand
   66    69     1     0     0
SMALL
GAST_HUCK


@<TRIPOS>ATOM
      1 O30        22.9780  -27.6870   -0.4530 O.2       1 31I        -0.3791
      2 C16        22.6950  -28.5550   -1.2900 C.2       1 31I         0.2361
      3 N17        23.7070  -29.6150   -1.6370 N.am      1 31I        -0.1415
      4 N18        23.4070  -30.5520   -2.5340 N.2       1 31I        -0.1834
      5 C19        24.3760  -31.2140   -3.1260 C.2       1 31I         0.0289
      6 C25        25.7670  -30.6270   -3.1670 C.ar      1 31I        -0.0121
      7 C26        26.7000  -30.8580   -4.2000 C.ar      1 31I        -0.0634
      8 C27        27.9760  -30.2620   -4.1450 C.ar      1 31I        -0.0710
      9 C28        28.3230  -29.4360   -3.0620 C.ar      1 31I        -0.0710
     10 C29        27.3930  -29.2030   -2.0260 C.ar      1 31I        -0.0591
     11 C24        26.1100  -29.7980   -2.0790 C.ar      1 31I        -0.0030
     12 C20        24.9980  -29.6240   -1.0020 C.3       1 31I         0.1201
     13 C11        25.0850  -30.7130    0.0430 C.3       1 31I        -0.0057
     14 C08        25.6640  -31.9500   -0.5800 C.3       1 31I        -0.0580
     15 C01        25.9840  -30.2630    1.1810 C.3       1 31I        -0.0580
     16 C15        21.3010  -28.5490   -1.9760 C.2       1 31I         0.0126
     17 C14        20.1410  -28.5840   -1.1940 C.2       1 31I        -0.0466
     18 C13        18.7700  -28.3040   -1.8070 C.ar      1 31I         0.0027
     19 C10        18.0050  -27.2550   -1.3120 C.ar      1 31I         0.1297
     20 O11        18.4880  -26.4850   -0.2920 O.3       1 31I        -0.3225
     21 C12        17.8700  -25.3120    0.0060 C.3       1 31I         0.0579
     22 C07        16.7430  -26.9830   -1.8570 C.ar      1 31I         0.1200
     23 O08        15.9790  -25.9250   -1.3560 O.3       1 31I        -0.3255
     24 C09        14.6550  -25.7590   -1.7760 C.3       1 31I         0.0568
     25 C06        16.2500  -27.7800   -2.9080 C.ar      1 31I        -0.0337
     26 C05        17.0120  -28.8360   -3.4020 C.ar      1 31I        -0.0489
     27 C04        16.4510  -29.6870   -4.5550 C.3       1 31I         0.0089
     28 C03        16.5010  -31.2050   -4.2600 C.ar      1 31I         0.0219
     29 C32        16.8520  -31.6600   -3.0330 C.ar      1 31I         0.0016
     30 N33        16.8920  -32.9930   -2.7900 N.ar      1 31I        -0.2822
     31 C34        16.5730  -33.8930   -3.7950 C.ar      1 31I         0.1638
     32 N35        16.6130  -35.3160   -3.5470 N.pl3     1 31I        -0.3098
     33 N36        16.2230  -33.4380   -5.0220 N.ar      1 31I        -0.2487
     34 C02        16.1800  -32.1210   -5.2690 C.ar      1 31I         0.1161
     35 N01        15.8090  -31.6820   -6.5590 N.pl3     1 31I        -0.3199
     36 C31        18.2750  -29.1030   -2.8580 C.ar      1 31I        -0.0654
     37 H1         24.1768  -32.1813   -3.5848 H         1 31I         0.0704
     38 H2         26.4352  -31.4944   -5.0366 H         1 31I         0.0578
     39 H3         28.6913  -30.4410   -4.9396 H         1 31I         0.0554
     40 H4         29.3047  -28.9780   -3.0224 H         1 31I         0.0577
     41 H5         27.6616  -28.5681   -1.1895 H         1 31I         0.0549
     42 H6         25.1459  -28.6557   -0.5015 H         1 31I         0.0823
     43 H7         24.0794  -30.9303    0.4322 H         1 31I         0.0347
     44 H8         25.7293  -32.7456    0.1769 H         1 31I         0.0235
     45 H9         26.6695  -31.7292   -0.9675 H         1 31I         0.0235
     46 H10        25.0175  -32.2817   -1.4058 H         1 31I         0.0235
     47 H11        25.5654  -29.3564    1.6424 H         1 31I         0.0235
     48 H12        26.9889  -30.0451    0.7903 H         1 31I         0.0235
     49 H13        26.0489  -31.0615    1.9348 H         1 31I         0.0235
     50 H14        21.2268  -28.5177   -3.0620 H         1 31I         0.0608
     51 H15        20.2168  -28.8143   -0.1323 H         1 31I         0.0726
     52 H16        18.3884  -24.8277    0.8466 H         1 31I         0.0576
     53 H17        16.8243  -25.5089    0.2846 H         1 31I         0.0576
     54 H18        17.8971  -24.6498   -0.8719 H         1 31I         0.0576
     55 H19        14.2196  -24.8804   -1.2775 H         1 31I         0.0573
     56 H20        14.0724  -26.6548   -1.5149 H         1 31I         0.0573
     57 H21        14.6318  -25.6112   -2.8658 H         1 31I         0.0573
     58 H22        15.2751  -27.5712   -3.3336 H         1 31I         0.0488
     59 H23        17.0422  -29.4854   -5.4604 H         1 31I         0.0537
     60 H24        15.4042  -29.3972   -4.7286 H         1 31I         0.0537
     61 H25        17.1009  -30.9579   -2.2455 H         1 31I         0.0775
     62 H26        16.8782  -35.6694   -2.6166 H         1 31I         0.1804
     63 H27        16.3763  -35.9770   -4.3007 H         1 31I         0.1804
     64 H28        15.5759  -32.3695   -7.2897 H         1 31I         0.1790
     65 H29        15.7715  -30.6744   -6.7691 H         1 31I         0.1790
     66 H30        18.8706  -29.9222   -3.2443 H         1 31I         0.0466
@<TRIPOS>BOND
     1    1    2 2  
     2    2    3 am 
     3    2   16 1  
     4    3    4 1  
     5    3   12 1  
     6    4    5 2  
     7    5    6 1  
     8    6    7 ar 
     9    6   11 ar 
    10    7    8 ar 
    11    8    9 ar 
    12    9   10 ar 
    13   10   11 ar 
    14   11   12 1  
    15   12   13 1  
    16   13   14 1  
    17   13   15 1  
    18   16   17 2  
    19   17   18 1  
    20   18   19 ar 
    21   18   36 ar 
    22   19   20 1  
    23   19   22 ar 
    24   20   21 1  
    25   22   23 1  
    26   22   25 ar 
    27   23   24 1  
    28   25   26 ar 
    29   26   27 1  
    30   26   36 ar 
    31   27   28 1  
    32   28   29 ar 
    33   28   34 ar 
    34   29   30 ar 
    35   30   31 ar 
    36   31   32 1  
    37   31   33 ar 
    38   33   34 ar 
    39   34   35 1  
    40    5   37 1  
    41    7   38 1  
    42    8   39 1  
    43    9   40 1  
    44   10   41 1  
    45   12   42 1  
    46   13   43 1  
    47   14   44 1  
    48   14   45 1  
    49   14   46 1  
    50   15   47 1  
    51   15   48 1  
    52   15   49 1  
    53   16   50 1  
    54   17   51 1  
    55   21   52 1  
    56   21   53 1  
    57   21   54 1  
    58   24   55 1  
    59   24   56 1  
    60   24   57 1  
    61   25   58 1  
    62   27   59 1  
    63   27   60 1  
    64   29   61 1  
    65   32   62 1  
    66   32   63 1  
    67   35   64 1  
    68   35   65 1  
    69   36   66 1  
@<TRIPOS>SUBSTRUCTURE
     1 31I         1

