### 
### Created by X-TOOL on Mon Sep 10 21:13:15 2018
### 

@<TRIPOS>MOLECULE
4elf_ligand
   69    72     1     0     0
SMALL
GAST_HUCK


@<TRIPOS>ATOM
      1 O01        23.2270  -28.2740   -0.6260 O.2       1 35I        -0.3894
      2 C02        22.8000  -29.0390   -1.4580 C.2       1 35I         0.2278
      3 N03        23.6710  -29.9550   -2.1110 N.am      1 35I        -0.2301
      4 N04        23.1480  -30.8060   -3.0350 N.4       1 35I         0.3758
      5 C05        24.0010  -31.4500   -3.9580 C.3       1 35I         0.0224
      6 C06        25.4080  -31.0170   -4.0250 C.ar      1 35I         0.0064
      7 C07        26.2050  -31.3270   -5.1930 C.ar      1 35I        -0.0617
      8 C08        27.5180  -30.9130   -5.2350 C.ar      1 35I        -0.0753
      9 C09        28.0680  -30.2150   -4.1760 C.ar      1 35I        -0.0754
     10 C10        27.2930  -29.9140   -3.0430 C.ar      1 35I        -0.0643
     11 C11        25.9420  -30.3360   -3.0020 C.ar      1 35I        -0.0061
     12 C12        25.0900  -30.0270   -1.7900 C.3       1 35I         0.1137
     13 C13        25.3430  -31.1450   -0.7670 C.3       1 35I        -0.0080
     14 C14        26.5700  -31.0400    0.1180 C.3       1 35I         0.0467
     15 C15        26.5410  -31.6420    1.5120 C.3       1 35I         0.3904
     16 F16        27.1340  -32.8450    1.4340 F         1 35I        -0.1708
     17 F17        25.2870  -31.7820    1.9770 F         1 35I        -0.1708
     18 F18        27.2200  -30.8160    2.3330 F         1 35I        -0.1708
     19 C19        21.3270  -29.0580   -1.8570 C.2       1 35I         0.0083
     20 C20        20.4530  -28.1010   -1.3570 C.2       1 35I        -0.0470
     21 C21        18.9760  -27.9780   -1.8170 C.ar      1 35I         0.0028
     22 C22        18.2080  -26.9800   -1.2680 C.ar      1 35I         0.1297
     23 O23        18.7400  -26.1270   -0.2900 O.3       1 35I        -0.3224
     24 C24        18.6430  -26.5200    1.0550 C.3       1 35I         0.0579
     25 C25        16.8680  -26.8180   -1.6520 C.ar      1 35I         0.1200
     26 O26        16.1070  -25.8160   -1.0810 O.3       1 35I        -0.3254
     27 C27        14.8780  -25.5130   -1.6230 C.3       1 35I         0.0568
     28 C28        16.3070  -27.6760   -2.6110 C.ar      1 35I        -0.0337
     29 C29        17.0570  -28.6930   -3.1770 C.ar      1 35I        -0.0488
     30 C30        16.3660  -29.6020   -4.2500 C.3       1 35I         0.0089
     31 C31        16.4370  -31.1080   -4.0120 C.ar      1 35I         0.0219
     32 C32        16.9020  -31.6640   -2.8120 C.ar      1 35I         0.0016
     33 N33        16.9430  -33.0140   -2.6760 N.ar      1 35I        -0.2822
     34 C34        16.5340  -33.8430   -3.6800 C.ar      1 35I         0.1638
     35 N35        16.6010  -35.2510   -3.5030 N.pl3     1 35I        -0.3098
     36 N36        16.0860  -33.3350   -4.8470 N.ar      1 35I        -0.2487
     37 C37        16.0140  -32.0020   -5.0410 C.ar      1 35I         0.1161
     38 N38        15.5150  -31.4860   -6.2820 N.pl3     1 35I        -0.3199
     39 C39        18.4160  -28.8420   -2.7860 C.ar      1 35I        -0.0653
     40 H1         22.4806  -30.2770   -3.5743 H         1 35I         0.2296
     41 H2         22.6686  -31.5315   -2.5253 H         1 35I         0.2296
     42 H3         23.5674  -31.3057   -4.9585 H         1 35I         0.0971
     43 H4         24.0010  -32.5215   -3.7094 H         1 35I         0.0971
     44 H5         25.7748  -31.8768   -6.0223 H         1 35I         0.0539
     45 H6         28.1247  -31.1362   -6.1051 H         1 35I         0.0541
     46 H7         29.1036  -29.8979   -4.2199 H         1 35I         0.0541
     47 H8         27.7233  -29.3665   -2.2122 H         1 35I         0.0538
     48 H9         25.4022  -29.0610   -1.3664 H         1 35I         0.0756
     49 H10        25.4244  -32.0880   -1.3274 H         1 35I         0.0312
     50 H11        24.4656  -31.1864   -0.1049 H         1 35I         0.0312
     51 H12        26.7878  -29.9684    0.2369 H         1 35I         0.0354
     52 H13        27.3966  -31.5245   -0.4224 H         1 35I         0.0354
     53 H14        20.9594  -29.8253   -2.5368 H         1 35I         0.0601
     54 H15        20.8220  -27.4037   -0.6063 H         1 35I         0.0728
     55 H16        19.1020  -25.7523    1.6953 H         1 35I         0.0576
     56 H17        19.1673  -27.4766    1.1962 H         1 35I         0.0576
     57 H18        17.5838  -26.6388    1.3269 H         1 35I         0.0576
     58 H19        14.4144  -24.6982   -1.0476 H         1 35I         0.0573
     59 H20        14.2315  -26.4022   -1.5857 H         1 35I         0.0573
     60 H21        15.0063  -25.1965   -2.6686 H         1 35I         0.0573
     61 H22        15.2744  -27.5408   -2.9120 H         1 35I         0.0488
     62 H23        16.8405  -29.3940   -5.2203 H         1 35I         0.0537
     63 H24        15.3037  -29.3199   -4.2933 H         1 35I         0.0537
     64 H25        17.2257  -31.0221   -2.0006 H         1 35I         0.0775
     65 H26        16.9424  -35.6426   -2.6136 H         1 35I         0.1804
     66 H27        16.3082  -35.8802   -4.2641 H         1 35I         0.1804
     67 H28        15.2102  -32.1328   -7.0234 H         1 35I         0.1790
     68 H29        15.4613  -30.4684   -6.4322 H         1 35I         0.1790
     69 H30        19.0245  -29.6203   -3.2322 H         1 35I         0.0466
@<TRIPOS>BOND
     1    1    2 2  
     2    2    3 am 
     3    2   19 1  
     4    3    4 1  
     5    3   12 1  
     6    4    5 1  
     7    5    6 1  
     8    6    7 ar 
     9    6   11 ar 
    10    7    8 ar 
    11    8    9 ar 
    12    9   10 ar 
    13   10   11 ar 
    14   11   12 1  
    15   12   13 1  
    16   13   14 1  
    17   14   15 1  
    18   15   16 1  
    19   15   17 1  
    20   15   18 1  
    21   19   20 2  
    22   20   21 1  
    23   21   22 ar 
    24   21   39 ar 
    25   22   23 1  
    26   22   25 ar 
    27   23   24 1  
    28   25   26 1  
    29   25   28 ar 
    30   26   27 1  
    31   28   29 ar 
    32   29   30 1  
    33   29   39 ar 
    34   30   31 1  
    35   31   32 ar 
    36   31   37 ar 
    37   32   33 ar 
    38   33   34 ar 
    39   34   35 1  
    40   34   36 ar 
    41   36   37 ar 
    42   37   38 1  
    43    4   40 1  
    44    4   41 1  
    45    5   42 1  
    46    5   43 1  
    47    7   44 1  
    48    8   45 1  
    49    9   46 1  
    50   10   47 1  
    51   12   48 1  
    52   13   49 1  
    53   13   50 1  
    54   14   51 1  
    55   14   52 1  
    56   19   53 1  
    57   20   54 1  
    58   24   55 1  
    59   24   56 1  
    60   24   57 1  
    61   27   58 1  
    62   27   59 1  
    63   27   60 1  
    64   28   61 1  
    65   30   62 1  
    66   30   63 1  
    67   32   64 1  
    68   35   65 1  
    69   35   66 1  
    70   38   67 1  
    71   38   68 1  
    72   39   69 1  
@<TRIPOS>SUBSTRUCTURE
     1 35I         1

