### 
### Created by X-TOOL on Mon Sep 10 21:13:14 2018
### 

@<TRIPOS>MOLECULE
4elg_ligand
   72    75     1     0     0
SMALL
GAST_HUCK


@<TRIPOS>ATOM
      1 N01        15.2950  -31.4430   -6.4220 N.pl3     1 52J        -0.3199
      2 C02        15.7020  -31.9100   -5.0520 C.ar      1 52J         0.1161
      3 C03        15.9830  -30.9750   -4.0540 C.ar      1 52J         0.0219
      4 C04        15.8760  -29.5210   -4.3530 C.3       1 52J         0.0089
      5 C05        16.5530  -28.6570   -3.2320 C.ar      1 52J        -0.0488
      6 C06        15.8450  -27.5350   -2.6840 C.ar      1 52J        -0.0337
      7 C07        16.4330  -26.7480   -1.6850 C.ar      1 52J         0.1200
      8 O08        15.7490  -25.6850   -1.1690 O.3       1 52J        -0.3254
      9 C09        14.3230  -25.6180   -1.3360 C.3       1 52J         0.0568
     10 C10        17.7190  -27.0530   -1.2170 C.ar      1 52J         0.1297
     11 O11        18.2970  -26.2730   -0.2290 O.3       1 52J        -0.3224
     12 C12        18.4240  -26.7910    1.0960 C.3       1 52J         0.0579
     13 C13        18.4210  -28.1520   -1.7530 C.ar      1 52J         0.0028
     14 O30        22.6790  -28.1570   -0.8110 O.2       1 52J        -0.3894
     15 C31        17.8140  -28.9600   -2.7800 C.ar      1 52J        -0.0653
     16 C32        16.3700  -31.4550   -2.7470 C.ar      1 52J         0.0016
     17 N33        16.4490  -32.8000   -2.5370 N.ar      1 52J        -0.2822
     18 C34        16.1700  -33.6630   -3.5300 C.ar      1 52J         0.1638
     19 N35        16.2620  -35.0790   -3.2800 N.pl3     1 52J        -0.3098
     20 N36        15.7970  -33.2330   -4.7880 N.ar      1 52J        -0.2487
     21 C14        19.8500  -28.4900   -1.2310 C.2       1 52J        -0.0470
     22 C15        20.8800  -28.8180   -2.1310 C.2       1 52J         0.0083
     23 C16        22.2880  -28.9090   -1.6470 C.2       1 52J         0.2278
     24 N17        23.1740  -29.8990   -2.1840 N.am      1 52J        -0.2301
     25 N18        22.7540  -30.7600   -3.1300 N.4       1 52J         0.3758
     26 C19        23.5440  -30.7190   -4.3280 C.3       1 52J         0.0224
     27 C20        24.5240  -29.9840   -1.7210 C.3       1 52J         0.1136
     28 C21        24.6470  -31.1550   -0.7480 C.3       1 52J        -0.0138
     29 C22        25.9790  -31.2800    0.0740 C.3       1 52J        -0.0428
     30 C23        26.0720  -30.3060    1.2180 C.3       1 52J        -0.0625
     31 C24        25.4770  -30.1780   -2.8510 C.ar      1 52J        -0.0061
     32 C25        25.0010  -30.5310   -4.0970 C.ar      1 52J         0.0064
     33 C26        25.9030  -30.7170   -5.1780 C.ar      1 52J        -0.0617
     34 C27        27.2890  -30.5420   -4.9800 C.ar      1 52J        -0.0753
     35 C28        27.7630  -30.1920   -3.7400 C.ar      1 52J        -0.0754
     36 C29        26.8500  -30.0050   -2.6510 C.ar      1 52J        -0.0643
     37 C37        26.3490  -32.7890    0.4760 C.3       1 52J        -0.0625
     38 H1         15.0872  -32.1309   -7.1599 H         1 52J         0.1790
     39 H2         15.2240  -30.4352   -6.6226 H         1 52J         0.1790
     40 H3         14.8130  -29.2470   -4.4236 H         1 52J         0.0537
     41 H4         16.3723  -29.3151   -5.3128 H         1 52J         0.0537
     42 H5         14.8512  -27.2955   -3.0446 H         1 52J         0.0488
     43 H6         13.9409  -24.7021   -0.8615 H         1 52J         0.0573
     44 H7         13.8570  -26.4964   -0.8656 H         1 52J         0.0573
     45 H8         14.0797  -25.6041   -2.4086 H         1 52J         0.0573
     46 H9         18.9021  -26.0380    1.7398 H         1 52J         0.0576
     47 H10        19.0410  -27.7014    1.0762 H         1 52J         0.0576
     48 H11        17.4268  -27.0324    1.4925 H         1 52J         0.0576
     49 H12        18.3514  -29.8051   -3.1949 H         1 52J         0.0466
     50 H13        16.5936  -30.7580   -1.9475 H         1 52J         0.0775
     51 H14        16.5385  -35.4206   -2.3485 H         1 52J         0.1804
     52 H15        16.0513  -35.7496   -4.0328 H         1 52J         0.1804
     53 H16        20.0527  -28.4721   -0.1612 H         1 52J         0.0728
     54 H17        20.6500  -29.0051   -3.1789 H         1 52J         0.0601
     55 H18        21.8009  -30.5339   -3.3677 H         1 52J         0.2296
     56 H19        22.7937  -31.6939   -2.7527 H         1 52J         0.2296
     57 H20        23.1839  -29.8857   -4.9492 H         1 52J         0.0971
     58 H21        23.4007  -31.6670   -4.8672 H         1 52J         0.0971
     59 H22        24.7795  -29.0503   -1.1987 H         1 52J         0.0756
     60 H23        24.5319  -32.0807   -1.3308 H         1 52J         0.0312
     61 H24        23.8214  -31.0712   -0.0260 H         1 52J         0.0312
     62 H25        26.7717  -30.9722   -0.6238 H         1 52J         0.0298
     63 H26        27.0261  -30.4506    1.7460 H         1 52J         0.0232
     64 H27        25.2380  -30.4776    1.9144 H         1 52J         0.0232
     65 H28        26.0200  -29.2782    0.8297 H         1 52J         0.0232
     66 H29        25.5264  -30.9937   -6.1561 H         1 52J         0.0539
     67 H30        27.9779  -30.6836   -5.8049 H         1 52J         0.0541
     68 H31        28.8273  -30.0571   -3.5846 H         1 52J         0.0541
     69 H32        27.2242  -29.7293   -1.6717 H         1 52J         0.0538
     70 H33        26.2580  -33.4368   -0.4083 H         1 52J         0.0232
     71 H34        25.6607  -33.1391    1.2594 H         1 52J         0.0232
     72 H35        27.3819  -32.8254    0.8524 H         1 52J         0.0232
@<TRIPOS>BOND
     1    2    1 1  
     2    3    2 ar 
     3    2   20 ar 
     4    4    3 1  
     5    3   16 ar 
     6    5    4 1  
     7    5    6 ar 
     8   15    5 ar 
     9    7    6 ar 
    10    7    8 1  
    11   10    7 ar 
    12    8    9 1  
    13   10   11 1  
    14   13   10 ar 
    15   11   12 1  
    16   13   15 ar 
    17   21   13 1  
    18   23   14 2  
    19   16   17 ar 
    20   17   18 ar 
    21   18   19 1  
    22   20   18 ar 
    23   22   21 2  
    24   22   23 1  
    25   23   24 am 
    26   24   25 1  
    27   24   27 1  
    28   25   26 1  
    29   26   32 1  
    30   27   28 1  
    31   27   31 1  
    32   28   29 1  
    33   29   30 1  
    34   29   37 1  
    35   31   32 ar 
    36   31   36 ar 
    37   32   33 ar 
    38   33   34 ar 
    39   34   35 ar 
    40   35   36 ar 
    41    1   38 1  
    42    1   39 1  
    43    4   40 1  
    44    4   41 1  
    45    6   42 1  
    46    9   43 1  
    47    9   44 1  
    48    9   45 1  
    49   12   46 1  
    50   12   47 1  
    51   12   48 1  
    52   15   49 1  
    53   16   50 1  
    54   19   51 1  
    55   19   52 1  
    56   21   53 1  
    57   22   54 1  
    58   25   55 1  
    59   25   56 1  
    60   26   57 1  
    61   26   58 1  
    62   27   59 1  
    63   28   60 1  
    64   28   61 1  
    65   29   62 1  
    66   30   63 1  
    67   30   64 1  
    68   30   65 1  
    69   33   66 1  
    70   34   67 1  
    71   35   68 1  
    72   36   69 1  
    73   37   70 1  
    74   37   71 1  
    75   37   72 1  
@<TRIPOS>SUBSTRUCTURE
     1 52J         1

