### 
### Created by X-TOOL on Mon Sep 10 21:13:14 2018
### 

@<TRIPOS>MOLECULE
4elh_ligand
   72    75     1     0     0
SMALL
GAST_HUCK


@<TRIPOS>ATOM
      1 O30        21.7780  -26.2860    0.7110 O.2       1 53I        -0.3894
      2 C16        21.5530  -26.9550   -0.3260 C.2       1 53I         0.2278
      3 N17        22.5600  -27.9280   -0.7920 N.am      1 53I        -0.2301
      4 N18        22.3380  -28.6820   -1.9090 N.4       1 53I         0.3758
      5 C19        23.3590  -29.5490   -2.3760 C.3       1 53I         0.0224
      6 C25        24.3170  -30.0680   -1.3890 C.ar      1 53I         0.0064
      7 C26        25.0190  -31.3040   -1.6220 C.ar      1 53I        -0.0617
      8 C27        25.9290  -31.7920   -0.6500 C.ar      1 53I        -0.0753
      9 C28        26.1490  -31.0900    0.5150 C.ar      1 53I        -0.0754
     10 C29        25.4670  -29.8950    0.7440 C.ar      1 53I        -0.0643
     11 C24        24.5270  -29.3880   -0.2610 C.ar      1 53I        -0.0061
     12 C20        23.7850  -28.0870   -0.0010 C.3       1 53I         0.1136
     13 C21        24.7550  -26.9260   -0.1140 C.3       1 53I        -0.0138
     14 C22        24.7470  -25.9260   -1.0460 C.3       1 53I        -0.0428
     15 C23        24.6210  -24.4680   -0.6000 C.3       1 53I        -0.0625
     16 C37        25.5550  -26.1650   -2.3260 C.3       1 53I        -0.0625
     17 C15        20.2190  -26.7350   -1.0880 C.2       1 53I         0.0083
     18 C14        19.5120  -27.8360   -1.5070 C.2       1 53I        -0.0470
     19 C13        18.0880  -27.7500   -1.9420 C.ar      1 53I         0.0028
     20 C10        17.2030  -26.7650   -1.4690 C.ar      1 53I         0.1297
     21 O11        17.6330  -25.7980   -0.5310 O.3       1 53I        -0.3224
     22 C12        17.2350  -24.4800   -0.6250 C.3       1 53I         0.0579
     23 C07        15.8850  -26.7550   -1.9170 C.ar      1 53I         0.1200
     24 O08        14.9590  -25.7930   -1.4710 O.3       1 53I        -0.3254
     25 C09        13.6120  -25.8290   -1.9380 C.3       1 53I         0.0568
     26 C06        15.4490  -27.7420   -2.8530 C.ar      1 53I        -0.0337
     27 C05        16.3320  -28.7280   -3.3200 C.ar      1 53I        -0.0488
     28 C04        15.8280  -29.7440   -4.3180 C.3       1 53I         0.0089
     29 C03        16.0930  -31.2070   -4.0490 C.ar      1 53I         0.0219
     30 C32        16.5600  -31.7680   -2.8320 C.ar      1 53I         0.0016
     31 N33        16.7380  -33.1480   -2.7640 N.ar      1 53I        -0.2822
     32 C34        16.4650  -33.9390   -3.8140 C.ar      1 53I         0.1638
     33 N35        16.6500  -35.3570   -3.7720 N.pl3     1 53I        -0.3098
     34 N36        16.0290  -33.4120   -4.9770 N.ar      1 53I        -0.2487
     35 C02        15.8310  -32.0740   -5.1140 C.ar      1 53I         0.1161
     36 N01        15.3520  -31.5480   -6.3540 N.pl3     1 53I        -0.3199
     37 C31        17.6400  -28.7370   -2.8830 C.ar      1 53I        -0.0653
     38 H1         22.1301  -28.0418   -2.6593 H         1 53I         0.2296
     39 H2         21.5295  -29.2541   -1.7216 H         1 53I         0.2296
     40 H3         23.9346  -29.0000   -3.1358 H         1 53I         0.0971
     41 H4         22.8670  -30.4147   -2.8434 H         1 53I         0.0971
     42 H5         24.8522  -31.8596   -2.5377 H         1 53I         0.0539
     43 H6         26.4550  -32.7236   -0.8247 H         1 53I         0.0541
     44 H7         26.8502  -31.4654    1.2516 H         1 53I         0.0541
     45 H8         25.6313  -29.3427    1.6622 H         1 53I         0.0538
     46 H9         23.4566  -28.1184    1.0484 H         1 53I         0.0756
     47 H10        25.7451  -27.3949   -0.2127 H         1 53I         0.0312
     48 H11        24.6891  -26.4087    0.8545 H         1 53I         0.0312
     49 H12        23.7310  -26.0730   -1.4411 H         1 53I         0.0298
     50 H13        24.6330  -23.8121   -1.4830 H         1 53I         0.0232
     51 H14        25.4641  -24.2118    0.0584 H         1 53I         0.0232
     52 H15        23.6754  -24.3317   -0.0549 H         1 53I         0.0232
     53 H16        25.5786  -27.2419   -2.5490 H         1 53I         0.0232
     54 H17        26.5821  -25.7971   -2.1854 H         1 53I         0.0232
     55 H18        25.0843  -25.6277   -3.1625 H         1 53I         0.0232
     56 H19        19.8512  -25.7294   -1.2863 H         1 53I         0.0601
     57 H20        20.0086  -28.8051   -1.5220 H         1 53I         0.0728
     58 H21        17.6807  -23.9028    0.1985 H         1 53I         0.0576
     59 H22        16.1384  -24.4227   -0.5614 H         1 53I         0.0576
     60 H23        17.5688  -24.0639   -1.5870 H         1 53I         0.0576
     61 H24        13.0438  -25.0046   -1.4824 H         1 53I         0.0573
     62 H25        13.1527  -26.7888   -1.6592 H         1 53I         0.0573
     63 H26        13.6004  -25.7212   -3.0326 H         1 53I         0.0573
     64 H27        14.4244  -27.7294   -3.2067 H         1 53I         0.0488
     65 H28        16.2876  -29.5031   -5.2879 H         1 53I         0.0537
     66 H29        14.7374  -29.6184   -4.3877 H         1 53I         0.0537
     67 H30        16.7731  -31.1380   -1.9760 H         1 53I         0.0775
     68 H31        16.9813  -35.8077   -2.9072 H         1 53I         0.1804
     69 H32        16.4519  -35.9272   -4.6066 H         1 53I         0.1804
     70 H33        15.1574  -32.1825   -7.1417 H         1 53I         0.1790
     71 H34        15.2014  -30.5346   -6.4597 H         1 53I         0.1790
     72 H35        18.3293  -29.4889   -3.2499 H         1 53I         0.0466
@<TRIPOS>BOND
     1    1    2 2  
     2    2    3 am 
     3    2   17 1  
     4    3    4 1  
     5    3   12 1  
     6    4    5 1  
     7    5    6 1  
     8    6    7 ar 
     9    6   11 ar 
    10    7    8 ar 
    11    8    9 ar 
    12    9   10 ar 
    13   10   11 ar 
    14   11   12 1  
    15   12   13 1  
    16   13   14 1  
    17   14   15 1  
    18   14   16 1  
    19   17   18 2  
    20   18   19 1  
    21   19   20 ar 
    22   19   37 ar 
    23   20   21 1  
    24   20   23 ar 
    25   21   22 1  
    26   23   24 1  
    27   23   26 ar 
    28   24   25 1  
    29   26   27 ar 
    30   27   28 1  
    31   27   37 ar 
    32   28   29 1  
    33   29   30 ar 
    34   29   35 ar 
    35   30   31 ar 
    36   31   32 ar 
    37   32   33 1  
    38   32   34 ar 
    39   34   35 ar 
    40   35   36 1  
    41    4   38 1  
    42    4   39 1  
    43    5   40 1  
    44    5   41 1  
    45    7   42 1  
    46    8   43 1  
    47    9   44 1  
    48   10   45 1  
    49   12   46 1  
    50   13   47 1  
    51   13   48 1  
    52   14   49 1  
    53   15   50 1  
    54   15   51 1  
    55   15   52 1  
    56   16   53 1  
    57   16   54 1  
    58   16   55 1  
    59   17   56 1  
    60   18   57 1  
    61   22   58 1  
    62   22   59 1  
    63   22   60 1  
    64   25   61 1  
    65   25   62 1  
    66   25   63 1  
    67   26   64 1  
    68   28   65 1  
    69   28   66 1  
    70   30   67 1  
    71   33   68 1  
    72   33   69 1  
    73   36   70 1  
    74   36   71 1  
    75   37   72 1  
@<TRIPOS>SUBSTRUCTURE
     1 53I         1

