### 
### Created by X-TOOL on Mon Sep 10 21:13:09 2018
### 

@<TRIPOS>MOLECULE
4em7_ligand
   31    33     1     0     0
SMALL
GAST_HUCK


@<TRIPOS>ATOM
      1 C1         12.1830   27.0230    8.3150 C.ar      1 0RA        -0.0596
      2 C2         11.6610   27.6750    9.4080 C.ar      1 0RA        -0.0527
      3 C3         11.9550   29.0040    9.6230 C.ar      1 0RA        -0.0192
      4 C4         12.7720   29.6770    8.7380 C.ar      1 0RA        -0.0453
      5 C5         13.3050   29.0350    7.6380 C.ar      1 0RA        -0.0166
      6 C6         12.9980   27.7050    7.4400 C.ar      1 0RA        -0.0534
      7 C7         14.1520   29.7240    6.6900 C.ar      1 0RA        -0.0062
      8 C8         15.1430   29.0550    6.0000 C.ar      1 0RA        -0.0477
      9 C9         15.8770   29.8020    5.0930 C.ar      1 0RA         0.0002
     10 C10        16.9480   29.5280    4.2050 C.2       1 0RA        -0.0555
     11 C11        17.2660   30.6980    3.5480 C.2       1 0RA         0.0274
     12 N1         16.4250   31.6680    4.0070 N.pl3     1 0RA        -0.2650
     13 C12        15.5810   31.1410    4.9430 C.ar      1 0RA         0.1361
     14 N2         14.6440   31.8290    5.5890 N.ar      1 0RA        -0.2846
     15 C13        13.9620   31.0650    6.4450 C.ar      1 0RA         0.0028
     16 C14        11.3960   29.6880   10.7810 C.2       1 0RA        -0.0455
     17 C15        10.0870   29.5430   11.0140 C.2       1 0RA        -0.0276
     18 C16         9.6050   30.2860   12.2350 C.2       1 0RA         0.0524
     19 O1          9.9430   31.4990   12.3150 O.co2     1 0RA        -0.5634
     20 O2          8.9040   29.5960   13.0250 O.co2     1 0RA        -0.5634
     21 H1         11.9537   25.9775    8.1436 H         1 0RA         0.0620
     22 H2         11.0183   27.1433   10.1003 H         1 0RA         0.0633
     23 H3         12.9983   30.7233    8.9085 H         1 0RA         0.0639
     24 H4         13.4060   27.1872    6.5795 H         1 0RA         0.0631
     25 H5         15.3367   28.0004    6.1595 H         1 0RA         0.0675
     26 H6         17.4339   28.5633    4.0663 H         1 0RA         0.0305
     27 H7         18.0465   30.8242    2.7991 H         1 0RA         0.0964
     28 H8         16.4259   32.6497    3.6952 H         1 0RA         0.2310
     29 H9         13.1742   31.5529    7.0074 H         1 0RA         0.0757
     30 H10        12.0213   30.2956   11.4336 H         1 0RA         0.0697
     31 H11         9.4315   28.9454   10.3823 H         1 0RA         0.0637
@<TRIPOS>BOND
     1    1    2 ar 
     2    1    6 ar 
     3    2    3 ar 
     4    3    4 ar 
     5    3   16 1  
     6    4    5 ar 
     7    5    6 ar 
     8    5    7 1  
     9    7    8 ar 
    10    7   15 ar 
    11    8    9 ar 
    12    9   10 1  
    13    9   13 ar 
    14   10   11 2  
    15   11   12 1  
    16   12   13 1  
    17   13   14 ar 
    18   14   15 ar 
    19   16   17 2  
    20   17   18 1  
    21   18   19 ar 
    22   18   20 ar 
    23    1   21 1  
    24    2   22 1  
    25    4   23 1  
    26    6   24 1  
    27    8   25 1  
    28   10   26 1  
    29   11   27 1  
    30   12   28 1  
    31   15   29 1  
    32   16   30 1  
    33   17   31 1  
@<TRIPOS>SUBSTRUCTURE
     1 0RA         1

