### 
### Created by X-TOOL on Mon Sep 10 21:13:10 2018
### 

@<TRIPOS>MOLECULE
4emv_ligand
   46    49     1     0     0
SMALL
GAST_HUCK


@<TRIPOS>ATOM
      1 C1         19.3020   34.4080    1.7060 C.3       1 0R9        -0.0450
      2 C2         19.1460   32.9100    1.7140 C.3       1 0R9         0.0274
      3 N3         18.0210   32.5050    2.5230 N.am      1 0R9        -0.2850
      4 C4         18.1310   31.3880    3.3110 C.2       1 0R9         0.2285
      5 O5         19.1160   30.6600    3.3010 O.2       1 0R9        -0.3834
      6 C6         17.0040   31.1430    4.1680 C.2       1 0R9         0.1373
      7 C7         16.7720   30.0420    4.9680 C.2       1 0R9        -0.0278
      8 C8         15.5430   30.2160    5.6570 C.ar      1 0R9         0.0563
      9 C9         14.7890   29.4870    6.5670 C.ar      1 0R9         0.1540
     10 C10        13.5940   30.0230    7.0240 C.ar      1 0R9         0.0480
     11 C11        13.2400   31.2540    6.5240 C.ar      1 0R9         0.0059
     12 N12        13.9170   32.0040    5.6490 N.ar      1 0R9        -0.2867
     13 C13        15.0540   31.4390    5.2500 C.ar      1 0R9         0.1400
     14 N14        15.9390   31.9860    4.3590 N.pl3     1 0R9        -0.2535
     15 C15        12.6860   29.3700    7.9540 C.ar      1 0R9         0.0140
     16 C16        12.0730   30.0370    9.0020 C.ar      1 0R9        -0.0230
     17 C17        11.1950   29.3530    9.8230 C.ar      1 0R9         0.0364
     18 C18        10.9700   28.0210    9.5560 C.ar      1 0R9         0.0235
     19 N19        11.5330   27.3320    8.5620 N.ar      1 0R9        -0.2943
     20 C20        12.3670   28.0370    7.7900 C.ar      1 0R9         0.0191
     21 C21        10.4890   29.9760   10.9660 C.2       1 0R9         0.0699
     22 O22        10.6020   31.2200   11.1350 O.co2     1 0R9        -0.5588
     23 O23         9.8040   29.1960   11.6870 O.co2     1 0R9        -0.5588
     24 N24        15.2480   28.2520    7.0210 N.pl3     1 0R9        -0.1204
     25 C25        15.5640   27.1720    6.2460 C.2       1 0R9         0.0909
     26 C26        15.8980   26.1700    7.1260 C.2       1 0R9        -0.0219
     27 C27        15.7540   26.7510    8.4080 C.2       1 0R9         0.1163
     28 N28        15.3580   28.0230    8.3400 N.2       1 0R9        -0.1371
     29 C29        15.9800   26.1310    9.7180 C.3       1 0R9         0.3827
     30 F30        16.3130   24.8190    9.5880 F         1 0R9        -0.2213
     31 F31        16.9730   26.7430   10.4120 F         1 0R9        -0.2213
     32 F32        14.8670   26.1980   10.4970 F         1 0R9        -0.2213
     33 H1         20.1654   34.6834    1.0826 H         1 0R9         0.0249
     34 H2         19.4631   34.7654    2.7338 H         1 0R9         0.0249
     35 H3         18.3916   34.8693    1.2958 H         1 0R9         0.0249
     36 H4         20.0618   32.4563    2.1208 H         1 0R9         0.0516
     37 H5         18.9903   32.5602    0.6828 H         1 0R9         0.0516
     38 H6         17.1717   33.0327    2.5090 H         1 0R9         0.1842
     39 H7         17.4278   29.1771    5.0565 H         1 0R9         0.0426
     40 H8         12.3023   31.6641    6.8812 H         1 0R9         0.0771
     41 H9         15.8215   32.8997    3.8983 H         1 0R9         0.2302
     42 H10        12.2798   31.0866    9.1772 H         1 0R9         0.0761
     43 H11        10.2816   27.4908   10.2042 H         1 0R9         0.0841
     44 H12        12.8338   27.5155    6.9622 H         1 0R9         0.0836
     45 H13        15.5535   27.1165    5.1585 H         1 0R9         0.1071
     46 H14        16.2058   25.1527    6.8885 H         1 0R9         0.0463
@<TRIPOS>BOND
     1    1    2 1  
     2    2    3 1  
     3    3    4 am 
     4    4    5 2  
     5    4    6 1  
     6    6    7 2  
     7    6   14 1  
     8    7    8 1  
     9    8    9 ar 
    10    8   13 ar 
    11    9   10 ar 
    12    9   24 1  
    13   10   11 ar 
    14   10   15 1  
    15   11   12 ar 
    16   12   13 ar 
    17   13   14 1  
    18   15   16 ar 
    19   15   20 ar 
    20   16   17 ar 
    21   17   18 ar 
    22   17   21 1  
    23   18   19 ar 
    24   19   20 ar 
    25   21   22 ar 
    26   21   23 ar 
    27   24   25 1  
    28   24   28 1  
    29   25   26 2  
    30   26   27 1  
    31   27   28 2  
    32   27   29 1  
    33   29   30 1  
    34   29   31 1  
    35   29   32 1  
    36    1   33 1  
    37    1   34 1  
    38    1   35 1  
    39    2   36 1  
    40    2   37 1  
    41    3   38 1  
    42    7   39 1  
    43   11   40 1  
    44   14   41 1  
    45   16   42 1  
    46   18   43 1  
    47   20   44 1  
    48   25   45 1  
    49   26   46 1  
@<TRIPOS>SUBSTRUCTURE
     1 0R9         1

