### 
### Created by X-TOOL on Mon Sep 10 21:13:11 2018
### 

@<TRIPOS>MOLECULE
4en4_ligand
   26    26     1     0     0
SMALL
GAST_HUCK


@<TRIPOS>ATOM
      1 C8         28.7310    8.1240   39.5880 C.ar      1 GT0        -0.0134
      2 N1         29.6260    8.8260   38.7490 N.ar      1 GT0        -0.3257
      3 C7         30.5670    8.1510   37.9620 C.ar      1 GT0         0.0389
      4 C4         30.6380    6.7330   38.0080 C.ar      1 GT0         0.1139
      5 C6         29.7430    6.0070   38.8580 C.ar      1 GT0         0.0286
      6 C2         28.7760    6.7140   39.6590 C.ar      1 GT0        -0.0021
      7 C1         29.8430    4.4610   38.9000 C.3       1 GT0         0.0823
      8 O3         30.3720    4.0110   40.1770 O.3       1 GT0        -0.3718
      9 C3         31.7940    4.2420   40.2820 C.3       1 GT0         0.0389
     10 C5         27.7890    5.9660   40.5820 C.3       1 GT0         0.0762
     11 O2         26.9230    6.8900   41.2710 O.3       1 GT0        -0.3837
     12 C9         31.4980    8.9620   37.0800 C.3       1 GT0        -0.0224
     13 O1         31.5700    6.0480   37.2300 O.3       1 GT0        -0.3348
     14 H1         28.0061    8.6707   40.1802 H         1 GT0         0.0621
     15 H2         30.5097    4.1210   38.0939 H         1 GT0         0.0708
     16 H3         28.8412    4.0310   38.7533 H         1 GT0         0.0708
     17 H4         32.1517    3.8881   41.2602 H         1 GT0         0.0526
     18 H5         31.9989    5.3183   40.1842 H         1 GT0         0.0526
     19 H6         32.3144    3.6955   39.4817 H         1 GT0         0.0526
     20 H7         28.3588    5.3864   41.3232 H         1 GT0         0.0706
     21 H8         27.1762    5.2833   39.9751 H         1 GT0         0.0706
     22 H9         26.3270    6.4063   41.8308 H         1 GT0         0.2124
     23 H10        32.1687    8.2831   36.5329 H         1 GT0         0.0382
     24 H11        32.0951    9.6423   37.7050 H         1 GT0         0.0382
     25 H12        30.9052    9.5485   36.3626 H         1 GT0         0.0382
     26 H13        32.1455    5.5466   37.7955 H         1 GT0         0.2454
@<TRIPOS>BOND
     1    1    2 ar 
     2    1    6 ar 
     3    2    3 ar 
     4    3    4 ar 
     5    3   12 1  
     6    4    5 ar 
     7    4   13 1  
     8    5    6 ar 
     9    5    7 1  
    10    6   10 1  
    11    7    8 1  
    12    8    9 1  
    13   10   11 1  
    14    1   14 1  
    15    7   15 1  
    16    7   16 1  
    17    9   17 1  
    18    9   18 1  
    19    9   19 1  
    20   10   20 1  
    21   10   21 1  
    22   11   22 1  
    23   12   23 1  
    24   12   24 1  
    25   12   25 1  
    26   13   26 1  
@<TRIPOS>SUBSTRUCTURE
     1 GT0         1

