### 
### Created by X-TOOL on Mon Sep 10 21:13:10 2018
### 

@<TRIPOS>MOLECULE
4enx_ligand
   35    37     1     0     0
SMALL
GAST_HUCK


@<TRIPOS>ATOM
      1 O24       -44.4890   -1.2920    2.4760 O.2       1 Z20        -0.4888
      2 N22       -43.4040   -1.4610    1.9490 N.2       1 Z20        -0.2024
      3 O23       -42.3660   -1.5750    2.5730 O.2       1 Z20        -0.4888
      4 C18       -43.3300   -1.5540    0.4400 C.ar      1 Z20         0.1731
      5 C17       -44.4660   -1.2190   -0.3210 C.ar      1 Z20         0.1916
      6 O25       -45.5700   -0.8250    0.3490 O.3       1 Z20        -0.2800
      7 C16       -44.4040   -1.3140   -1.7170 C.ar      1 Z20         0.0352
      8 C15       -43.2300   -1.7290   -2.3200 C.ar      1 Z20         0.0070
      9 C19       -42.1490   -1.9730   -0.1720 C.ar      1 Z20         0.0377
     10 C14       -42.0930   -2.0540   -1.5630 C.ar      1 Z20         0.0792
     11 C13       -40.8830   -2.5040   -2.2730 C.2       1 Z20         0.0956
     12 C11       -39.6180   -2.6600   -1.8360 C.2       1 Z20         0.2608
     13 C10       -38.5390   -3.2890   -2.6490 C.2       1 Z20         0.3454
     14 O21       -38.6260   -3.7470   -3.7620 O.2       1 Z20        -0.3415
     15 N9        -37.2360   -3.3190   -1.9420 N.am      1 Z20        -0.1349
     16 S12       -38.9200   -2.1550   -0.2360 S.3       1 Z20         0.1867
     17 C8        -37.2650   -2.7550   -0.6440 C.2       1 Z20         0.3409
     18 N7        -36.3460   -2.6050    0.2550 N.2       1 Z20        -0.1581
     19 C2        -36.4630   -2.0300    1.5730 C.ar      1 Z20         0.1145
     20 C3        -35.9800   -0.7290    1.8320 C.ar      1 Z20         0.0964
     21 CL1       -35.3050    0.2170    0.5830 Cl        1 Z20        -0.0451
     22 C4        -36.0510   -0.1640    3.0990 C.ar      1 Z20        -0.0192
     23 C5        -36.6030   -0.9090    4.1340 C.ar      1 Z20        -0.0361
     24 C6        -37.0700   -2.2030    3.8980 C.ar      1 Z20        -0.0339
     25 C1        -36.9970   -2.7770    2.6290 C.ar      1 Z20        -0.0086
     26 H         -45.8551   -1.5292    0.9359 H         1 Z20         0.2811
     27 H         -45.2740   -1.0629   -2.3237 H         1 Z20         0.0778
     28 H         -43.1868   -1.8053   -3.4065 H         1 Z20         0.0951
     29 H         -41.2791   -2.2344    0.4305 H         1 Z20         0.1005
     30 H         -41.0362   -2.7511   -3.3235 H         1 Z20         0.1349
     31 H         -36.3908   -3.7125   -2.3557 H         1 Z20         0.2805
     32 H         -35.6805    0.8453    3.2781 H         1 Z20         0.0700
     33 H         -36.6716   -0.4812    5.1342 H         1 Z20         0.0831
     34 H         -37.4995   -2.7752    4.7203 H         1 Z20         0.0701
     35 H         -37.3513   -3.7942    2.4619 H         1 Z20         0.0800
@<TRIPOS>BOND
     1    1    2 2  
     2    2    3 2  
     3    2    4 1  
     4    4    5 ar 
     5    4    9 ar 
     6    5    6 1  
     7    5    7 ar 
     8    7    8 ar 
     9    8   10 ar 
    10    9   10 ar 
    11   10   11 1  
    12   11   12 2  
    13   12   13 1  
    14   12   16 1  
    15   13   14 2  
    16   13   15 am 
    17   15   17 1  
    18   16   17 1  
    19   17   18 2  
    20   18   19 1  
    21   19   20 ar 
    22   19   25 ar 
    23   20   21 1  
    24   20   22 ar 
    25   22   23 ar 
    26   23   24 ar 
    27   24   25 ar 
    28    6   26 1  
    29    7   27 1  
    30    8   28 1  
    31    9   29 1  
    32   11   30 1  
    33   15   31 1  
    34   22   32 1  
    35   23   33 1  
    36   24   34 1  
    37   25   35 1  
@<TRIPOS>SUBSTRUCTURE
     1 Z20         1

