### 
### Created by X-TOOL on Mon Sep 10 21:13:09 2018
### 

@<TRIPOS>MOLECULE
4eny_ligand
   37    39     1     0     0
SMALL
GAST_HUCK


@<TRIPOS>ATOM
      1 C21       -68.9440  122.3670    2.6510 C.ar      1 J19        -0.0720
      2 O14       -64.9580  119.2810    4.5850 O.2       1 J19        -0.3883
      3 C11       -65.2360  118.9750    3.4460 C.2       1 J19         0.1755
      4 N10       -64.5180  117.8920    2.8130 N.2       1 J19        -0.2632
      5 C12       -66.2890  119.6300    2.5910 C.2       1 J19         0.0992
      6 S13       -66.2450  118.7650    1.0160 S.3       1 J19         0.0431
      7 C9        -64.9100  117.6560    1.5800 C.2       1 J19         0.2125
      8 N8        -64.4210  116.6990    0.7220 N.pl3     1 J19        -0.2245
      9 C4        -64.8520  116.4750   -0.6160 C.ar      1 J19         0.0873
     10 C3        -64.4820  117.3120   -1.6840 C.ar      1 J19        -0.0357
     11 C2        -64.9190  117.0480   -2.9760 C.ar      1 J19        -0.0704
     12 C5        -65.6750  115.3790   -0.9380 C.ar      1 J19         0.0647
     13 CL7       -66.2010  114.2840    0.2770 Cl        1 J19        -0.0785
     14 C6        -66.1130  115.1130   -2.2290 C.ar      1 J19        -0.0565
     15 C1        -65.7320  115.9580   -3.2590 C.ar      1 J19        -0.0720
     16 C15       -67.1270  120.6580    2.8910 C.2       1 J19        -0.0368
     17 C16       -68.0440  121.4690    2.0510 C.ar      1 J19        -0.0421
     18 C20       -69.8150  123.1440    1.8870 C.ar      1 J19        -0.0378
     19 C19       -69.7980  123.0430    0.4850 C.ar      1 J19         0.1200
     20 O22       -70.6430  123.8000   -0.2800 O.3       1 J19        -0.3342
     21 C18       -68.9010  122.1500   -0.1220 C.ar      1 J19         0.1216
     22 C17       -68.0440  121.3840    0.6540 C.ar      1 J19        -0.0333
     23 O23       -68.8680  122.0360   -1.4900 O.3       1 J19        -0.3245
     24 C24       -68.0870  120.9670   -2.0060 C.3       1 J19         0.0569
     25 H         -68.9616  122.4581    3.7370 H         1 J19         0.0516
     26 H         -63.6809  116.0936    1.0773 H         1 J19         0.2288
     27 H         -63.8457  118.1768   -1.4960 H         1 J19         0.0544
     28 H         -64.6169  117.7115   -3.7863 H         1 J19         0.0591
     29 H         -66.7485  114.2504   -2.4294 H         1 J19         0.0595
     30 H         -66.0663  115.7695   -4.2792 H         1 J19         0.0526
     31 H         -67.1252  120.9389    3.9442 H         1 J19         0.0615
     32 H         -70.5078  123.8285    2.3765 H         1 J19         0.0523
     33 H         -70.4953  123.6035   -1.2080 H         1 J19         0.2461
     34 H         -67.3530  120.6984    0.1635 H         1 J19         0.0512
     35 H         -67.0520  121.0875   -1.6861 H         1 J19         0.0573
     36 H         -68.4766  120.0204   -1.6315 H         1 J19         0.0573
     37 H         -68.1354  120.9760   -3.0949 H         1 J19         0.0573
@<TRIPOS>BOND
     1   17    1 ar 
     2    1   18 ar 
     3    3    2 2  
     4    3    4 1  
     5    5    3 1  
     6    7    4 2  
     7    5    6 1  
     8   16    5 2  
     9    6    7 1  
    10    7    8 1  
    11    8    9 1  
    12    9   10 ar 
    13    9   12 ar 
    14   10   11 ar 
    15   11   15 ar 
    16   12   13 1  
    17   12   14 ar 
    18   14   15 ar 
    19   16   17 1  
    20   17   22 ar 
    21   18   19 ar 
    22   19   20 1  
    23   19   21 ar 
    24   21   22 ar 
    25   21   23 1  
    26   23   24 1  
    27    1   25 1  
    28    8   26 1  
    29   10   27 1  
    30   11   28 1  
    31   14   29 1  
    32   15   30 1  
    33   16   31 1  
    34   18   32 1  
    35   20   33 1  
    36   22   34 1  
    37   24   35 1  
    38   24   36 1  
    39   24   37 1  
@<TRIPOS>SUBSTRUCTURE
     1 J19         1

