### 
### Created by X-TOOL on Mon Sep 10 21:13:09 2018
### 

@<TRIPOS>MOLECULE
4eo4_ligand
   49    51     1     0     0
SMALL
GAST_HUCK


@<TRIPOS>ATOM
      1 N10        26.1850  -18.8060  -53.0590 N.4       1 SSA         0.2396
      2 CA         25.7190  -17.4490  -53.0160 C.3       1 SSA         0.0900
      3 CB         24.9820  -17.1660  -54.2650 C.3       1 SSA         0.1042
      4 OG         25.4660  -17.7760  -55.4340 O.3       1 SSA        -0.3870
      5 C9         24.7820  -17.2420  -51.8220 C.2       1 SSA         0.2482
      6 O9         24.8380  -18.0450  -50.8490 O.2       1 SSA        -0.3890
      7 N8         23.8300  -16.1490  -51.8050 N.am      1 SSA        -0.1293
      8 S1         22.8610  -15.9810  -50.4860 S.o2      1 SSA         0.1859
      9 O1S        22.4260  -14.6060  -50.3250 O.2       1 SSA        -0.1218
     10 O2S        23.5850  -16.1980  -49.2630 O.2       1 SSA        -0.1218
     11 O5'        21.7080  -16.9140  -50.5870 O.3       1 SSA        -0.2161
     12 C5'        21.0990  -17.1570  -51.8470 C.3       1 SSA         0.1073
     13 C4'        19.6090  -17.3410  -51.7120 C.3       1 SSA         0.1161
     14 O4'        19.3320  -18.6090  -51.0670 O.3       1 SSA        -0.3367
     15 C3'        18.8920  -16.3140  -50.8500 C.3       1 SSA         0.1146
     16 O3'        18.5880  -15.1210  -51.5490 O.3       1 SSA        -0.3864
     17 C2'        17.6630  -17.0680  -50.3670 C.3       1 SSA         0.1385
     18 O2'        16.6540  -17.0800  -51.3660 O.3       1 SSA        -0.3836
     19 C1'        18.2170  -18.4860  -50.2150 C.3       1 SSA         0.2010
     20 N9         18.6570  -18.7600  -48.8350 N.pl3     1 SSA        -0.1919
     21 C8         19.6860  -18.2260  -48.1060 C.2       1 SSA         0.1123
     22 N7         19.7070  -18.7800  -46.8730 N.2       1 SSA        -0.2958
     23 C5         18.6660  -19.6980  -46.8110 C.ar      1 SSA         0.1045
     24 C6         18.1810  -20.5940  -45.7810 C.ar      1 SSA         0.1298
     25 N6         18.8250  -20.6480  -44.4900 N.pl3     1 SSA        -0.3152
     26 N1         17.1240  -21.3790  -46.0310 N.ar      1 SSA        -0.2698
     27 C2         16.5100  -21.3300  -47.2570 C.ar      1 SSA         0.0533
     28 N3         16.9360  -20.5040  -48.2450 N.ar      1 SSA        -0.2714
     29 C4         18.0230  -19.6810  -48.0290 C.ar      1 SSA         0.1613
     30 H1         26.7994  -18.9254  -53.8491 H         1 SSA         0.2016
     31 H2         25.3977  -19.4290  -53.1485 H         1 SSA         0.2016
     32 H3         26.6852  -19.0166  -52.2096 H         1 SSA         0.2016
     33 H4         26.5783  -16.7679  -52.9283 H         1 SSA         0.1122
     34 H5         25.0011  -16.0778  -54.4243 H         1 SSA         0.0640
     35 H6         23.9430  -17.4974  -54.1216 H         1 SSA         0.0640
     36 H7         25.4451  -18.7200  -55.3292 H         1 SSA         0.2099
     37 H8         23.7640  -15.5139  -52.5746 H         1 SSA         0.2167
     38 H9         21.5337  -18.0677  -52.2848 H         1 SSA         0.0611
     39 H10        21.2952  -16.3016  -52.5101 H         1 SSA         0.0611
     40 H11        19.1732  -17.3255  -52.7218 H         1 SSA         0.0648
     41 H12        19.5224  -16.0458  -49.9894 H         1 SSA         0.0648
     42 H13        18.0251  -15.3225  -52.2872 H         1 SSA         0.2100
     43 H14        17.2717  -16.6627  -49.4223 H         1 SSA         0.0676
     44 H15        16.4044  -16.1871  -51.5731 H         1 SSA         0.2101
     45 H16        17.4419  -19.2126  -50.4999 H         1 SSA         0.0996
     46 H17        20.3821  -17.4695  -48.4652 H         1 SSA         0.1349
     47 H18        18.4720  -21.2886  -43.7648 H         1 SSA         0.1820
     48 H19        19.6374  -20.0459  -44.2941 H         1 SSA         0.1820
     49 H20        15.6566  -21.9723  -47.4421 H         1 SSA         0.0996
@<TRIPOS>BOND
     1    1    2 1  
     2    2    3 1  
     3    2    5 1  
     4    3    4 1  
     5    5    6 2  
     6    5    7 am 
     7    7    8 am 
     8    8    9 2  
     9    8   10 2  
    10    8   11 1  
    11   11   12 1  
    12   12   13 1  
    13   13   14 1  
    14   13   15 1  
    15   14   19 1  
    16   15   16 1  
    17   15   17 1  
    18   17   18 1  
    19   17   19 1  
    20   19   20 1  
    21   20   21 1  
    22   20   29 1  
    23   21   22 2  
    24   22   23 1  
    25   23   24 ar 
    26   23   29 ar 
    27   24   25 1  
    28   24   26 ar 
    29   26   27 ar 
    30   27   28 ar 
    31   28   29 ar 
    32    1   30 1  
    33    1   31 1  
    34    1   32 1  
    35    2   33 1  
    36    3   34 1  
    37    3   35 1  
    38    4   36 1  
    39    7   37 1  
    40   12   38 1  
    41   12   39 1  
    42   13   40 1  
    43   15   41 1  
    44   16   42 1  
    45   17   43 1  
    46   18   44 1  
    47   19   45 1  
    48   21   46 1  
    49   25   47 1  
    50   25   48 1  
    51   27   49 1  
@<TRIPOS>SUBSTRUCTURE
     1 SSA         1

