### 
### Created by X-TOOL on Mon Sep 10 21:13:09 2018
### 

@<TRIPOS>MOLECULE
4eo6_ligand
   57    58     1     0     0
SMALL
GAST_HUCK


@<TRIPOS>ATOM
      1 C12         6.2450   31.8560   76.3870 C.3       1 0S2        -0.0374
      2 C11         7.0450   33.0930   76.8020 C.3       1 0S2         0.0579
      3 C14         7.3940   35.3490   75.7000 C.2       1 0S2         0.2057
      4 C13         8.3060   32.6710   77.5680 C.3       1 0S2        -0.0374
      5 C15         7.8220   36.1360   74.4620 C.3       1 0S2         0.0540
      6 C17         9.2950   36.5260   74.6930 C.3       1 0S2        -0.0326
      7 C18         9.8510   37.4110   73.5790 C.3       1 0S2        -0.0481
      8 C19         8.9560   38.6350   73.3500 C.3       1 0S2        -0.0436
      9 C20         7.4910   38.2220   73.1050 C.3       1 0S2        -0.0481
     10 C21         6.9620   37.3880   74.2800 C.3       1 0S2        -0.0326
     11 C01        10.4080   31.8220   72.2270 C.1       1 0S2        -0.0551
     12 C02         9.1300   32.9080   74.0760 C.2       1 0S2        -0.0241
     13 C03         9.2190   32.3240   72.8280 C.2       1 0S2         0.0772
     14 S04         7.7050   32.2560   72.0650 S.3       1 0S2        -0.0416
     15 C05         6.9090   33.0140   73.3750 C.2       1 0S2         0.0682
     16 C06         7.7950   33.3260   74.4100 C.2       1 0S2         0.0689
     17 N07         7.4080   33.9410   75.6300 N.am      1 0S2        -0.2266
     18 C08         5.4830   33.2690   73.2770 C.2       1 0S2         0.0481
     19 O09         4.8890   32.5390   72.2970 O.co2     1 0S2        -0.5728
     20 O10         4.8530   34.0830   73.9350 O.co2     1 0S2        -0.5728
     21 O16         7.0780   35.9690   76.7210 O.2       1 0S2        -0.3860
     22 C22         9.5050   39.4660   72.1860 C.3       1 0S2        -0.0624
     23 C23        11.3960   31.3930   71.6930 C.1       1 0S2        -0.0917
     24 C24        12.6020   30.8660   71.0190 C.3       1 0S2         0.0233
     25 C25        13.8570   31.5240   71.6150 C.3       1 0S2        -0.0492
     26 C26        12.6650   29.3400   71.1840 C.3       1 0S2        -0.0492
     27 C27        12.5380   31.2230   69.5190 C.3       1 0S2        -0.0492
     28 H1          5.9996   31.2616   77.2795 H         1 0S2         0.0256
     29 H2          6.8445   31.2470   75.6944 H         1 0S2         0.0256
     30 H3          5.3159   32.1702   75.8890 H         1 0S2         0.0256
     31 H4          6.4166   33.6951   77.4747 H         1 0S2         0.0610
     32 H5          8.8735   33.5664   77.8616 H         1 0S2         0.0256
     33 H6          8.9312   32.0357   76.9234 H         1 0S2         0.0256
     34 H7          8.0172   32.1085   78.4681 H         1 0S2         0.0256
     35 H8          7.7335   35.5044   73.5658 H         1 0S2         0.0542
     36 H9          9.8981   35.6077   74.7472 H         1 0S2         0.0292
     37 H10         9.3698   37.0706   75.6458 H         1 0S2         0.0292
     38 H11         9.9056   36.8265   72.6488 H         1 0S2         0.0269
     39 H12        10.8593   37.7502   73.8587 H         1 0S2         0.0269
     40 H13         8.9841   39.2555   74.2578 H         1 0S2         0.0298
     41 H14         7.4328   37.6252   72.1828 H         1 0S2         0.0269
     42 H15         6.8737   39.1260   72.9963 H         1 0S2         0.0269
     43 H16         6.9970   37.9908   75.1994 H         1 0S2         0.0292
     44 H17         5.9230   37.0898   74.0764 H         1 0S2         0.0292
     45 H18         9.9835   33.0387   74.7396 H         1 0S2         0.0446
     46 H19        10.5492   39.7427   72.3935 H         1 0S2         0.0232
     47 H20         8.9005   40.3775   72.0690 H         1 0S2         0.0232
     48 H21         9.4596   38.8745   71.2597 H         1 0S2         0.0232
     49 H22        14.7520   31.1297   71.1114 H         1 0S2         0.0244
     50 H23        13.9129   31.3000   72.6905 H         1 0S2         0.0244
     51 H24        13.8043   32.6130   71.4695 H         1 0S2         0.0244
     52 H25        11.7603   28.8869   70.7525 H         1 0S2         0.0244
     53 H26        12.7265   29.0890   72.2532 H         1 0S2         0.0244
     54 H27        13.5532   28.9513   70.6644 H         1 0S2         0.0244
     55 H28        12.4930   32.3160   69.4039 H         1 0S2         0.0244
     56 H29        11.6407   30.7700   69.0722 H         1 0S2         0.0244
     57 H30        13.4347   30.8375   69.0117 H         1 0S2         0.0244
@<TRIPOS>BOND
     1    2    1 1  
     2    2    4 1  
     3   17    2 1  
     4    3    5 1  
     5   17    3 am 
     6    3   21 2  
     7    5    6 1  
     8    5   10 1  
     9    6    7 1  
    10    7    8 1  
    11    9    8 1  
    12    8   22 1  
    13   10    9 1  
    14   13   11 1  
    15   11   23 3  
    16   12   13 2  
    17   16   12 1  
    18   14   13 1  
    19   15   14 1  
    20   16   15 2  
    21   15   18 1  
    22   16   17 1  
    23   18   19 ar 
    24   18   20 ar 
    25   23   24 1  
    26   24   25 1  
    27   24   26 1  
    28   24   27 1  
    29    1   28 1  
    30    1   29 1  
    31    1   30 1  
    32    2   31 1  
    33    4   32 1  
    34    4   33 1  
    35    4   34 1  
    36    5   35 1  
    37    6   36 1  
    38    6   37 1  
    39    7   38 1  
    40    7   39 1  
    41    8   40 1  
    42    9   41 1  
    43    9   42 1  
    44   10   43 1  
    45   10   44 1  
    46   12   45 1  
    47   22   46 1  
    48   22   47 1  
    49   22   48 1  
    50   25   49 1  
    51   25   50 1  
    52   25   51 1  
    53   26   52 1  
    54   26   53 1  
    55   26   54 1  
    56   27   55 1  
    57   27   56 1  
    58   27   57 1  
@<TRIPOS>SUBSTRUCTURE
     1 0S2         1

