### 
### Created by X-TOOL on Mon Sep 10 21:13:09 2018
### 

@<TRIPOS>MOLECULE
4eo8_ligand
   57    58     1     0     0
SMALL
GAST_HUCK


@<TRIPOS>ATOM
      1 C01         9.1710   33.0920   73.7980 C.2       1 0S3        -0.0191
      2 C02         7.8110   33.4780   74.0990 C.2       1 0S3         0.1119
      3 C03         6.9690   33.0800   73.0560 C.2       1 0S3         0.0732
      4 S04         7.8080   32.3070   71.7900 S.3       1 0S3        -0.0414
      5 C05         9.2980   32.4590   72.5770 C.2       1 0S3         0.0774
      6 C06        10.4950   31.9650   71.9860 C.1       1 0S3        -0.0551
      7 C07        11.4630   31.5280   71.4320 C.1       1 0S3        -0.0917
      8 C08        12.6420   30.9940   70.7220 C.3       1 0S3         0.0233
      9 C09        13.8990   31.6210   71.3470 C.3       1 0S3        -0.0492
     10 C10        12.6960   29.4610   70.8310 C.3       1 0S3        -0.0492
     11 C11        12.5650   31.3960   69.2370 C.3       1 0S3        -0.0492
     12 N12         7.3570   34.1290   75.2730 N.am      1 0S3        -0.1924
     13 C13         7.3070   35.5270   75.3800 C.2       1 0S3         0.2442
     14 N14         6.9220   33.3750   76.3820 N.4       1 0S3         0.3857
     15 C15         7.8130   36.3140   74.1640 C.3       1 0S3         0.0587
     16 O16         6.9170   36.1230   76.3890 O.2       1 0S3        -0.3810
     17 C17         6.9490   37.5450   73.8440 C.3       1 0S3        -0.0324
     18 C18         7.5600   38.3450   72.6870 C.3       1 0S3        -0.0481
     19 C19         8.9910   38.7940   73.0310 C.3       1 0S3        -0.0436
     20 C20         9.8670   37.5910   73.3920 C.3       1 0S3        -0.0481
     21 C21         9.2450   36.7420   74.5010 C.3       1 0S3        -0.0324
     22 C22         9.6290   39.5800   71.8800 C.3       1 0S3        -0.0624
     23 C23         5.5810   32.8100   76.2900 C.3       1 0S3        -0.0151
     24 C24         7.9490   32.4790   76.9020 C.3       1 0S3        -0.0151
     25 C25         5.5510   33.2080   72.8130 C.2       1 0S3         0.0483
     26 O26         4.9040   32.5770   71.9880 O.co2     1 0S3        -0.5728
     27 O27         4.9950   34.1710   73.5890 O.co2     1 0S3        -0.5728
     28 H1         10.0101   33.2810   74.4659 H         1 0S3         0.0447
     29 H2         14.7935   31.2381   70.8340 H         1 0S3         0.0244
     30 H3         13.9478   31.3586   72.4141 H         1 0S3         0.0244
     31 H4         13.8551   32.7149   71.2400 H         1 0S3         0.0244
     32 H5         11.7905   29.0292   70.3797 H         1 0S3         0.0244
     33 H6         12.7519   29.1704   71.8904 H         1 0S3         0.0244
     34 H7         13.5841   29.0867   70.3007 H         1 0S3         0.0244
     35 H8         12.5262   32.4923   69.1555 H         1 0S3         0.0244
     36 H9         11.6600   30.9626   68.7862 H         1 0S3         0.0244
     37 H10        13.4537   31.0203   68.7088 H         1 0S3         0.0244
     38 H11         6.8243   34.0663   77.1090 H         1 0S3         0.2339
     39 H12         7.8191   35.6554   73.2830 H         1 0S3         0.0544
     40 H13         6.8890   38.1866   74.7355 H         1 0S3         0.0292
     41 H14         5.9386   37.2144   73.5614 H         1 0S3         0.0292
     42 H15         6.9396   39.2328   72.4948 H         1 0S3         0.0269
     43 H16         7.5864   37.7141   71.7863 H         1 0S3         0.0269
     44 H17         8.9366   39.4561   73.9077 H         1 0S3         0.0298
     45 H18        10.8480   37.9550   73.7313 H         1 0S3         0.0269
     46 H19         9.9976   36.9654   72.4967 H         1 0S3         0.0269
     47 H20         9.8598   35.8414   74.6454 H         1 0S3         0.0292
     48 H21         9.2303   37.3290   75.4312 H         1 0S3         0.0292
     49 H22         8.9933   40.4416   71.6277 H         1 0S3         0.0232
     50 H23         9.7275   38.9270   71.0003 H         1 0S3         0.0232
     51 H24        10.6239   39.9356   72.1860 H         1 0S3         0.0232
     52 H25         5.3564   32.2475   77.2082 H         1 0S3         0.0786
     53 H26         5.5263   32.1345   75.4236 H         1 0S3         0.0786
     54 H27         4.8486   33.6217   76.1689 H         1 0S3         0.0786
     55 H28         7.5485   31.9222   77.7620 H         1 0S3         0.0786
     56 H29         8.8220   33.0675   77.2207 H         1 0S3         0.0786
     57 H30         8.2509   31.7716   76.1156 H         1 0S3         0.0786
@<TRIPOS>BOND
     1    1    2 1  
     2    1    5 2  
     3    2    3 2  
     4    2   12 1  
     5    3    4 1  
     6    3   25 1  
     7    4    5 1  
     8    5    6 1  
     9    6    7 3  
    10    7    8 1  
    11    8    9 1  
    12    8   10 1  
    13    8   11 1  
    14   12   13 am 
    15   12   14 1  
    16   13   15 1  
    17   13   16 2  
    18   14   23 1  
    19   14   24 1  
    20   15   17 1  
    21   15   21 1  
    22   17   18 1  
    23   18   19 1  
    24   19   20 1  
    25   19   22 1  
    26   20   21 1  
    27   25   26 ar 
    28   25   27 ar 
    29    1   28 1  
    30    9   29 1  
    31    9   30 1  
    32    9   31 1  
    33   10   32 1  
    34   10   33 1  
    35   10   34 1  
    36   11   35 1  
    37   11   36 1  
    38   11   37 1  
    39   14   38 1  
    40   15   39 1  
    41   17   40 1  
    42   17   41 1  
    43   18   42 1  
    44   18   43 1  
    45   19   44 1  
    46   20   45 1  
    47   20   46 1  
    48   21   47 1  
    49   21   48 1  
    50   22   49 1  
    51   22   50 1  
    52   22   51 1  
    53   23   52 1  
    54   23   53 1  
    55   23   54 1  
    56   24   55 1  
    57   24   56 1  
    58   24   57 1  
@<TRIPOS>SUBSTRUCTURE
     1 0S3         1

