### 
### Created by X-TOOL on Mon Sep 10 21:13:10 2018
### 

@<TRIPOS>MOLECULE
4eoh_ligand
   21    22     1     0     0
SMALL
GAST_HUCK


@<TRIPOS>ATOM
      1 C1         28.3740    3.6300   40.5770 C.3       1 TEP         0.0477
      2 N1         28.5450    5.0190   40.0990 N.am      1 TEP        -0.1740
      3 C2         27.6410    6.0120   40.4990 C.2       1 TEP         0.3177
      4 O2         26.7350    5.7400   41.2880 O.2       1 TEP        -0.3873
      5 N3         27.7930    7.3200   40.0270 N.am      1 TEP        -0.2025
      6 C3         26.8320    8.3700   40.4360 C.3       1 TEP         0.0446
      7 C4         28.8460    7.6310   39.1570 C.2       1 TEP         0.1375
      8 C5         29.7440    6.6420   38.7700 C.2       1 TEP         0.1602
      9 C6         29.5960    5.3410   39.2320 C.2       1 TEP         0.2295
     10 O6         30.4000    4.4730   38.8940 O.2       1 TEP        -0.4007
     11 N7         30.6300    7.2170   37.9610 N.pl3     1 TEP        -0.2657
     12 C8         30.3150    8.5060   37.8460 C.2       1 TEP         0.0953
     13 N9         29.2300    8.7590   38.5740 N.2       1 TEP        -0.2860
     14 H1         27.5006    3.5765   41.2435 H         1 TEP         0.0539
     15 H2         29.2743    3.3179   41.1266 H         1 TEP         0.0539
     16 H3         28.2199    2.9624   39.7165 H         1 TEP         0.0539
     17 H4         26.0833    7.9371   41.1157 H         1 TEP         0.0548
     18 H5         26.3285    8.7735   39.5451 H         1 TEP         0.0548
     19 H6         27.3703    9.1793   40.9510 H         1 TEP         0.0548
     20 H7         31.4231    6.7463   37.5025 H         1 TEP         0.2315
     21 H8         30.8593    9.2374   37.2504 H         1 TEP         0.1261
@<TRIPOS>BOND
     1    1    2 1  
     2    2    3 am 
     3    2    9 am 
     4    3    4 2  
     5    3    5 am 
     6    5    6 1  
     7    5    7 1  
     8    7    8 2  
     9    7   13 1  
    10    8    9 1  
    11    8   11 1  
    12    9   10 2  
    13   11   12 1  
    14   12   13 2  
    15    1   14 1  
    16    1   15 1  
    17    1   16 1  
    18    6   17 1  
    19    6   18 1  
    20    6   19 1  
    21   11   20 1  
    22   12   21 1  
@<TRIPOS>SUBSTRUCTURE
     1 TEP         1

