### 
### Created by X-TOOL on Mon Sep 10 21:13:15 2018
### 

@<TRIPOS>MOLECULE
4eoi_ligand
   39    42     1     0     0
SMALL
GAST_HUCK


@<TRIPOS>ATOM
      1 O1         -6.9070   22.3850  -21.5060 O.2       1 1RO        -0.3943
      2 C13        -6.8230   21.2910  -20.8580 C.2       1 1RO         0.1576
      3 N2         -5.8210   21.2030  -20.0110 N.2       1 1RO        -0.2666
      4 C15        -5.8460   20.0110  -19.4050 C.2       1 1RO         0.1873
      5 N3         -4.8330   19.8230  -18.5410 N.pl3     1 1RO        -0.2585
      6 C18        -3.6510   20.6960  -18.6080 C.3       1 1RO         0.0835
      7 C19        -3.3970   21.4060  -19.9330 C.2       1 1RO         0.0360
      8 C23        -3.4940   22.7330  -20.3530 C.2       1 1RO        -0.0796
      9 C22        -3.1560   22.9220  -21.7010 C.2       1 1RO        -0.0931
     10 C21        -2.7760   21.7780  -22.4030 C.2       1 1RO        -0.0195
     11 S2         -2.8710   20.4590  -21.2840 S.3       1 1RO        -0.0422
     12 S1         -7.1580   18.9330  -19.8510 S.3       1 1RO         0.0047
     13 C12        -7.7560   20.1390  -20.9710 C.3       1 1RO         0.1165
     14 C11        -8.9510   20.0410  -21.8650 C.3       1 1RO         0.0137
     15 C1         -9.2560   21.2200  -22.7340 C.ar      1 1RO        -0.0334
     16 C6        -10.5660   21.5840  -23.0730 C.ar      1 1RO        -0.0510
     17 C5        -10.8170   22.7030  -23.8810 C.ar      1 1RO        -0.0418
     18 C4         -9.7700   23.4850  -24.3760 C.ar      1 1RO         0.0424
     19 N1         -9.9710   24.5760  -25.1600 N.ar      1 1RO        -0.2983
     20 C9         -8.9390   25.3080  -25.6140 C.ar      1 1RO         0.0084
     21 C8         -7.6130   24.9800  -25.3070 C.ar      1 1RO        -0.0341
     22 C7         -7.3230   23.8720  -24.5090 C.ar      1 1RO        -0.0381
     23 C3         -8.3820   23.1050  -24.0270 C.ar      1 1RO        -0.0007
     24 C2         -8.1880   21.9820  -23.2300 C.ar      1 1RO        -0.0466
     25 H1         -4.8843   19.0728  -17.8371 H         1 1RO         0.2019
     26 H2         -2.7680   20.0787  -18.3863 H         1 1RO         0.0731
     27 H3         -3.7627   21.4681  -17.8325 H         1 1RO         0.0731
     28 H4         -3.8029   23.5450  -19.6964 H         1 1RO         0.0277
     29 H5         -3.1883   23.9035  -22.1717 H         1 1RO         0.0371
     30 H6         -2.4781   21.7246  -23.4491 H         1 1RO         0.0598
     31 H7         -8.4241   20.5615  -20.2061 H         1 1RO         0.0701
     32 H8         -9.8287   19.8660  -21.2255 H         1 1RO         0.0470
     33 H9         -8.7997   19.1743  -22.5252 H         1 1RO         0.0470
     34 H10       -11.3970   20.9927  -22.7058 H         1 1RO         0.0621
     35 H11       -11.8400   22.9654  -24.1254 H         1 1RO         0.0640
     36 H12        -9.1386   26.1746  -26.2338 H         1 1RO         0.0846
     37 H13        -6.8050   25.5914  -25.6921 H         1 1RO         0.0687
     38 H14        -6.2977   23.6141  -24.2697 H         1 1RO         0.0752
     39 H15        -7.1751   21.6849  -22.9833 H         1 1RO         0.0562
@<TRIPOS>BOND
     1    1    2 2  
     2    2    3 1  
     3    2   13 1  
     4    3    4 2  
     5    4    5 1  
     6    4   12 1  
     7    5    6 1  
     8    6    7 1  
     9    7    8 2  
    10    7   11 1  
    11    8    9 1  
    12    9   10 2  
    13   10   11 1  
    14   12   13 1  
    15   13   14 1  
    16   14   15 1  
    17   15   16 ar 
    18   15   24 ar 
    19   16   17 ar 
    20   17   18 ar 
    21   18   19 ar 
    22   18   23 ar 
    23   19   20 ar 
    24   20   21 ar 
    25   21   22 ar 
    26   22   23 ar 
    27   23   24 ar 
    28    5   25 1  
    29    6   26 1  
    30    6   27 1  
    31    8   28 1  
    32    9   29 1  
    33   10   30 1  
    34   13   31 1  
    35   14   32 1  
    36   14   33 1  
    37   16   34 1  
    38   17   35 1  
    39   20   36 1  
    40   21   37 1  
    41   22   38 1  
    42   24   39 1  
@<TRIPOS>SUBSTRUCTURE
     1 1RO         1

