### 
### Created by X-TOOL on Mon Sep 10 21:13:15 2018
### 

@<TRIPOS>MOLECULE
4eok_ligand
   50    53     1     0     0
SMALL
GAST_HUCK


@<TRIPOS>ATOM
      1 C2         10.8400   27.0480   25.1360 C.ar      1 4SP         0.1794
      2 C8         13.6010   23.9940   23.4260 C.2       1 4SP         0.1033
      3 C10         8.0460   25.1750   22.7850 C.3       1 4SP         0.0801
      4 C11         7.1780   24.3100   21.8930 C.3       1 4SP        -0.0121
      5 C12         7.5570   24.6290   20.4420 C.3       1 4SP        -0.0477
      6 C13         6.5450   24.0850   19.4360 C.3       1 4SP        -0.0527
      7 C14         5.1120   24.5010   19.7850 C.3       1 4SP        -0.0530
      8 C15         4.7360   24.0760   21.2040 C.3       1 4SP        -0.0527
      9 C16         5.7240   24.6510   22.2180 C.3       1 4SP        -0.0477
     10 C19         7.7070   30.4030   26.7560 C.ar      1 4SP        -0.0450
     11 C20         6.9660   30.4570   25.5730 C.ar      1 4SP         0.0961
     12 C21         7.4130   29.7120   24.4800 C.ar      1 4SP        -0.0450
     13 C22         8.5690   28.9330   24.5620 C.ar      1 4SP        -0.0366
     14 N26         4.4410   30.5050   25.0510 N.am      1 4SP        -0.2622
     15 N1          9.9360   26.3230   24.4200 N.ar      1 4SP        -0.2398
     16 C6         10.2680   25.2390   23.6740 C.ar      1 4SP         0.1758
     17 O6          9.3160   24.5630   22.9710 O.3       1 4SP        -0.2929
     18 C5         11.5850   24.8280   23.6370 C.ar      1 4SP         0.1044
     19 N7         12.3000   23.8480   23.0530 N.2       1 4SP        -0.3018
     20 N9         13.7580   25.0660   24.2540 N.pl3     1 4SP        -0.2402
     21 C4         12.5390   25.6130   24.4190 C.ar      1 4SP         0.1450
     22 N3         12.1560   26.6950   25.1380 N.ar      1 4SP        -0.2565
     23 N2         10.4460   28.1300   25.8700 N.pl3     1 4SP        -0.2493
     24 C17         9.3040   28.8710   25.7430 C.ar      1 4SP         0.0643
     25 C18         8.8600   29.6180   26.8350 C.ar      1 4SP        -0.0366
     26 S23         5.6310   31.3590   25.4520 S.o2      1 4SP         0.0607
     27 O24         5.8550   32.4030   24.4250 O.2       1 4SP        -0.1520
     28 O25         5.3250   32.0220   26.7490 O.2       1 4SP        -0.1520
     29 H1         14.4106   23.3401   23.1051 H         1 4SP         0.1318
     30 H2          7.5550   25.2986   23.7615 H         1 4SP         0.0630
     31 H3          8.1821   26.1605   22.3156 H         1 4SP         0.0630
     32 H4          7.3583   23.2434   22.0925 H         1 4SP         0.0328
     33 H5          8.5398   24.1833   20.2287 H         1 4SP         0.0269
     34 H6          7.6166   25.7212   20.3257 H         1 4SP         0.0269
     35 H7          6.6049   22.9867   19.4299 H         1 4SP         0.0265
     36 H8          6.7940   24.4714   18.4367 H         1 4SP         0.0265
     37 H9          4.4189   24.0270   19.0744 H         1 4SP         0.0265
     38 H10         5.0277   25.5949   19.7053 H         1 4SP         0.0265
     39 H11         4.7503   22.9780   21.2682 H         1 4SP         0.0265
     40 H12         3.7255   24.4437   21.4356 H         1 4SP         0.0265
     41 H13         5.6151   25.7455   22.2319 H         1 4SP         0.0269
     42 H14         5.4824   24.2458   23.2117 H         1 4SP         0.0269
     43 H15         7.3850   30.9744   27.6191 H         1 4SP         0.0606
     44 H16         6.8532   29.7388   23.5521 H         1 4SP         0.0606
     45 H17         8.8980   28.3699   23.6961 H         1 4SP         0.0536
     46 H18         3.5406   30.9246   24.9360 H         1 4SP         0.1633
     47 H19         4.5578   29.5231   24.9019 H         1 4SP         0.1633
     48 H20        14.6399   25.3942   24.6728 H         1 4SP         0.2380
     49 H21        11.0924   28.4260   26.6153 H         1 4SP         0.2163
     50 H22         9.4205   29.5886   27.7624 H         1 4SP         0.0536
@<TRIPOS>BOND
     1    1   15 ar 
     2    1   22 ar 
     3   23    1 1  
     4    2   19 2  
     5   20    2 1  
     6    3    4 1  
     7   17    3 1  
     8    4    5 1  
     9    4    9 1  
    10    5    6 1  
    11    6    7 1  
    12    8    7 1  
    13    9    8 1  
    14   11   10 ar 
    15   10   25 ar 
    16   12   11 ar 
    17   11   26 1  
    18   13   12 ar 
    19   24   13 ar 
    20   26   14 am 
    21   15   16 ar 
    22   16   17 1  
    23   16   18 ar 
    24   18   19 1  
    25   21   18 ar 
    26   21   20 1  
    27   22   21 ar 
    28   23   24 1  
    29   24   25 ar 
    30   26   27 2  
    31   26   28 2  
    32    2   29 1  
    33    3   30 1  
    34    3   31 1  
    35    4   32 1  
    36    5   33 1  
    37    5   34 1  
    38    6   35 1  
    39    6   36 1  
    40    7   37 1  
    41    7   38 1  
    42    8   39 1  
    43    8   40 1  
    44    9   41 1  
    45    9   42 1  
    46   10   43 1  
    47   12   44 1  
    48   13   45 1  
    49   14   46 1  
    50   14   47 1  
    51   20   48 1  
    52   23   49 1  
    53   25   50 1  
@<TRIPOS>SUBSTRUCTURE
     1 4SP         1

