### 
### Created by X-TOOL on Mon Sep 10 21:13:15 2018
### 

@<TRIPOS>MOLECULE
4eol_ligand
   39    42     1     0     0
SMALL
GAST_HUCK


@<TRIPOS>ATOM
      1 O1        -10.1800  -24.6290   22.5730 O.2       1 1RO        -0.3943
      2 C13       -10.2940  -23.5270   21.9600 C.2       1 1RO         0.1576
      3 N2         -9.3420  -23.2860   21.1050 N.2       1 1RO        -0.2666
      4 C15        -9.5370  -22.1110   20.5270 C.2       1 1RO         0.1873
      5 N3         -8.5620  -21.8120   19.6480 N.pl3     1 1RO        -0.2585
      6 C18        -7.5300  -22.8320   19.3530 C.3       1 1RO         0.0835
      7 C19        -7.0790  -23.6790   20.5410 C.2       1 1RO         0.0360
      8 C23        -7.2080  -25.0250   20.8820 C.2       1 1RO        -0.0796
      9 C22        -6.6350  -25.3640   22.1160 C.2       1 1RO        -0.0931
     10 C21        -6.0310  -24.3240   22.8170 C.2       1 1RO        -0.0195
     11 S2         -6.2250  -22.9070   21.8380 S.3       1 1RO        -0.0422
     12 S1        -10.9830  -21.2380   21.0160 S.3       1 1RO         0.0047
     13 C12       -11.3840  -22.5400   22.1230 C.3       1 1RO         0.1165
     14 C11       -12.5540  -22.6340   23.0510 C.3       1 1RO         0.0137
     15 C1        -12.6900  -23.8740   23.8700 C.ar      1 1RO        -0.0334
     16 C6        -13.9300  -24.2840   24.3580 C.ar      1 1RO        -0.0510
     17 C5        -14.0710  -25.4710   25.0930 C.ar      1 1RO        -0.0418
     18 C4        -12.9750  -26.2900   25.3440 C.ar      1 1RO         0.0424
     19 N1        -13.0660  -27.4430   26.0500 N.ar      1 1RO        -0.2983
     20 C9        -11.9830  -28.2090   26.2700 C.ar      1 1RO         0.0084
     21 C8        -10.7190  -27.8470   25.7850 C.ar      1 1RO        -0.0341
     22 C7        -10.5450  -26.6770   25.0450 C.ar      1 1RO        -0.0381
     23 C3        -11.6580  -25.8730   24.8130 C.ar      1 1RO        -0.0007
     24 C2        -11.5770  -24.6830   24.1090 C.ar      1 1RO        -0.0466
     25 H1         -8.5345  -20.8903   19.1890 H         1 1RO         0.2019
     26 H2         -6.6464  -22.3132   18.9528 H         1 1RO         0.0731
     27 H3         -7.9345  -23.5109   18.5879 H         1 1RO         0.0731
     28 H4         -7.7108  -25.7507   20.2444 H         1 1RO         0.0277
     29 H5         -6.6610  -26.3814   22.5034 H         1 1RO         0.0371
     30 H6         -5.5364  -24.3879   23.7851 H         1 1RO         0.0598
     31 H7        -12.0048  -23.0408   21.3655 H         1 1RO         0.0701
     32 H8        -13.4652  -22.5407   22.4419 H         1 1RO         0.0470
     33 H9        -12.4902  -21.7852   23.7477 H         1 1RO         0.0470
     34 H10       -14.8041  -23.6726   24.1655 H         1 1RO         0.0621
     35 H11       -15.0472  -25.7535   25.4703 H         1 1RO         0.0640
     36 H12       -12.0901  -29.1276   26.8355 H         1 1RO         0.0846
     37 H13        -9.8656  -28.4841   25.9873 H         1 1RO         0.0687
     38 H14        -9.5695  -26.4013   24.6610 H         1 1RO         0.0752
     39 H15       -10.6122  -24.3673   23.7287 H         1 1RO         0.0562
@<TRIPOS>BOND
     1    1    2 2  
     2    2    3 1  
     3    2   13 1  
     4    3    4 2  
     5    4    5 1  
     6    4   12 1  
     7    5    6 1  
     8    6    7 1  
     9    7    8 2  
    10    7   11 1  
    11    8    9 1  
    12    9   10 2  
    13   10   11 1  
    14   12   13 1  
    15   13   14 1  
    16   14   15 1  
    17   15   16 ar 
    18   15   24 ar 
    19   16   17 ar 
    20   17   18 ar 
    21   18   19 ar 
    22   18   23 ar 
    23   19   20 ar 
    24   20   21 ar 
    25   21   22 ar 
    26   22   23 ar 
    27   23   24 ar 
    28    5   25 1  
    29    6   26 1  
    30    6   27 1  
    31    8   28 1  
    32    9   29 1  
    33   10   30 1  
    34   13   31 1  
    35   14   32 1  
    36   14   33 1  
    37   16   34 1  
    38   17   35 1  
    39   20   36 1  
    40   21   37 1  
    41   22   38 1  
    42   24   39 1  
@<TRIPOS>SUBSTRUCTURE
     1 1RO         1

