### 
### Created by X-TOOL on Mon Sep 10 21:13:15 2018
### 

@<TRIPOS>MOLECULE
4eon_ligand
   37    40     1     0     0
SMALL
GAST_HUCK


@<TRIPOS>ATOM
      1 O1        -37.2300   12.8930   39.6430 O.2       1 1RO        -0.3837
      2 C13       -37.2240   11.8510   40.2680 C.2       1 1RO         0.1808
      3 N2        -37.7530   11.9210   41.4350 N.2       1 1RO        -0.2671
      4 C15       -37.6810   10.7340   41.9590 C.2       1 1RO         0.1971
      5 N3        -38.1770   10.6690   43.1780 N.pl3     1 1RO        -0.2590
      6 C18       -38.2390   11.8820   43.9730 C.3       1 1RO         0.0829
      7 C19       -37.5940   13.1170   43.3920 C.2       1 1RO         0.0359
      8 C23       -38.0360   14.1620   42.6400 C.2       1 1RO        -0.0796
      9 C22       -37.0610   15.0860   42.3460 C.2       1 1RO        -0.0931
     10 C21       -35.8020   14.8550   42.8390 C.2       1 1RO        -0.0195
     11 S2        -35.9580   13.4100   43.6990 S.3       1 1RO        -0.0422
     12 S1        -36.9720    9.5050   41.0050 S.3       1 1RO         0.0468
     13 C12       -36.6970   10.6140   39.7590 C.2       1 1RO         0.1071
     14 C11       -36.0660   10.3400   38.4620 C.2       1 1RO        -0.0242
     15 C1        -35.9530   11.4600   37.5270 C.ar      1 1RO        -0.0183
     16 C6        -36.1070   11.2500   36.1840 C.ar      1 1RO        -0.0489
     17 C5        -36.0210   12.2670   35.2590 C.ar      1 1RO        -0.0386
     18 C4        -35.7730   13.5390   35.6700 C.ar      1 1RO         0.0467
     19 N1        -35.6730   14.5430   34.8160 N.ar      1 1RO        -0.2955
     20 C9        -35.4270   15.7700   35.2560 C.ar      1 1RO         0.0102
     21 C8        -35.2700   16.0540   36.5910 C.ar      1 1RO        -0.0322
     22 C7        -35.3530   15.0510   37.5310 C.ar      1 1RO        -0.0350
     23 C3        -35.6020   13.7800   37.0960 C.ar      1 1RO         0.0069
     24 C2        -35.6860   12.7300   37.9650 C.ar      1 1RO        -0.0398
     25 H1        -38.5145    9.7739   43.5598 H         1 1RO         0.2009
     26 H2        -37.7487   11.6733   44.9353 H         1 1RO         0.0730
     27 H3        -39.3009   12.1121   44.1448 H         1 1RO         0.0730
     28 H4        -39.0669   14.2575   42.3023 H         1 1RO         0.0277
     29 H5        -37.2800   15.9673   41.7449 H         1 1RO         0.0371
     30 H6        -34.9083   15.4630   42.7065 H         1 1RO         0.0598
     31 H7        -35.6983    9.3472   38.2070 H         1 1RO         0.0634
     32 H8        -36.3045   10.2433   35.8339 H         1 1RO         0.0659
     33 H9        -36.1509   12.0533   34.2042 H         1 1RO         0.0644
     34 H10       -35.3470   16.5771   34.5368 H         1 1RO         0.0860
     35 H11       -35.0797   17.0735   36.9063 H         1 1RO         0.0692
     36 H12       -35.2244   15.2639   38.5861 H         1 1RO         0.0768
     37 H13       -35.5382   12.9054   39.0245 H         1 1RO         0.0651
@<TRIPOS>BOND
     1    1    2 2  
     2    2    3 1  
     3    2   13 1  
     4    3    4 2  
     5    4    5 1  
     6    4   12 1  
     7    5    6 1  
     8    6    7 1  
     9    7    8 2  
    10    7   11 1  
    11    8    9 1  
    12    9   10 2  
    13   10   11 1  
    14   12   13 1  
    15   13   14 2  
    16   14   15 1  
    17   15   16 ar 
    18   15   24 ar 
    19   16   17 ar 
    20   17   18 ar 
    21   18   19 ar 
    22   18   23 ar 
    23   19   20 ar 
    24   20   21 ar 
    25   21   22 ar 
    26   22   23 ar 
    27   23   24 ar 
    28    5   25 1  
    29    6   26 1  
    30    6   27 1  
    31    8   28 1  
    32    9   29 1  
    33   10   30 1  
    34   14   31 1  
    35   16   32 1  
    36   17   33 1  
    37   20   34 1  
    38   21   35 1  
    39   22   36 1  
    40   24   37 1  
@<TRIPOS>SUBSTRUCTURE
     1 1RO         1

