### 
### Created by X-TOOL on Mon Sep 10 21:13:15 2018
### 

@<TRIPOS>MOLECULE
4eop_ligand
   37    40     1     0     0
SMALL
GAST_HUCK


@<TRIPOS>ATOM
      1 O1          7.2900   22.7000   21.4210 O.2       1 1RO        -0.3837
      2 C13         7.1520   21.6160   20.7570 C.2       1 1RO         0.1808
      3 N2          6.1130   21.5450   19.9500 N.2       1 1RO        -0.2671
      4 C15         6.0960   20.3620   19.3230 C.2       1 1RO         0.1971
      5 N3          5.0560   20.1750   18.4930 N.pl3     1 1RO        -0.2590
      6 C18         3.9210   21.1000   18.5730 C.3       1 1RO         0.0829
      7 C19         3.6920   21.7160   19.9480 C.2       1 1RO         0.0359
      8 C23         3.7900   23.0080   20.4660 C.2       1 1RO        -0.0796
      9 C22         3.4820   23.0880   21.8330 C.2       1 1RO        -0.0931
     10 C21         3.1290   21.8880   22.4520 C.2       1 1RO        -0.0195
     11 S2          3.2090   20.6600   21.2300 S.3       1 1RO        -0.0422
     12 S1          7.4100   19.2740   19.7080 S.3       1 1RO         0.0468
     13 C12         8.0710   20.4520   20.8100 C.2       1 1RO         0.1071
     14 C11         9.2980   20.3130   21.6420 C.2       1 1RO        -0.0242
     15 C1          9.6370   21.4830   22.4990 C.ar      1 1RO        -0.0183
     16 C6         10.9600   21.8330   22.7870 C.ar      1 1RO        -0.0489
     17 C5         11.2500   22.9470   23.5860 C.ar      1 1RO        -0.0386
     18 C4         10.2240   23.7340   24.1080 C.ar      1 1RO         0.0467
     19 N1         10.4610   24.8190   24.8830 N.ar      1 1RO        -0.2955
     20 C9          9.4470   25.5570   25.3720 C.ar      1 1RO         0.0102
     21 C8          8.1090   25.2430   25.1120 C.ar      1 1RO        -0.0322
     22 C7          7.7840   24.1400   24.3220 C.ar      1 1RO        -0.0350
     23 C3          8.8200   23.3660   23.8080 C.ar      1 1RO         0.0069
     24 C2          8.5860   22.2480   23.0200 C.ar      1 1RO        -0.0398
     25 H1          5.0560   19.3991   17.8156 H         1 1RO         0.2009
     26 H2          3.0114   20.5505   18.2889 H         1 1RO         0.0730
     27 H3          4.0946   21.9169   17.8571 H         1 1RO         0.0730
     28 H4          4.0777   23.8710   19.8673 H         1 1RO         0.0277
     29 H5          3.5164   24.0301   22.3781 H         1 1RO         0.0371
     30 H6          2.8567   21.7498   23.4973 H         1 1RO         0.0598
     31 H7          9.9094   19.4120   21.6249 H         1 1RO         0.0634
     32 H8         11.7711   21.2352   22.3872 H         1 1RO         0.0659
     33 H9         12.2821   23.1995   23.8004 H         1 1RO         0.0644
     34 H10         9.6743   26.4210   25.9860 H         1 1RO         0.0860
     35 H11         7.3202   25.8601   25.5267 H         1 1RO         0.0692
     36 H12         6.7496   23.8919   24.1136 H         1 1RO         0.0768
     37 H13         7.5640   21.9595   22.8022 H         1 1RO         0.0651
@<TRIPOS>BOND
     1    1    2 2  
     2    2    3 1  
     3    2   13 1  
     4    3    4 2  
     5    4    5 1  
     6    4   12 1  
     7    5    6 1  
     8    6    7 1  
     9    7    8 2  
    10    7   11 1  
    11    8    9 1  
    12    9   10 2  
    13   10   11 1  
    14   12   13 1  
    15   13   14 2  
    16   14   15 1  
    17   15   16 ar 
    18   15   24 ar 
    19   16   17 ar 
    20   17   18 ar 
    21   18   19 ar 
    22   18   23 ar 
    23   19   20 ar 
    24   20   21 ar 
    25   21   22 ar 
    26   22   23 ar 
    27   23   24 ar 
    28    5   25 1  
    29    6   26 1  
    30    6   27 1  
    31    8   28 1  
    32    9   29 1  
    33   10   30 1  
    34   14   31 1  
    35   16   32 1  
    36   17   33 1  
    37   20   34 1  
    38   21   35 1  
    39   22   36 1  
    40   24   37 1  
@<TRIPOS>SUBSTRUCTURE
     1 1RO         1

