### 
### Created by X-TOOL on Mon Sep 10 21:13:15 2018
### 

@<TRIPOS>MOLECULE
4eor_ligand
   50    53     1     0     0
SMALL
GAST_HUCK


@<TRIPOS>ATOM
      1 C2         -7.9070  -23.4500   24.2370 C.ar      1 4SP         0.1794
      2 C8        -10.7650  -20.9120   22.3300 C.2       1 4SP         0.1033
      3 C10        -5.2600  -21.3080   22.2460 C.3       1 4SP         0.0801
      4 C11        -4.3640  -21.1010   21.0710 C.3       1 4SP        -0.0121
      5 C12        -4.8380  -21.8720   19.8830 C.3       1 4SP        -0.0477
      6 C13        -4.0570  -21.3390   18.7300 C.3       1 4SP        -0.0527
      7 C14        -2.5710  -21.5660   18.9060 C.3       1 4SP        -0.0530
      8 C15        -2.0630  -21.1350   20.2720 C.3       1 4SP        -0.0527
      9 C16        -2.9800  -21.5870   21.3790 C.3       1 4SP        -0.0477
     10 C19        -4.3900  -25.9490   24.0670 C.ar      1 4SP        -0.0450
     11 C20        -4.0310  -26.6010   25.2290 C.ar      1 4SP         0.0961
     12 C21        -4.8600  -26.4780   26.3040 C.ar      1 4SP        -0.0450
     13 C22        -6.0140  -25.7380   26.2100 C.ar      1 4SP        -0.0366
     14 N26        -1.7250  -26.7560   24.5150 N.am      1 4SP        -0.2622
     15 N1         -7.0720  -22.7870   23.4560 N.ar      1 4SP        -0.2398
     16 C6         -7.4650  -21.8480   22.6350 C.ar      1 4SP         0.1758
     17 O6         -6.5860  -21.2020   21.8840 O.3       1 4SP        -0.2929
     18 C5         -8.7730  -21.5440   22.5820 C.ar      1 4SP         0.1044
     19 N7         -9.5310  -20.7100   21.9430 N.2       1 4SP        -0.3018
     20 N9        -10.8450  -21.8700   23.2330 N.pl3     1 4SP        -0.2402
     21 C4         -9.6350  -22.2880   23.4380 C.ar      1 4SP         0.1450
     22 N3         -9.1890  -23.2200   24.2430 N.ar      1 4SP        -0.2565
     23 N2         -7.4810  -24.3930   25.0540 N.pl3     1 4SP        -0.2493
     24 C17        -6.3520  -25.0830   25.0580 C.ar      1 4SP         0.0643
     25 C18        -5.5340  -25.1990   23.9800 C.ar      1 4SP        -0.0366
     26 S23        -2.7080  -27.4410   25.2860 S.o2      1 4SP         0.0607
     27 O24        -2.8100  -28.6690   24.6820 O.2       1 4SP        -0.1520
     28 O25        -2.1700  -27.5660   26.5450 O.2       1 4SP        -0.1520
     29 H1        -11.6219  -20.3563   21.9521 H         1 4SP         0.1318
     30 H2         -5.0340  -20.5480   23.0084 H         1 4SP         0.0630
     31 H3         -5.0804  -22.3101   22.6626 H         1 4SP         0.0630
     32 H4         -4.3369  -20.0285   20.8281 H         1 4SP         0.0328
     33 H5         -5.9149  -21.7129   19.7252 H         1 4SP         0.0269
     34 H6         -4.6418  -22.9460   20.0175 H         1 4SP         0.0269
     35 H7         -4.2443  -20.2587   18.6418 H         1 4SP         0.0265
     36 H8         -4.3882  -21.8448   17.8111 H         1 4SP         0.0265
     37 H9         -2.0349  -20.9924   18.1355 H         1 4SP         0.0265
     38 H10        -2.3623  -22.6382   18.7766 H         1 4SP         0.0265
     39 H11        -1.9913  -20.0376   20.2951 H         1 4SP         0.0265
     40 H12        -1.0664  -21.5712   20.4350 H         1 4SP         0.0265
     41 H13        -2.9763  -22.6853   21.4399 H         1 4SP         0.0269
     42 H14        -2.6423  -21.1654   22.3372 H         1 4SP         0.0269
     43 H15        -3.7483  -26.0324   23.1973 H         1 4SP         0.0606
     44 H16        -4.6075  -26.9666   27.2381 H         1 4SP         0.0606
     45 H17        -6.6718  -25.6718   27.0690 H         1 4SP         0.0536
     46 H18        -0.8041  -27.1360   24.4275 H         1 4SP         0.1633
     47 H19        -1.9559  -25.8952   24.0614 H         1 4SP         0.1633
     48 H20       -11.7016  -22.2181   23.6868 H         1 4SP         0.2380
     49 H21        -8.1342  -24.6317   25.8138 H         1 4SP         0.2163
     50 H22        -5.7856  -24.6989   23.0517 H         1 4SP         0.0536
@<TRIPOS>BOND
     1    1   15 ar 
     2    1   22 ar 
     3   23    1 1  
     4    2   19 2  
     5   20    2 1  
     6    3    4 1  
     7   17    3 1  
     8    4    5 1  
     9    4    9 1  
    10    5    6 1  
    11    6    7 1  
    12    8    7 1  
    13    9    8 1  
    14   11   10 ar 
    15   10   25 ar 
    16   12   11 ar 
    17   11   26 1  
    18   13   12 ar 
    19   24   13 ar 
    20   26   14 am 
    21   15   16 ar 
    22   16   17 1  
    23   16   18 ar 
    24   18   19 1  
    25   21   18 ar 
    26   21   20 1  
    27   22   21 ar 
    28   23   24 1  
    29   24   25 ar 
    30   26   27 2  
    31   26   28 2  
    32    2   29 1  
    33    3   30 1  
    34    3   31 1  
    35    4   32 1  
    36    5   33 1  
    37    5   34 1  
    38    6   35 1  
    39    6   36 1  
    40    7   37 1  
    41    7   38 1  
    42    8   39 1  
    43    8   40 1  
    44    9   41 1  
    45    9   42 1  
    46   10   43 1  
    47   12   44 1  
    48   13   45 1  
    49   14   46 1  
    50   14   47 1  
    51   20   48 1  
    52   23   49 1  
    53   25   50 1  
@<TRIPOS>SUBSTRUCTURE
     1 4SP         1

