### 
### Created by X-TOOL on Mon Sep 10 21:13:15 2018
### 

@<TRIPOS>MOLECULE
4eos_ligand
   39    42     1     0     0
SMALL
GAST_HUCK


@<TRIPOS>ATOM
      1 O1         -7.1510  -22.3490   21.5780 O.2       1 1RO        -0.3943
      2 C13        -6.9650  -21.2730   20.9290 C.2       1 1RO         0.1576
      3 N2         -5.9290  -21.2220   20.0920 N.2       1 1RO        -0.2666
      4 C15        -5.8930  -20.0140   19.5060 C.2       1 1RO         0.1873
      5 N3         -4.8770  -19.7970   18.6450 N.pl3     1 1RO        -0.2585
      6 C18        -3.6320  -20.5700   18.7540 C.3       1 1RO         0.0835
      7 C19        -3.4490  -21.3490   20.0510 C.2       1 1RO         0.0360
      8 C23        -3.5570  -22.6950   20.3990 C.2       1 1RO        -0.0796
      9 C22        -3.2970  -22.9520   21.7560 C.2       1 1RO        -0.0931
     10 C21        -2.9700  -21.8480   22.5390 C.2       1 1RO        -0.0195
     11 S2         -3.0090  -20.4780   21.4810 S.3       1 1RO        -0.0422
     12 S1         -7.1710  -18.9020   19.9650 S.3       1 1RO         0.0047
     13 C12        -7.8450  -20.0890   21.0480 C.3       1 1RO         0.1165
     14 C11        -9.0510  -19.9420   21.9200 C.3       1 1RO         0.0137
     15 C1         -9.4110  -21.1270   22.7550 C.ar      1 1RO        -0.0334
     16 C6        -10.7340  -21.5540   22.9060 C.ar      1 1RO        -0.0510
     17 C5        -11.0480  -22.6800   23.6830 C.ar      1 1RO        -0.0418
     18 C4        -10.0410  -23.4020   24.3220 C.ar      1 1RO         0.0424
     19 N1        -10.2940  -24.4950   25.0820 N.ar      1 1RO        -0.2983
     20 C9         -9.2950  -25.1710   25.6810 C.ar      1 1RO         0.0084
     21 C8         -7.9600  -24.7820   25.5550 C.ar      1 1RO        -0.0341
     22 C7         -7.6200  -23.6650   24.7910 C.ar      1 1RO        -0.0381
     23 C3         -8.6370  -22.9550   24.1620 C.ar      1 1RO        -0.0007
     24 C2         -8.3820  -21.8300   23.3950 C.ar      1 1RO        -0.0466
     25 H1         -4.9747  -19.0853   17.9069 H         1 1RO         0.2019
     26 H2         -2.7896  -19.8691   18.6591 H         1 1RO         0.0731
     27 H3         -3.6065  -21.2888   17.9217 H         1 1RO         0.0731
     28 H4         -3.8186  -23.4748   19.6853 H         1 1RO         0.0277
     29 H5         -3.3484  -23.9573   22.1715 H         1 1RO         0.0371
     30 H6         -2.7367  -21.8465   23.6027 H         1 1RO         0.0598
     31 H7         -8.5183  -20.4688   20.2654 H         1 1RO         0.0701
     32 H8         -9.9093  -19.7166   21.2701 H         1 1RO         0.0470
     33 H9         -8.8727  -19.0951   22.5989 H         1 1RO         0.0470
     34 H10       -11.5302  -21.0064   22.4149 H         1 1RO         0.0621
     35 H11       -12.0813  -22.9906   23.7870 H         1 1RO         0.0640
     36 H12        -9.5345  -26.0430   26.2787 H         1 1RO         0.0846
     37 H13        -7.1834  -25.3508   26.0534 H         1 1RO         0.0687
     38 H14        -6.5855  -23.3573   24.6899 H         1 1RO         0.0752
     39 H15        -7.3601  -21.4848   23.2873 H         1 1RO         0.0562
@<TRIPOS>BOND
     1    1    2 2  
     2    2    3 1  
     3    2   13 1  
     4    3    4 2  
     5    4    5 1  
     6    4   12 1  
     7    5    6 1  
     8    6    7 1  
     9    7    8 2  
    10    7   11 1  
    11    8    9 1  
    12    9   10 2  
    13   10   11 1  
    14   12   13 1  
    15   13   14 1  
    16   14   15 1  
    17   15   16 ar 
    18   15   24 ar 
    19   16   17 ar 
    20   17   18 ar 
    21   18   19 ar 
    22   18   23 ar 
    23   19   20 ar 
    24   20   21 ar 
    25   21   22 ar 
    26   22   23 ar 
    27   23   24 ar 
    28    5   25 1  
    29    6   26 1  
    30    6   27 1  
    31    8   28 1  
    32    9   29 1  
    33   10   30 1  
    34   13   31 1  
    35   14   32 1  
    36   14   33 1  
    37   16   34 1  
    38   17   35 1  
    39   20   36 1  
    40   21   37 1  
    41   22   38 1  
    42   24   39 1  
@<TRIPOS>SUBSTRUCTURE
     1 1RO         1

