### 
### Created by X-TOOL on Mon Sep 10 21:13:09 2018
### 

@<TRIPOS>MOLECULE
4eox_ligand
   59    61     1     0     0
SMALL
GAST_HUCK


@<TRIPOS>ATOM
      1 C26        17.9040   -6.3800    1.1690 C.ar      1 0S5        -0.0575
      2 C25        17.7870   -5.6250    2.3220 C.ar      1 0S5        -0.0561
      3 C27        18.9200   -7.3050    1.0050 C.ar      1 0S5        -0.0561
      4 C24        18.7010   -5.8120    3.3380 C.ar      1 0S5        -0.0415
      5 C28        19.8590   -7.4880    1.9960 C.ar      1 0S5        -0.0415
      6 C23        19.7160   -6.7230    3.1470 C.ar      1 0S5         0.0554
      7 C29        28.5820   -2.1970    4.8430 C.2       1 0S5         0.1950
      8 C21        20.6740   -6.8490    4.2430 C.2       1 0S5         0.2335
      9 C18        23.0050   -7.3090    4.6130 C.2       1 0S5         0.2299
     10 C11        25.1900   -5.3040    4.7570 C.2       1 0S5         0.1859
     11 C8         25.0370   -5.5640    9.4810 C.3       1 0S5        -0.0528
     12 C9         24.6460   -4.1520    9.8900 C.3       1 0S5        -0.0528
     13 C15        26.1920   -8.7700    4.4050 C.3       1 0S5        -0.0281
     14 C16        24.8190   -8.7940    3.7780 C.3       1 0S5        -0.0099
     15 C7         25.9850   -5.4320    8.2780 C.3       1 0S5        -0.0501
     16 C10        25.1940   -3.2320    8.8180 C.3       1 0S5        -0.0501
     17 C14        26.4900   -7.3930    4.9550 C.3       1 0S5         0.0369
     18 C17        24.3100   -7.3660    3.8590 C.3       1 0S5         0.1387
     19 C6         25.5030   -4.1860    7.6470 C.3       1 0S5        -0.0387
     20 C5         26.1280   -3.5580    6.4330 C.3       1 0S5        -0.0284
     21 C3         27.0660   -4.0400    4.1940 C.3       1 0S5         0.0826
     22 C4         26.3870   -4.6780    5.3840 C.3       1 0S5         0.0723
     23 N13        25.2780   -6.6790    4.6630 N.am      1 0S5        -0.2510
     24 N20        21.9500   -7.0260    3.7860 N.am      1 0S5        -0.1971
     25 N2         28.3220   -3.4770    4.5200 N.am      1 0S5        -0.1497
     26 O30        29.7210   -1.8610    5.1220 O.2       1 0S5        -0.3830
     27 O22        20.3540   -6.6780    5.4070 O.2       1 0S5        -0.3738
     28 O19        22.9240   -7.4640    5.8250 O.2       1 0S5        -0.3837
     29 O12        24.2330   -4.7090    4.2950 O.2       1 0S5        -0.3964
     30 O1         29.4400   -4.3170    4.6690 O.3       1 0S5        -0.2684
     31 H1         17.1809   -6.2435    0.3730 H         1 0S5         0.0653
     32 H2         16.9897   -4.8979    2.4255 H         1 0S5         0.0629
     33 H3         18.9772   -7.8880    0.0929 H         1 0S5         0.0629
     34 H4         18.6222   -5.2552    4.2647 H         1 0S5         0.0670
     35 H5         20.6720   -8.1961    1.8831 H         1 0S5         0.0670
     36 H6         27.7777   -1.4629    4.8553 H         1 0S5         0.1560
     37 H7         24.1423   -6.1373    9.1968 H         1 0S5         0.0265
     38 H8         25.5487   -6.0710   10.3123 H         1 0S5         0.0265
     39 H9         25.0857   -3.9028   10.8670 H         1 0S5         0.0265
     40 H10        23.5512   -4.0612    9.9467 H         1 0S5         0.0265
     41 H11        26.9436   -9.0281    3.6444 H         1 0S5         0.0287
     42 H12        26.2310   -9.5044    5.2230 H         1 0S5         0.0287
     43 H13        24.1542   -9.4710    4.3345 H         1 0S5         0.0313
     44 H14        24.8810   -9.1209    2.7295 H         1 0S5         0.0313
     45 H15        25.8880   -6.2895    7.5959 H         1 0S5         0.0268
     46 H16        27.0320   -5.3376    8.6019 H         1 0S5         0.0268
     47 H17        26.1072   -2.7257    9.1638 H         1 0S5         0.0268
     48 H18        24.4463   -2.4801    8.5255 H         1 0S5         0.0268
     49 H19        27.3527   -6.9386    4.4459 H         1 0S5         0.0524
     50 H20        26.6803   -7.4289    6.0378 H         1 0S5         0.0524
     51 H21        24.2076   -6.9194    2.8590 H         1 0S5         0.0807
     52 H22        24.5170   -4.4727    7.2526 H         1 0S5         0.0302
     53 H23        27.0792   -3.0797    6.7093 H         1 0S5         0.0296
     54 H24        25.4471   -2.8038    6.0117 H         1 0S5         0.0296
     55 H25        26.4150   -3.2448    3.8017 H         1 0S5         0.0581
     56 H26        27.2145   -4.8075    3.4201 H         1 0S5         0.0581
     57 H27        27.0155   -5.4546    5.8443 H         1 0S5         0.0559
     58 H28        22.1211   -6.9453    2.8041 H         1 0S5         0.2251
     59 H29        30.2019   -3.7927    4.8860 H         1 0S5         0.2496
@<TRIPOS>BOND
     1    2    1 ar 
     2    3    1 ar 
     3    4    2 ar 
     4    5    3 ar 
     5    6    4 ar 
     6    6    5 ar 
     7    8    6 1  
     8   25    7 am 
     9    7   26 2  
    10   24    8 am 
    11    8   27 2  
    12   18    9 1  
    13    9   24 am 
    14    9   28 2  
    15   22   10 1  
    16   10   23 am 
    17   10   29 2  
    18   12   11 1  
    19   15   11 1  
    20   16   12 1  
    21   14   13 1  
    22   17   13 1  
    23   18   14 1  
    24   19   15 1  
    25   19   16 1  
    26   23   17 1  
    27   23   18 1  
    28   20   19 1  
    29   22   20 1  
    30   21   22 1  
    31   21   25 1  
    32   25   30 1  
    33    1   31 1  
    34    2   32 1  
    35    3   33 1  
    36    4   34 1  
    37    5   35 1  
    38    7   36 1  
    39   11   37 1  
    40   11   38 1  
    41   12   39 1  
    42   12   40 1  
    43   13   41 1  
    44   13   42 1  
    45   14   43 1  
    46   14   44 1  
    47   15   45 1  
    48   15   46 1  
    49   16   47 1  
    50   16   48 1  
    51   17   49 1  
    52   17   50 1  
    53   18   51 1  
    54   19   52 1  
    55   20   53 1  
    56   20   54 1  
    57   21   55 1  
    58   21   56 1  
    59   22   57 1  
    60   24   58 1  
    61   30   59 1  
@<TRIPOS>SUBSTRUCTURE
     1 0S5         1

