### 
### Created by X-TOOL on Mon Sep 10 21:13:14 2018
### 

@<TRIPOS>MOLECULE
4eqc_ligand
   68    73     1     0     0
SMALL
GAST_HUCK


@<TRIPOS>ATOM
      1 C26        14.0130   33.3000  -16.9950 C.3       1 XR1        -0.0369
      2 C25        14.0340   34.7360  -16.4710 C.3       1 XR1         0.0629
      3 N21        13.7180   34.6730  -15.0440 N.am      1 XR1        -0.1943
      4 C22        12.3350   34.7770  -14.6070 C.2       1 XR1         0.2283
      5 CL1        10.6990   37.3820  -13.1100 Cl        1 XR1        -0.0723
      6 O27        11.4070   34.8940  -15.3940 O.2       1 XR1        -0.3924
      7 C33         9.9940   35.9140  -12.6770 C.ar      1 XR1         0.0437
      8 C32         8.6480   35.8240  -12.2470 C.ar      1 XR1        -0.0432
      9 C31         8.0660   34.5770  -11.8680 C.ar      1 XR1        -0.0101
     10 C37         6.6430   34.5730  -11.3580 C.2       1 XR1         0.0539
     11 C36         5.6170   35.2710  -11.9980 C.2       1 XR1        -0.0033
     12 N35         4.3950   35.1800  -11.4120 N.2       1 XR1        -0.3073
     13 S38         5.9710   33.8080   -9.9500 S.3       1 XR1        -0.0013
     14 C34         4.4240   34.4480  -10.3180 C.2       1 XR1         0.0765
     15 C30         8.8430   33.3860  -11.9420 C.ar      1 XR1        -0.0570
     16 C29        10.1780   33.4680  -12.3420 C.ar      1 XR1        -0.0580
     17 C28        10.7770   34.7300  -12.7050 C.ar      1 XR1        -0.0047
     18 C23        12.0900   34.7030  -13.1060 C.2       1 XR1         0.0540
     19 C24        13.0950   34.6100  -12.2070 C.2       1 XR1        -0.0315
     20 C19        14.4990   34.5400  -12.7000 C.ar      1 XR1         0.0505
     21 C20        15.6370   34.4270  -11.9080 C.ar      1 XR1         0.0163
     22 N15        16.9210   34.3580  -12.3900 N.ar      1 XR1        -0.2628
     23 C18        14.7580   34.5960  -14.0860 C.ar      1 XR1         0.1650
     24 N17        16.0190   34.5730  -14.5910 N.ar      1 XR1        -0.2320
     25 C16        17.0380   34.4380  -13.7530 C.ar      1 XR1         0.1948
     26 N14        18.2080   34.3540  -14.2640 N.pl3     1 XR1        -0.2496
     27 C8         18.6090   34.2510  -15.5090 C.ar      1 XR1         0.0545
     28 C13        17.9340   33.5500  -16.5210 C.ar      1 XR1        -0.0483
     29 C12        18.4610   33.5470  -17.8450 C.ar      1 XR1        -0.0525
     30 C11        19.6430   34.2380  -18.1900 C.ar      1 XR1         0.0301
     31 C10        20.3170   34.9120  -17.1620 C.ar      1 XR1        -0.0525
     32 C9         19.8110   34.9070  -15.8550 C.ar      1 XR1        -0.0483
     33 N3         20.0900   34.3150  -19.4120 N.pl3     1 XR1        -0.3043
     34 C2         21.3300   33.6500  -19.8710 C.3       1 XR1         0.0650
     35 C4         19.3640   34.8980  -20.5850 C.3       1 XR1         0.0650
     36 C5         20.1840   35.4120  -21.8140 C.3       1 XR1        -0.0123
     37 N6         21.3620   34.5920  -22.1970 N.4       1 XR1         0.2358
     38 C7         22.1730   35.3430  -23.1310 C.3       1 XR1        -0.0430
     39 C1         22.1490   34.3930  -20.9640 C.3       1 XR1        -0.0123
     40 H1         14.2464   33.2985  -18.0699 H         1 XR1         0.0257
     41 H2         13.0147   32.8662  -16.8360 H         1 XR1         0.0257
     42 H3         14.7627   32.7020  -16.4562 H         1 XR1         0.0257
     43 H4         13.2825   35.3420  -16.9983 H         1 XR1         0.0617
     44 H5         15.0305   35.1778  -16.6184 H         1 XR1         0.0617
     45 H6          8.0450   36.7238  -12.2046 H         1 XR1         0.0611
     46 H7          5.7851   35.8491  -12.9054 H         1 XR1         0.0614
     47 H8          3.5444   34.2656   -9.7024 H         1 XR1         0.1177
     48 H9          8.4033   32.4275  -11.6908 H         1 XR1         0.0606
     49 H10        10.7770   32.5654  -12.3808 H         1 XR1         0.0595
     50 H11        12.8818   34.5866  -11.1393 H         1 XR1         0.0719
     51 H12        15.5004   34.3908  -10.8332 H         1 XR1         0.0895
     52 H13        18.9725   34.3701  -13.5739 H         1 XR1         0.2166
     53 H14        17.0184   33.0148  -16.2968 H         1 XR1         0.0510
     54 H15        17.9354   32.9942  -18.6152 H         1 XR1         0.0491
     55 H16        21.2374   35.4416  -17.3799 H         1 XR1         0.0491
     56 H17        20.3632   35.4264  -15.0802 H         1 XR1         0.0510
     57 H18        21.0522   32.6646  -20.2731 H         1 XR1         0.0563
     58 H19        21.9828   33.5181  -18.9955 H         1 XR1         0.0563
     59 H20        18.7800   35.7511  -20.2094 H         1 XR1         0.0563
     60 H21        18.6802   34.1212  -20.9577 H         1 XR1         0.0563
     61 H22        20.5408   36.4261  -21.5808 H         1 XR1         0.0834
     62 H23        19.5056   35.4518  -22.6790 H         1 XR1         0.0834
     63 H24        21.0779   33.7114  -22.5968 H         1 XR1         0.2032
     64 H25        23.0486   34.7435  -23.4208 H         1 XR1         0.0778
     65 H26        22.5088   36.2769  -22.6566 H         1 XR1         0.0778
     66 H27        21.5782   35.5794  -24.0256 H         1 XR1         0.0778
     67 H28        23.0433   33.7993  -21.2042 H         1 XR1         0.0834
     68 H29        22.4546   35.3751  -20.5741 H         1 XR1         0.0834
@<TRIPOS>BOND
     1    2    1 1  
     2    3    2 1  
     3    4    3 am 
     4    3   23 1  
     5    4    6 2  
     6   18    4 1  
     7    7    5 1  
     8    7    8 ar 
     9   17    7 ar 
    10    8    9 ar 
    11    9   10 1  
    12   15    9 ar 
    13   10   11 2  
    14   10   13 1  
    15   11   12 1  
    16   14   12 2  
    17   13   14 1  
    18   16   15 ar 
    19   17   16 ar 
    20   17   18 1  
    21   18   19 2  
    22   19   20 1  
    23   20   21 ar 
    24   20   23 ar 
    25   21   22 ar 
    26   22   25 ar 
    27   23   24 ar 
    28   24   25 ar 
    29   25   26 1  
    30   26   27 1  
    31   27   28 ar 
    32   27   32 ar 
    33   28   29 ar 
    34   29   30 ar 
    35   30   31 ar 
    36   30   33 1  
    37   31   32 ar 
    38   33   34 1  
    39   33   35 1  
    40   34   39 1  
    41   35   36 1  
    42   36   37 1  
    43   37   38 1  
    44   37   39 1  
    45    1   40 1  
    46    1   41 1  
    47    1   42 1  
    48    2   43 1  
    49    2   44 1  
    50    8   45 1  
    51   11   46 1  
    52   14   47 1  
    53   15   48 1  
    54   16   49 1  
    55   19   50 1  
    56   21   51 1  
    57   26   52 1  
    58   28   53 1  
    59   29   54 1  
    60   31   55 1  
    61   32   56 1  
    62   34   57 1  
    63   34   58 1  
    64   35   59 1  
    65   35   60 1  
    66   36   61 1  
    67   36   62 1  
    68   37   63 1  
    69   38   64 1  
    70   38   65 1  
    71   38   66 1  
    72   39   67 1  
    73   39   68 1  
@<TRIPOS>SUBSTRUCTURE
     1 XR1         1

