### 
### Created by X-TOOL on Mon Sep 10 21:13:10 2018
### 

@<TRIPOS>MOLECULE
4eqj_ligand
   94    95     1     0     0
SMALL
GAST_HUCK


@<TRIPOS>ATOM
      1 N           2.4970    4.6270    8.1240 N.4       1 GLU         0.2377
      2 CA          3.6550    4.0680    8.8930 C.3       1 GLU         0.0621
      3 C           3.1870    3.5500   10.2360 C.2       1 GLU         0.2265
      4 O           3.0600    4.3030   11.1900 O.2       1 GLU        -0.3907
      5 CB          4.7360    5.1180    9.1340 C.3       1 GLU        -0.0040
      6 N           2.9870    2.2450   10.3080 N.am      1 THR        -0.2586
      7 CA          2.6410    1.5930   11.5590 C.3       1 THR         0.1566
      8 C           3.7490    0.6680   12.0750 C.2       1 THR         0.2066
      9 O           3.7190   -0.5460   11.8260 O.2       1 THR        -0.3943
     10 CB          1.3950    0.7350   11.3820 C.3       1 THR         0.0924
     11 OG1         0.3440    1.5340   10.8170 O.3       1 THR        -0.3874
     12 CG2         0.9900    0.1580   12.7160 C.3       1 THR        -0.0346
     13 N           4.7060    1.2230   12.8130 N.am      1 PHE        -0.2619
     14 CA          5.8790    0.4340   13.2080 C.3       1 PHE         0.1404
     15 C           5.7080   -0.2020   14.5720 C.2       1 PHE         0.2061
     16 O           5.0670    0.3330   15.4780 O.2       1 PHE        -0.3942
     17 CB          7.1650    1.2430   13.1420 C.3       1 PHE         0.0214
     18 CG          7.3800    1.8950   11.8160 C.ar      1 PHE        -0.0386
     19 CD1         7.6560    1.1310   10.6830 C.ar      1 PHE        -0.0601
     20 CD2         7.2290    3.2620   11.6750 C.ar      1 PHE        -0.0601
     21 CE1         7.8200    1.7340    9.4430 C.ar      1 PHE        -0.0686
     22 CE2         7.3950    3.8700   10.4400 C.ar      1 PHE        -0.0686
     23 CZ          7.6880    3.1050    9.3240 C.ar      1 PHE        -0.0687
     24 N           6.2880   -1.3720   14.6900 N.am      1 TYR        -0.2620
     25 CA          5.8090   -2.3430   15.6350 C.3       1 TYR         0.1390
     26 C           6.5470   -3.6270   15.3030 C.2       1 TYR         0.2057
     27 O           6.6060   -4.0670   14.1460 O.2       1 TYR        -0.3942
     28 CB          4.2870   -2.5340   15.5190 C.3       1 TYR         0.0163
     29 CG          3.8410   -3.9190   15.9210 C.ar      1 TYR        -0.0493
     30 CD1         3.7390   -4.2740   17.2590 C.ar      1 TYR        -0.0685
     31 CD2         3.6000   -4.8940   14.9650 C.ar      1 TYR        -0.0685
     32 CE1         3.3910   -5.5550   17.6330 C.ar      1 TYR        -0.0398
     33 CE2         3.2450   -6.1760   15.3270 C.ar      1 TYR        -0.0398
     34 CZ          3.1430   -6.5030   16.6610 C.ar      1 TYR         0.0805
     35 OH          2.7950   -7.7840   17.0200 O.3       1 TYR        -0.3376
     36 N           7.1360   -4.1940   16.3410 N.am      1 VAL        -0.2633
     37 CA          8.0850   -5.2600   16.2130 C.3       1 VAL         0.1332
     38 C           7.9050   -6.1840   17.4100 C.2       1 VAL         0.2036
     39 O           8.4170   -5.9030   18.4930 O.2       1 VAL        -0.3944
     40 CB          9.5170   -4.7110   16.2650 C.3       1 VAL        -0.0063
     41 CG1        10.4890   -5.8360   16.5840 C.3       1 VAL        -0.0584
     42 CG2         9.8740   -3.9910   14.9680 C.3       1 VAL        -0.0584
     43 N           7.1710   -7.2720   17.2080 N.am      1 ASP        -0.2697
     44 CA          6.9500   -8.2810   18.2440 C.3       1 ASP         0.0916
     45 C           8.0010   -9.3920   18.1870 C.2       1 ASP         0.0598
     46 O           8.4102   -9.8289   17.0783 O.co2     1 ASP        -0.5666
     47 CB          5.5480   -8.8880   18.0880 C.3       1 ASP        -0.0300
     48 O           8.4605   -9.8735   19.2569 O.co2     1 ASP        -0.5666
     49 H1          2.8195    4.9688    7.2322 H         1 GLU         0.2015
     50 H2          2.0824    5.3844    8.6441 H         1 GLU         0.2015
     51 H3          1.8100    3.9039    7.9782 H         1 GLU         0.2015
     52 H4          4.0885    3.2377    8.3163 H         1 GLU         0.1095
     53 H5          5.5649    4.6676    9.6997 H         1 GLU         0.0310
     54 H6          4.3125    5.9552    9.7082 H         1 GLU         0.0310
     55 H7          5.1098    5.4879    8.1679 H         1 GLU         0.0310
     56 H8          3.0763    1.6923    9.4794 H         1 THR         0.1885
     57 H9          2.4462    2.3714   12.3114 H         1 THR         0.0826
     58 H10         1.6208   -0.0920   10.6927 H         1 THR         0.0639
     59 H11        -0.4337    0.9998   10.7062 H         1 THR         0.2101
     60 H12         0.0902   -0.4619   12.5894 H         1 THR         0.0257
     61 H13         0.7757    0.9760   13.4195 H         1 THR         0.0257
     62 H14         1.8088   -0.4608   13.1117 H         1 THR         0.0257
     63 H15         4.6265    2.1780   13.0989 H         1 PHE         0.1885
     64 H16         5.9737   -0.3842   12.4789 H         1 PHE         0.0823
     65 H17         8.0121    0.5707   13.3428 H         1 PHE         0.0474
     66 H18         7.1265    2.0252   13.9144 H         1 PHE         0.0474
     67 H19         7.7436    0.0541   10.7710 H         1 PHE         0.0557
     68 H20         6.9780    3.8654   12.5399 H         1 PHE         0.0557
     69 H21         8.0507    1.1320    8.5715 H         1 PHE         0.0599
     70 H22         7.2953    4.9455   10.3482 H         1 PHE         0.0599
     71 H23         7.8138    3.5804    8.3580 H         1 PHE         0.0559
     72 H24         7.0753   -1.5919   14.1139 H         1 TYR         0.1885
     73 H25         6.0507   -2.0227   16.6592 H         1 TYR         0.0821
     74 H26         3.9888   -2.3576   14.4750 H         1 TYR         0.0453
     75 H27         3.7897   -1.8011   16.1713 H         1 TYR         0.0453
     76 H28         3.9364   -3.5312   18.0235 H         1 TYR         0.0530
     77 H29         3.6924   -4.6438   13.9143 H         1 TYR         0.0530
     78 H30         3.3128   -5.8154   18.6824 H         1 TYR         0.0525
     79 H31         3.0473   -6.9223   14.5661 H         1 TYR         0.0525
     80 H32         2.7673   -7.8497   17.9673 H         1 TYR         0.2458
     81 H33         6.9092   -3.8643   17.2574 H         1 VAL         0.1883
     82 H34         7.9203   -5.8042   15.2713 H         1 VAL         0.0802
     83 H35         9.5721   -3.9753   17.0809 H         1 VAL         0.0343
     84 H36        11.5132   -5.4364   16.6199 H         1 VAL         0.0234
     85 H37        10.4241   -6.6089   15.8040 H         1 VAL         0.0234
     86 H38        10.2329   -6.2765   17.5589 H         1 VAL         0.0234
     87 H39         9.1447   -3.1890   14.7812 H         1 VAL         0.0234
     88 H40         9.8532   -4.7072   14.1333 H         1 VAL         0.0234
     89 H41        10.8813   -3.5577   15.0544 H         1 VAL         0.0234
     90 H42         6.7518   -7.4073   16.3102 H         1 ASP         0.1875
     91 H43         7.0164   -7.7901   19.2261 H         1 ASP         0.0723
     92 H44         5.3875   -9.6456   18.8692 H         1 ASP         0.0270
     93 H45         5.4602   -9.3584   17.0975 H         1 ASP         0.0270
     94 H46         4.7921   -8.0949   18.1856 H         1 ASP         0.0270
@<TRIPOS>BOND
     1    1    2 1  
     2    2    3 1  
     3    2    5 1  
     4    3    4 2  
     5    3    6 am 
     6    6    7 1  
     7    7    8 1  
     8    7   10 1  
     9    8    9 2  
    10    8   13 am 
    11   10   11 1  
    12   10   12 1  
    13   13   14 1  
    14   14   15 1  
    15   14   17 1  
    16   15   16 2  
    17   15   24 am 
    18   17   18 1  
    19   18   19 ar 
    20   18   20 ar 
    21   19   21 ar 
    22   20   22 ar 
    23   21   23 ar 
    24   22   23 ar 
    25   24   25 1  
    26   25   26 1  
    27   25   28 1  
    28   26   27 2  
    29   26   36 am 
    30   28   29 1  
    31   29   30 ar 
    32   29   31 ar 
    33   30   32 ar 
    34   31   33 ar 
    35   32   34 ar 
    36   33   34 ar 
    37   34   35 1  
    38   36   37 1  
    39   37   38 1  
    40   37   40 1  
    41   38   39 2  
    42   38   43 am 
    43   40   41 1  
    44   40   42 1  
    45   43   44 1  
    46   44   45 1  
    47   44   47 1  
    48   45   46 ar 
    49   45   48 ar 
    50    1   49 1  
    51    1   50 1  
    52    1   51 1  
    53    2   52 1  
    54    5   53 1  
    55    5   54 1  
    56    5   55 1  
    57    6   56 1  
    58    7   57 1  
    59   10   58 1  
    60   11   59 1  
    61   12   60 1  
    62   12   61 1  
    63   12   62 1  
    64   13   63 1  
    65   14   64 1  
    66   17   65 1  
    67   17   66 1  
    68   19   67 1  
    69   20   68 1  
    70   21   69 1  
    71   22   70 1  
    72   23   71 1  
    73   24   72 1  
    74   25   73 1  
    75   28   74 1  
    76   28   75 1  
    77   30   76 1  
    78   31   77 1  
    79   32   78 1  
    80   33   79 1  
    81   35   80 1  
    82   36   81 1  
    83   37   82 1  
    84   40   83 1  
    85   41   84 1  
    86   41   85 1  
    87   41   86 1  
    88   42   87 1  
    89   42   88 1  
    90   42   89 1  
    91   43   90 1  
    92   44   91 1  
    93   47   92 1  
    94   47   93 1  
    95   47   94 1  
@<TRIPOS>SUBSTRUCTURE
     1 GLU         1

