### 
### Created by X-TOOL on Mon Sep 10 21:12:44 2018
### 

@<TRIPOS>MOLECULE
4er2_ligand
  110   109     1     0     0
SMALL
GAST_HUCK


@<TRIPOS>ATOM
      1 CA          2.8600   25.3270   20.0930 C.3       1 IVA         0.0397
      2 CB          1.4840   24.8890   20.5830 C.3       1 IVA        -0.0298
      3 CG1         0.4020   25.4700   19.6740 C.3       1 IVA        -0.0606
      4 CG2         1.2510   23.3880   20.7540 C.3       1 IVA        -0.0606
      5 C           3.0270   26.8360   20.1710 C.2       1 IVA         0.1785
      6 O           2.8980   27.5360   21.1540 O.2       1 IVA        -0.3969
      7 N           3.3910   27.2130   18.9640 N.am      1 VAL        -0.2654
      8 CA          3.8960   28.5530   18.6470 C.3       1 VAL         0.1332
      9 C           3.4620   28.9640   17.2340 C.2       1 VAL         0.2042
     10 O           3.4300   28.0840   16.3520 O.2       1 VAL        -0.3944
     11 CB          5.3810   28.5990   18.9350 C.3       1 VAL        -0.0063
     12 CG1         6.2870   28.9460   17.8130 C.3       1 VAL        -0.0584
     13 CG2         5.8850   29.0650   20.3080 C.3       1 VAL        -0.0584
     14 N           2.9420   30.1740   17.1360 N.am      1 VAL        -0.2635
     15 CA          2.4810   30.8530   15.9210 C.3       1 VAL         0.1331
     16 C           3.2560   32.1250   15.7040 C.2       1 VAL         0.2022
     17 O           2.9260   33.0720   16.4570 O.2       1 VAL        -0.3945
     18 CB          0.9600   31.0600   15.9490 C.3       1 VAL        -0.0063
     19 CG1         0.5030   31.6630   14.6070 C.3       1 VAL        -0.0584
     20 CG2         0.1760   29.7940   16.3250 C.3       1 VAL        -0.0584
     21 N           4.2550   32.0950   14.8200 N.am      1 STA        -0.2793
     22 CA          5.1250   33.3130   14.6520 C.3       1 STA         0.0703
     23 CB          6.5480   33.0030   15.1260 C.3       1 STA        -0.0250
     24 CG          6.6250   32.4210   16.5110 C.3       1 STA        -0.0446
     25 CD1         8.0080   31.9470   16.9330 C.3       1 STA        -0.0626
     26 CD2         6.2840   33.5640   17.6690 C.3       1 STA        -0.0626
     27 CH          5.1420   33.8020   13.2200 C.3       1 STA         0.0947
     28 OH          5.6070   32.7440   12.3630 O.3       1 STA        -0.3872
     29 CM          3.7370   34.1780   12.7080 C.3       1 STA         0.0655
     30 C           3.4140   35.6300   13.0990 C.2       1 STA         0.1808
     31 O           2.8250   35.7090   14.1540 O.2       1 STA        -0.3968
     32 N           3.7630   36.6750   12.4300 N.am      1 ALA        -0.2658
     33 CA          3.3790   38.0640   12.7460 C.3       1 ALA         0.1280
     34 C           1.9250   38.3230   12.3910 C.2       1 ALA         0.2017
     35 O           1.7580   38.9230   11.3560 O.2       1 ALA        -0.3945
     36 CB          4.2260   38.9650   11.8660 C.3       1 ALA        -0.0244
     37 N           0.9420   37.8620   13.0910 N.am      1 STA        -0.2794
     38 CA         -0.5050   38.0040   13.0580 C.3       1 STA         0.0697
     39 CB         -1.2260   36.6870   13.0800 C.3       1 STA        -0.0250
     40 CG         -0.5150   35.5650   12.3400 C.3       1 STA        -0.0446
     41 CD1        -1.1660   34.2270   12.5960 C.3       1 STA        -0.0626
     42 CD2        -0.5580   35.8460   10.7730 C.3       1 STA        -0.0626
     43 CH         -1.0400   38.9330   14.1640 C.3       1 STA         0.0894
     44 OH         -0.8030   38.3550   15.4410 O.3       1 STA        -0.3878
     45 CM         -0.4120   40.3050   14.0930 C.3       1 STA         0.0284
     46 C          -0.9000   41.2520   15.1680 C.2       1 STA         0.0373
     47 O          -0.7080   41.0620   16.3770 O.co2     1 STA        -0.5689
     48 OXT        -1.5070   42.3400   14.7190 O.co2     1 STA        -0.5689
     49 H1          2.9853   25.0075   19.0479 H         1 IVA         0.0505
     50 H2          3.6299   24.8499   20.7172 H         1 IVA         0.0505
     51 H3          1.3579   25.3353   21.5804 H         1 IVA         0.0320
     52 H4         -0.5879   25.1509   20.0321 H         1 IVA         0.0234
     53 H5          0.5539   25.1090   18.6461 H         1 IVA         0.0234
     54 H6          0.4609   26.5683   19.6894 H         1 IVA         0.0234
     55 H7          2.0293   22.9683   21.4083 H         1 IVA         0.0234
     56 H8          1.2938   22.8960   19.7711 H         1 IVA         0.0234
     57 H9          0.2623   23.2195   21.2057 H         1 IVA         0.0234
     58 H10         3.3192   26.5480   18.2206 H         1 VAL         0.1883
     59 H11         3.4195   29.2649   19.3369 H         1 VAL         0.0802
     60 H12         5.5761   27.5198   19.0196 H         1 VAL         0.0343
     61 H13         7.3283   28.9408   18.1675 H         1 VAL         0.0234
     62 H14         6.0340   29.9469   17.4335 H         1 VAL         0.0234
     63 H15         6.1707   28.2076   17.0060 H         1 VAL         0.0234
     64 H16         5.1617   28.7715   21.0830 H         1 VAL         0.0234
     65 H17         5.9961   30.1594   20.3058 H         1 VAL         0.0234
     66 H18         6.8583   28.5981   20.5192 H         1 VAL         0.0234
     67 H19         2.8522   30.6868   17.9898 H         1 VAL         0.1883
     68 H20         2.6992   30.1927   15.0687 H         1 VAL         0.0802
     69 H21         0.7479   31.8033   16.7316 H         1 VAL         0.0343
     70 H22        -0.5867   31.8124   14.6243 H         1 VAL         0.0234
     71 H23         0.7661   30.9771   13.7883 H         1 VAL         0.0234
     72 H24         1.0032   32.6301   14.4502 H         1 VAL         0.0234
     73 H25         0.5426   29.4081   17.2876 H         1 VAL         0.0234
     74 H26         0.3174   29.0303   15.5461 H         1 VAL         0.0234
     75 H27        -0.8934   30.0369   16.4107 H         1 VAL         0.0234
     76 H28         4.4241   31.2735   14.2754 H         1 STA         0.1856
     77 H29         4.7152   34.1165   15.2816 H         1 STA         0.0583
     78 H30         7.1273   33.9380   15.1124 H         1 STA         0.0291
     79 H31         6.9960   32.2838   14.4245 H         1 STA         0.0291
     80 H32         5.9108   31.5865   16.5695 H         1 STA         0.0296
     81 H33         7.9606   31.5407   17.9541 H         1 STA         0.0232
     82 H34         8.7095   32.7939   16.9077 H         1 STA         0.0232
     83 H35         8.3537   31.1637   16.2424 H         1 STA         0.0232
     84 H36         5.2903   33.9951   17.4772 H         1 STA         0.0232
     85 H37         7.0422   34.3601   17.6329 H         1 STA         0.0232
     86 H38         6.2937   33.0931   18.6631 H         1 STA         0.0232
     87 H39         5.8083   34.6741   13.1466 H         1 STA         0.0642
     88 H40         6.4844   32.4894   12.6236 H         1 STA         0.2101
     89 H41         2.9920   33.5043   13.1564 H         1 STA         0.0529
     90 H42         3.7084   34.0793   11.6128 H         1 STA         0.0529
     91 H43         4.3436   36.5321   11.6284 H         1 ALA         0.1882
     92 H44         3.5531   38.2750   13.8114 H         1 ALA         0.0797
     93 H45         3.9736   40.0165   12.0673 H         1 ALA         0.0277
     94 H46         4.0276   38.7363   10.8085 H         1 ALA         0.0277
     95 H47         5.2906   38.7952   12.0844 H         1 ALA         0.0277
     96 H48         1.2493   37.2652   13.8323 H         1 STA         0.1855
     97 H49        -0.7468   38.4818   12.0971 H         1 STA         0.0583
     98 H50        -2.2148   36.8292   12.6196 H         1 STA         0.0291
     99 H51        -1.3505   36.3812   14.1293 H         1 STA         0.0291
    100 H52         0.5313   35.5259   12.6771 H         1 STA         0.0296
    101 H53        -0.6242   33.4442   12.0449 H         1 STA         0.0232
    102 H54        -2.2119   34.2572   12.2566 H         1 STA         0.0232
    103 H55        -1.1362   34.0047   13.6729 H         1 STA         0.0232
    104 H56        -0.0881   36.8179   10.5618 H         1 STA         0.0232
    105 H57        -1.6037   35.8625   10.4320 H         1 STA         0.0232
    106 H58        -0.0119   35.0518   10.2429 H         1 STA         0.0232
    107 H59        -2.1256   39.0438   14.0254 H         1 STA         0.0635
    108 H60        -1.1359   38.9343   16.1163 H         1 STA         0.2100
    109 H61        -0.6450   40.7436   13.1115 H         1 STA         0.0456
    110 H62         0.6776   40.1943   14.1958 H         1 STA         0.0456
@<TRIPOS>BOND
     1    8    7 1  
     2    8   11 1  
     3    9    8 1  
     4    9   10 2  
     5   11   13 1  
     6   11   12 1  
     7   15   14 1  
     8   15   18 1  
     9   16   15 1  
    10   16   17 2  
    11   18   20 1  
    12   18   19 1  
    13   14    9 am 
    14   32   33 1  
    15   33   36 1  
    16   33   34 1  
    17   34   35 2  
    18    1    2 1  
    19    5    1 1  
    20    2    3 1  
    21    2    4 1  
    22    5    6 2  
    23    7    5 am 
    24   21   16 am 
    25   22   21 1  
    26   22   23 1  
    27   27   22 1  
    28   23   24 1  
    29   24   25 1  
    30   24   26 1  
    31   27   28 1  
    32   29   27 1  
    33   30   29 1  
    34   30   31 2  
    35   32   30 am 
    36   34   37 am 
    37   37   38 1  
    38   38   39 1  
    39   38   43 1  
    40   39   40 1  
    41   40   41 1  
    42   40   42 1  
    43   43   44 1  
    44   43   45 1  
    45   45   46 1  
    46   46   47 ar 
    47   46   48 ar 
    48    1   49 1  
    49    1   50 1  
    50    2   51 1  
    51    3   52 1  
    52    3   53 1  
    53    3   54 1  
    54    4   55 1  
    55    4   56 1  
    56    4   57 1  
    57    7   58 1  
    58    8   59 1  
    59   11   60 1  
    60   12   61 1  
    61   12   62 1  
    62   12   63 1  
    63   13   64 1  
    64   13   65 1  
    65   13   66 1  
    66   14   67 1  
    67   15   68 1  
    68   18   69 1  
    69   19   70 1  
    70   19   71 1  
    71   19   72 1  
    72   20   73 1  
    73   20   74 1  
    74   20   75 1  
    75   21   76 1  
    76   22   77 1  
    77   23   78 1  
    78   23   79 1  
    79   24   80 1  
    80   25   81 1  
    81   25   82 1  
    82   25   83 1  
    83   26   84 1  
    84   26   85 1  
    85   26   86 1  
    86   27   87 1  
    87   28   88 1  
    88   29   89 1  
    89   29   90 1  
    90   32   91 1  
    91   33   92 1  
    92   36   93 1  
    93   36   94 1  
    94   36   95 1  
    95   37   96 1  
    96   38   97 1  
    97   39   98 1  
    98   39   99 1  
    99   40  100 1  
   100   41  101 1  
   101   41  102 1  
   102   41  103 1  
   103   42  104 1  
   104   42  105 1  
   105   42  106 1  
   106   43  107 1  
   107   44  108 1  
   108   45  109 1  
   109   45  110 1  
@<TRIPOS>SUBSTRUCTURE
     1 IVA         1

