### 
### Created by X-TOOL on Mon Sep 10 21:13:11 2018
### 

@<TRIPOS>MOLECULE
4ere_ligand
   65    67     1     0     0
SMALL
GAST_HUCK


@<TRIPOS>ATOM
      1 CL1         6.8170   24.5610   22.6940 Cl        1 0R2        -0.0771
      2 C1          8.3220   25.0140   21.8320 C.ar      1 0R2         0.0330
      3 C2          8.1530   25.8890   20.7410 C.ar      1 0R2        -0.0545
      4 C3          9.2580   26.2910   19.9530 C.ar      1 0R2        -0.0573
      5 C4          9.6140   24.5190   22.1620 C.ar      1 0R2        -0.0545
      6 C5         10.7110   24.9150   21.3830 C.ar      1 0R2        -0.0573
      7 C6         10.5380   25.7980   20.2830 C.ar      1 0R2        -0.0151
      8 C7         11.7560   26.2730   19.4860 C.3       1 0R2         0.0939
      9 N1         11.6390   25.9590   18.0710 N.am      1 0R2        -0.2333
     10 C8         11.2760   24.5800   17.7880 C.3       1 0R2         0.1471
     11 C9         12.8120   24.1200   17.4490 C.2       1 0R2         0.2604
     12 O4         13.7910   24.8510   17.4610 O.2       1 0R2        -0.3678
     13 C11        11.9220   26.8180   17.0340 C.2       1 0R2         0.1880
     14 O1         11.7930   26.4570   15.8880 O.2       1 0R2        -0.3961
     15 C12        12.4820   28.2390   17.3520 C.3       1 0R2         0.0628
     16 C13        11.3600   29.2640   17.1030 C.3       1 0R2         0.0201
     17 C14        11.9110   30.6820   16.8340 C.2       1 0R2         0.0373
     18 O2         11.8950   31.5220   17.6840 O.co2     1 0R2        -0.5688
     19 O3         12.3700   30.8950   15.5950 O.co2     1 0R2        -0.5688
     20 C15        13.0990   28.2900   18.7360 C.3       1 0R2        -0.0151
     21 C16        12.1450   27.7790   19.7870 C.3       1 0R2         0.0283
     22 C17        12.5630   28.0520   21.2290 C.ar      1 0R2        -0.0352
     23 C18        13.9190   27.9980   21.6120 C.ar      1 0R2        -0.0597
     24 C19        14.2970   28.1450   22.9560 C.ar      1 0R2        -0.0680
     25 C20        13.3160   28.3540   23.9370 C.ar      1 0R2        -0.0548
     26 C21        11.9770   28.4190   23.5650 C.ar      1 0R2         0.0338
     27 CL2        10.7840   28.6540   24.7730 Cl        1 0R2        -0.0725
     28 C22        11.5900   28.2790   22.2400 C.ar      1 0R2        -0.0460
     29 C10        10.2490   24.3790   16.5810 C.3       1 0R2        -0.0135
     30 C23         8.7940   24.7600   16.9540 C.3       1 0R2        -0.0609
     31 O5         12.8170   22.7390   17.1720 O.3       1 0R2        -0.2693
     32 C24        13.9950   21.9680   16.6390 C.3       1 0R2         0.0900
     33 C25        13.4470   20.5590   16.5200 C.3       1 0R2        -0.0319
     34 C26        15.0750   22.0720   17.7190 C.3       1 0R2        -0.0319
     35 C27        14.2290   22.5700   15.2440 C.3       1 0R2        -0.0319
     36 H           7.1574   26.2617   20.5003 H         1 0R2         0.0606
     37 H           9.1228   26.9673   19.1089 H         1 0R2         0.0558
     38 H           9.7493   23.8431   23.0064 H         1 0R2         0.0606
     39 H          11.7064   24.5417   21.6237 H         1 0R2         0.0558
     40 H          12.6106   25.6976   19.8419 H         1 0R2         0.0750
     41 H          10.7299   24.0359   18.5586 H         1 0R2         0.0820
     42 H          13.3075   28.4957   16.6881 H         1 0R2         0.0558
     43 H          10.7367   29.3070   17.9962 H         1 0R2         0.0458
     44 H          10.8003   28.9460   16.2234 H         1 0R2         0.0458
     45 H          13.3431   29.3269   18.9668 H         1 0R2         0.0320
     46 H          13.9877   27.6589   18.7409 H         1 0R2         0.0320
     47 H          11.2358   28.3748   19.7068 H         1 0R2         0.0508
     48 H          14.6852   27.8397   20.8531 H         1 0R2         0.0558
     49 H          15.3492   28.0969   23.2365 H         1 0R2         0.0599
     50 H          13.6009   28.4647   24.9833 H         1 0R2         0.0565
     51 H          10.5351   28.3434   21.9732 H         1 0R2         0.0562
     52 H          10.2568   23.3231   16.3108 H         1 0R2         0.0311
     53 H          10.5639   25.0298   15.7653 H         1 0R2         0.0311
     54 H           8.4577   24.1370   17.7828 H         1 0R2         0.0232
     55 H           8.7585   25.8089   17.2485 H         1 0R2         0.0232
     56 H           8.1459   24.6012   16.0922 H         1 0R2         0.0232
     57 H          13.1253   20.2115   17.5018 H         1 0R2         0.0261
     58 H          12.5980   20.5572   15.8364 H         1 0R2         0.0261
     59 H          14.2252   19.8990   16.1366 H         1 0R2         0.0261
     60 H          15.3253   23.1204   17.8810 H         1 0R2         0.0261
     61 H          14.7020   21.6386   18.6470 H         1 0R2         0.0261
     62 H          15.9640   21.5307   17.3953 H         1 0R2         0.0261
     63 H          13.3357   22.4309   14.6351 H         1 0R2         0.0261
     64 H          14.4425   23.6345   15.3402 H         1 0R2         0.0261
     65 H          15.0742   22.0699   14.7710 H         1 0R2         0.0261
@<TRIPOS>BOND
     1    1    2 1  
     2    2    3 ar 
     3    2    5 ar 
     4    3    4 ar 
     5    4    7 ar 
     6    5    6 ar 
     7    6    7 ar 
     8    7    8 1  
     9    8    9 1  
    10    8   21 1  
    11    9   10 1  
    12    9   13 am 
    13   10   11 1  
    14   10   29 1  
    15   11   12 2  
    16   11   31 1  
    17   13   14 2  
    18   13   15 1  
    19   15   16 1  
    20   15   20 1  
    21   16   17 1  
    22   17   18 ar 
    23   17   19 ar 
    24   20   21 1  
    25   21   22 1  
    26   22   23 ar 
    27   22   28 ar 
    28   23   24 ar 
    29   24   25 ar 
    30   25   26 ar 
    31   26   27 1  
    32   26   28 ar 
    33   29   30 1  
    34   31   32 1  
    35   32   33 1  
    36   32   34 1  
    37   32   35 1  
    38    3   36 1  
    39    4   37 1  
    40    5   38 1  
    41    6   39 1  
    42    8   40 1  
    43   10   41 1  
    44   15   42 1  
    45   16   43 1  
    46   16   44 1  
    47   20   45 1  
    48   20   46 1  
    49   21   47 1  
    50   23   48 1  
    51   24   49 1  
    52   25   50 1  
    53   28   51 1  
    54   29   52 1  
    55   29   53 1  
    56   30   54 1  
    57   30   55 1  
    58   30   56 1  
    59   33   57 1  
    60   33   58 1  
    61   33   59 1  
    62   34   60 1  
    63   34   61 1  
    64   34   62 1  
    65   35   63 1  
    66   35   64 1  
    67   35   65 1  
@<TRIPOS>SUBSTRUCTURE
     1 0R2         1

