### 
### Created by X-TOOL on Mon Sep 10 21:13:11 2018
### 

@<TRIPOS>MOLECULE
4erf_ligand
   60    62     1     0     0
SMALL
GAST_HUCK


@<TRIPOS>ATOM
      1 C17       -16.2000    2.5780  -15.1270 C.ar      1 0R3        -0.0460
      2 C16       -17.1310    3.5980  -15.0790 C.ar      1 0R3         0.0338
      3 CL2       -16.6580    5.0130  -14.2760 Cl        1 0R3        -0.0725
      4 C15       -18.3540    3.4980  -15.7150 C.ar      1 0R3        -0.0548
      5 C14       -18.6690    2.3290  -16.4450 C.ar      1 0R3        -0.0680
      6 C13       -17.7270    1.2860  -16.5120 C.ar      1 0R3        -0.0597
      7 C6        -16.4780    1.4050  -15.8540 C.ar      1 0R3        -0.0354
      8 C2        -15.3970    0.3340  -15.9730 C.3       1 0R3         0.0256
      9 C3        -15.8800   -1.0360  -15.5960 C.3       1 0R3        -0.0228
     10 C4        -14.7530   -2.0620  -15.4650 C.3       1 0R3         0.0624
     11 C23       -13.9350   -1.9460  -14.1610 C.3       1 0R3         0.0125
     12 C25       -14.7890   -2.1830  -12.9140 C.2       1 0R3         0.0343
     13 O3        -15.5260   -1.3630  -12.4310 O.co2     1 0R3        -0.5692
     14 O2        -14.6350   -3.4510  -12.3850 O.co2     1 0R3        -0.5692
     15 C24       -15.3940   -3.4360  -15.5690 C.3       1 0R3        -0.0512
     16 C5        -13.7380   -1.9480  -16.6200 C.2       1 0R3         0.2083
     17 O1        -12.8710   -2.8140  -16.6780 O.2       1 0R3        -0.3438
     18 N1        -13.8240   -0.9130  -17.5360 N.am      1 0R3        -0.2499
     19 C18       -13.0890   -1.0350  -18.7890 C.3       1 0R3         0.0731
     20 C19       -11.5780   -1.2090  -18.4880 C.3       1 0R3        -0.0298
     21 C22       -10.6990   -0.0520  -19.0120 C.3       1 0R3        -0.0631
     22 C20       -13.6990   -2.1230  -19.6950 C.3       1 0R3         0.0758
     23 O4        -15.1090   -2.2280  -19.5420 O.3       1 0R3        -0.3898
     24 C21       -13.5130   -1.7570  -21.1560 C.3       1 0R3        -0.0367
     25 C1        -14.6260    0.3290  -17.3080 C.3       1 0R3         0.0912
     26 C7        -13.9150    1.6460  -17.5450 C.ar      1 0R3        -0.0151
     27 C8        -12.7980    2.0510  -16.7610 C.ar      1 0R3        -0.0573
     28 C9        -12.2120    3.2990  -17.0070 C.ar      1 0R3        -0.0545
     29 C10       -12.7230    4.1440  -18.0130 C.ar      1 0R3         0.0330
     30 CL1       -12.0140    5.6910  -18.2350 Cl        1 0R3        -0.0771
     31 C11       -13.8140    3.7720  -18.8000 C.ar      1 0R3        -0.0545
     32 C12       -14.4120    2.5100  -18.5640 C.ar      1 0R3        -0.0573
     33 H1        -15.2556    2.6811  -14.6049 H         1 0R3         0.0562
     34 H2        -19.0678    4.3115  -15.6544 H         1 0R3         0.0565
     35 H3        -19.6252    2.2373  -16.9473 H         1 0R3         0.0599
     36 H4        -17.9583    0.3861  -17.0704 H         1 0R3         0.0558
     37 H5        -14.6494    0.6014  -15.2117 H         1 0R3         0.0505
     38 H6        -16.5804   -1.3841  -16.3695 H         1 0R3         0.0285
     39 H7        -16.4036   -0.9680  -14.6310 H         1 0R3         0.0285
     40 H8        -13.5005   -0.9370  -14.1050 H         1 0R3         0.0422
     41 H9        -13.1273   -2.6924  -14.1830 H         1 0R3         0.0422
     42 H10       -15.9721   -3.5012  -16.5026 H         1 0R3         0.0223
     43 H11       -16.0641   -3.5939  -14.7111 H         1 0R3         0.0223
     44 H12       -14.6099   -4.2074  -15.5687 H         1 0R3         0.0223
     45 H13       -13.1976   -0.0833  -19.3298 H         1 0R3         0.0588
     46 H14       -11.2366   -2.1434  -18.9573 H         1 0R3         0.0286
     47 H15       -11.4474   -1.2770  -17.3979 H         1 0R3         0.0286
     48 H16        -9.6463   -0.2484  -18.7605 H         1 0R3         0.0231
     49 H17       -11.0177    0.8914  -18.5446 H         1 0R3         0.0231
     50 H18       -10.8069    0.0250  -20.1040 H         1 0R3         0.0231
     51 H19       -13.2187   -3.0870  -19.4715 H         1 0R3         0.0614
     52 H20       -15.5134   -1.3981  -19.7662 H         1 0R3         0.2099
     53 H21       -13.9527   -2.5416  -21.7894 H         1 0R3         0.0255
     54 H22       -12.4394   -1.6659  -21.3774 H         1 0R3         0.0255
     55 H23       -14.0122   -0.7983  -21.3603 H         1 0R3         0.0255
     56 H24       -15.4029    0.2920  -18.0858 H         1 0R3         0.0750
     57 H25       -12.4068    1.4030  -15.9850 H         1 0R3         0.0558
     58 H26       -11.3588    3.6177  -16.4192 H         1 0R3         0.0606
     59 H27       -14.1937    4.4318  -19.5717 H         1 0R3         0.0606
     60 H28       -15.2579    2.1974  -19.1656 H         1 0R3         0.0558
@<TRIPOS>BOND
     1    1    2 ar 
     2    1    7 ar 
     3    2    3 1  
     4    2    4 ar 
     5    4    5 ar 
     6    5    6 ar 
     7    6    7 ar 
     8    7    8 1  
     9    8    9 1  
    10    8   25 1  
    11    9   10 1  
    12   10   11 1  
    13   10   15 1  
    14   10   16 1  
    15   11   12 1  
    16   12   13 ar 
    17   12   14 ar 
    18   16   17 2  
    19   16   18 am 
    20   18   19 1  
    21   18   25 1  
    22   19   20 1  
    23   19   22 1  
    24   20   21 1  
    25   22   23 1  
    26   22   24 1  
    27   25   26 1  
    28   26   27 ar 
    29   26   32 ar 
    30   27   28 ar 
    31   28   29 ar 
    32   29   30 1  
    33   29   31 ar 
    34   31   32 ar 
    35    1   33 1  
    36    4   34 1  
    37    5   35 1  
    38    6   36 1  
    39    8   37 1  
    40    9   38 1  
    41    9   39 1  
    42   11   40 1  
    43   11   41 1  
    44   15   42 1  
    45   15   43 1  
    46   15   44 1  
    47   19   45 1  
    48   20   46 1  
    49   20   47 1  
    50   21   48 1  
    51   21   49 1  
    52   21   50 1  
    53   22   51 1  
    54   23   52 1  
    55   24   53 1  
    56   24   54 1  
    57   24   55 1  
    58   25   56 1  
    59   27   57 1  
    60   28   58 1  
    61   31   59 1  
    62   32   60 1  
@<TRIPOS>SUBSTRUCTURE
     1 0R3         1

