### 
### Created by X-TOOL on Mon Sep 10 21:12:47 2018
### 

@<TRIPOS>MOLECULE
4erk_ligand
   40    42     1     0     0
SMALL
GAST_HUCK


@<TRIPOS>ATOM
      1 N         -16.1700   11.5950   40.3310 N.pl3     1 OLO        -0.2304
      2 C         -17.3070   10.9990   40.8410 C.2       1 OLO         0.1042
      3 N1        -18.2010   11.6870   41.6460 N.2       1 OLO        -0.3043
      4 C3A       -17.5580   12.9100   41.6680 C.ar      1 OLO         0.0918
      5 C7A       -16.3480   12.8600   40.8850 C.ar      1 OLO         0.1419
      6 C1        -17.9310   14.1240   42.3390 C.ar      1 OLO         0.1222
      7 N2        -17.0780   15.2450   42.2000 N.ar      1 OLO        -0.2560
      8 C2        -15.8920   15.2120   41.4290 C.ar      1 OLO         0.1542
      9 N3        -15.5210   14.0210   40.7700 N.ar      1 OLO        -0.2645
     10 C3        -15.1040   11.0360   39.4660 C.3       1 OLO         0.0485
     11 N4        -15.0640   16.3990   41.3210 N.pl3     1 OLO        -0.2953
     12 C4        -15.4540   17.8110   41.4880 C.3       1 OLO         0.0526
     13 C5        -14.3390   18.6630   42.1060 C.3       1 OLO         0.0644
     14 O         -14.3720   18.5960   43.5260 O.3       1 OLO        -0.3930
     15 N5        -19.1570   14.1480   43.1310 N.pl3     1 OLO        -0.2919
     16 C6        -19.7900   15.1930   43.9790 C.3       1 OLO         0.0632
     17 C7        -17.9580   16.5340   45.1360 C.ar      1 OLO        -0.0584
     18 C8        -17.2480   17.7320   45.3730 C.ar      1 OLO        -0.0685
     19 C9        -17.6120   18.9170   44.6800 C.ar      1 OLO        -0.0687
     20 C10       -18.6880   18.8980   43.7490 C.ar      1 OLO        -0.0685
     21 C11       -19.4050   17.6950   43.5070 C.ar      1 OLO        -0.0584
     22 C12       -19.0450   16.5060   44.1970 C.ar      1 OLO        -0.0206
     23 H1        -17.5072    9.9554   40.6029 H         1 OLO         0.1309
     24 H2        -14.3526   11.8130   39.2616 H         1 OLO         0.0576
     25 H3        -15.5435   10.6925   38.5179 H         1 OLO         0.0576
     26 H4        -14.6247   10.1877   39.9765 H         1 OLO         0.0576
     27 H5        -14.0722   16.2330   41.0981 H         1 OLO         0.1845
     28 H6        -16.3365   17.8574   42.1430 H         1 OLO         0.0545
     29 H7        -15.7076   18.2253   40.5011 H         1 OLO         0.0545
     30 H8        -14.4703   19.7091   41.7924 H         1 OLO         0.0577
     31 H9        -13.3656   18.2933   41.7513 H         1 OLO         0.0577
     32 H10       -13.6731   19.1309   43.8835 H         1 OLO         0.2095
     33 H11       -19.6890   13.2667   43.0955 H         1 OLO         0.1883
     34 H12       -19.9591   14.7476   44.9705 H         1 OLO         0.0689
     35 H13       -20.7577   15.4418   43.5189 H         1 OLO         0.0689
     36 H14       -17.6809   15.6299   45.6661 H         1 OLO         0.0557
     37 H15       -16.4278   17.7468   46.0816 H         1 OLO         0.0599
     38 H16       -17.0691   19.8377   44.8606 H         1 OLO         0.0559
     39 H17       -18.9619   19.8049   43.2222 H         1 OLO         0.0599
     40 H18       -20.2246   17.6844   42.7977 H         1 OLO         0.0557
@<TRIPOS>BOND
     1    1   10 1  
     2    1    5 1  
     3    1    2 1  
     4    2    3 2  
     5    3    4 1  
     6    4    6 ar 
     7    4    5 ar 
     8    5    9 ar 
     9    9    8 ar 
    10    8   11 1  
    11    8    7 ar 
    12    7    6 ar 
    13    6   15 1  
    14   15   16 1  
    15   16   22 1  
    16   22   21 ar 
    17   22   17 ar 
    18   17   18 ar 
    19   18   19 ar 
    20   19   20 ar 
    21   20   21 ar 
    22   11   12 1  
    23   12   13 1  
    24   13   14 1  
    25    2   23 1  
    26   10   24 1  
    27   10   25 1  
    28   10   26 1  
    29   11   27 1  
    30   12   28 1  
    31   12   29 1  
    32   13   30 1  
    33   13   31 1  
    34   14   32 1  
    35   15   33 1  
    36   16   34 1  
    37   16   35 1  
    38   17   36 1  
    39   18   37 1  
    40   19   38 1  
    41   20   39 1  
    42   21   40 1  
@<TRIPOS>SUBSTRUCTURE
     1 OLO         1

