### 
### Created by X-TOOL on Mon Sep 10 21:13:10 2018
### 

@<TRIPOS>MOLECULE
4erw_ligand
   65    72     1     0     0
SMALL
GAST_HUCK


@<TRIPOS>ATOM
      1 O4          0.1090  -10.3950   27.0790 O.3       1 STU        -0.3153
      2 C25        -1.3380  -10.1870   27.2060 C.3       1 STU         0.1663
      3 C24        -2.1750  -10.5230   25.9560 C.3       1 STU         0.0455
      4 C23        -1.2570  -10.8750   24.8530 C.3       1 STU         0.0141
      5 C22        -0.2640   -9.7690   24.7040 C.3       1 STU         0.1552
      6 C21         0.6950   -9.7820   25.9750 C.3       1 STU         0.2002
      7 C26         1.8400  -10.7380   25.6710 C.3       1 STU        -0.0063
      8 N2          1.1580   -8.3350   26.1810 N.pl3     1 STU        -0.2358
      9 C18         0.4020   -7.4870   26.9140 C.ar      1 STU         0.0861
     10 C19        -0.7870   -7.6990   27.5900 C.ar      1 STU         0.0859
     11 C6         -1.4450   -6.6360   28.3290 C.ar      1 STU        -0.0077
     12 C7         -0.8150   -5.2830   28.3510 C.ar      1 STU         0.0211
     13 C10         0.3680   -5.0600   27.6660 C.ar      1 STU        -0.0073
     14 C11         1.0050   -6.1670   26.9220 C.ar      1 STU        -0.0104
     15 C12         2.2510   -6.2780   26.1040 C.ar      1 STU        -0.0115
     16 C17         2.3350   -7.6060   25.6510 C.ar      1 STU         0.0664
     17 C16         3.4580   -7.9580   24.8300 C.ar      1 STU        -0.0416
     18 C15         4.4300   -7.0170   24.5150 C.ar      1 STU        -0.0743
     19 C14         4.3210   -5.6970   24.9760 C.ar      1 STU        -0.0762
     20 C13         3.2160   -5.3270   25.7810 C.ar      1 STU        -0.0703
     21 C9          0.7190   -3.6710   27.8680 C.3       1 STU        -0.0069
     22 N1         -0.2390   -3.1070   28.6350 N.4       1 STU         0.2674
     23 C8         -1.1710   -4.0150   28.9650 C.3       1 STU         0.1053
     24 O5         -2.2740   -3.7760   29.7170 O.3       1 STU        -0.3440
     25 C5         -2.7210   -7.2570   28.9420 C.ar      1 STU        -0.0114
     26 C20        -2.7600   -8.6430   28.5390 C.ar      1 STU         0.0661
     27 C1         -3.8310   -9.4880   28.9590 C.ar      1 STU        -0.0416
     28 C2         -4.8640   -8.9540   29.7770 C.ar      1 STU        -0.0743
     29 C3         -4.8290   -7.5780   30.1710 C.ar      1 STU        -0.0762
     30 C4         -3.7500   -6.7330   29.7530 C.ar      1 STU        -0.0703
     31 N3         -1.5710   -8.8530   27.7200 N.pl3     1 STU        -0.2401
     32 O6         -0.9630   -8.5490   24.5810 O.3       1 STU        -0.3686
     33 C27        -0.5720   -7.5750   23.6500 C.3       1 STU         0.0373
     34 N4         -2.0480  -11.0390   23.6320 N.4       1 STU         0.2291
     35 C28        -2.6750  -12.3510   23.5940 C.3       1 STU        -0.0445
     36 H1         -1.6819  -10.8874   27.9813 H         1 STU         0.0932
     37 H2         -2.7801   -9.6501   25.6698 H         1 STU         0.0372
     38 H3         -2.8379  -11.3739   26.1719 H         1 STU         0.0372
     39 H4         -0.7321  -11.8144   25.0813 H         1 STU         0.0880
     40 H5          0.3383   -9.9298   23.7977 H         1 STU         0.0709
     41 H6          2.4032  -10.3704   24.8006 H         1 STU         0.0284
     42 H7          1.4351  -11.7367   25.4506 H         1 STU         0.0284
     43 H8          2.5091  -10.7976   26.5421 H         1 STU         0.0284
     44 H9          3.5488   -8.9697   24.4513 H         1 STU         0.0535
     45 H10         5.2802   -7.3055   23.9075 H         1 STU         0.0560
     46 H11         5.0775   -4.9647   24.7179 H         1 STU         0.0513
     47 H12         3.1219   -4.3098   26.1436 H         1 STU         0.0565
     48 H13         0.7732   -3.1546   26.8983 H         1 STU         0.0938
     49 H14         1.6925   -3.6017   28.3753 H         1 STU         0.0938
     50 H15        -0.6743   -2.3556   28.1232 H         1 STU         0.2064
     51 H16         0.1809   -2.7420   29.4755 H         1 STU         0.2064
     52 H17        -0.6370   -4.2765   29.8904 H         1 STU         0.1309
     53 H18        -2.7742   -4.5785   29.8074 H         1 STU         0.2180
     54 H19        -3.8565  -10.5287   28.6567 H         1 STU         0.0535
     55 H20        -5.6794   -9.5897   30.1029 H         1 STU         0.0560
     56 H21        -5.6227   -7.1735   30.7886 H         1 STU         0.0513
     57 H22        -3.7242   -5.6934   30.0591 H         1 STU         0.0565
     58 H23        -1.2470   -6.7093   23.7198 H         1 STU         0.0524
     59 H24        -0.6207   -7.9971   22.6354 H         1 STU         0.0524
     60 H25         0.4582   -7.2549   23.8649 H         1 STU         0.0524
     61 H26        -1.4442  -10.9382   22.8312 H         1 STU         0.2014
     62 H27        -2.7639  -10.3299   23.6044 H         1 STU         0.2014
     63 H28        -3.2624  -12.4500   22.6693 H         1 STU         0.0777
     64 H29        -3.3385  -12.4657   24.4639 H         1 STU         0.0777
     65 H30        -1.8983  -13.1295   23.6200 H         1 STU         0.0777
@<TRIPOS>BOND
     1    1    2 1  
     2    1    6 1  
     3    2    3 1  
     4    2   31 1  
     5    3    4 1  
     6    4    5 1  
     7    4   34 1  
     8    5    6 1  
     9    5   32 1  
    10    6    7 1  
    11    6    8 1  
    12    8    9 1  
    13    8   16 1  
    14    9   10 ar 
    15    9   14 ar 
    16   10   11 ar 
    17   10   31 1  
    18   11   12 ar 
    19   11   25 1  
    20   12   13 ar 
    21   12   23 1  
    22   13   14 ar 
    23   13   21 1  
    24   14   15 1  
    25   15   16 ar 
    26   15   20 ar 
    27   16   17 ar 
    28   17   18 ar 
    29   18   19 ar 
    30   19   20 ar 
    31   21   22 1  
    32   22   23 1  
    33   23   24 1  
    34   25   26 ar 
    35   25   30 ar 
    36   26   27 ar 
    37   26   31 1  
    38   27   28 ar 
    39   28   29 ar 
    40   29   30 ar 
    41   32   33 1  
    42   34   35 1  
    43    2   36 1  
    44    3   37 1  
    45    3   38 1  
    46    4   39 1  
    47    5   40 1  
    48    7   41 1  
    49    7   42 1  
    50    7   43 1  
    51   17   44 1  
    52   18   45 1  
    53   19   46 1  
    54   20   47 1  
    55   21   48 1  
    56   21   49 1  
    57   22   50 1  
    58   22   51 1  
    59   23   52 1  
    60   24   53 1  
    61   27   54 1  
    62   28   55 1  
    63   29   56 1  
    64   30   57 1  
    65   33   58 1  
    66   33   59 1  
    67   33   60 1  
    68   34   61 1  
    69   34   62 1  
    70   35   63 1  
    71   35   64 1  
    72   35   65 1  
@<TRIPOS>SUBSTRUCTURE
     1 STU         1

