### 
### Created by X-TOOL on Mon Sep 10 21:13:11 2018
### 

@<TRIPOS>MOLECULE
4esi_ligand
   31    33     1     0     0
SMALL
GAST_HUCK


@<TRIPOS>ATOM
      1 C1        -24.1160    8.9850   -6.5720 C.cat     1 0RB         0.2138
      2 C2        -22.8850    9.0710   -8.5940 C.2       1 0RB         0.2950
      3 C3        -23.3110   10.4330   -8.8210 C.ar      1 0RB         0.2799
      4 C4        -24.2310   10.9530   -7.8090 C.ar      1 0RB         0.2981
      5 C5        -24.3260   12.9010   -9.0980 C.ar      1 0RB         0.2243
      6 C6        -23.4560   12.3860  -10.0850 C.ar      1 0RB         0.1335
      7 O2        -25.6970   14.6750   -8.3970 O.2       1 0RB        -0.3486
      8 C7        -24.9570   14.2350   -9.2640 C.2       1 0RB         0.2734
      9 N5        -22.9570   11.1380   -9.9340 N.ar      1 0RB        -0.1647
     10 O1        -22.1290    8.5150   -9.4200 O.2       1 0RB        -0.3303
     11 N2        -23.3190    8.4520   -7.4930 N.am      1 0RB        -0.2380
     12 N4        -24.6600   12.2030   -8.0060 N.ar      1 0RB        -0.1376
     13 N3        -24.5480   10.2350   -6.7200 N.pl3     1 0RB        -0.1995
     14 N1        -24.4630    8.2060   -5.4990 N.pl3     1 0RB        -0.3290
     15 N6        -24.8400   14.7770  -10.4830 N.am      1 0RB        -0.2654
     16 C8        -25.6200   15.8770  -10.9930 C.3       1 0RB         0.0745
     17 C9        -27.0850   15.5690  -11.1140 C.2       1 0RB         0.0695
     18 N9        -27.7140   14.3900  -10.8330 N.2       1 0RB        -0.1864
     19 N8        -29.0810   14.5700  -11.0530 N.pl3     1 0RB        -0.1511
     20 N7        -29.2510   15.8980  -11.4540 N.2       1 0RB        -0.1819
     21 C10       -28.0450   16.4970  -11.4900 C.2       1 0RB         0.0401
     22 H1        -23.1922   12.9825  -10.9508 H         1 0RB         0.1513
     23 H2        -23.0194    7.5088   -7.3494 H         1 0RB         0.1859
     24 H3        -25.1350   10.6584   -5.9872 H         1 0RB         0.2608
     25 H4        -24.1053    7.2430   -5.4246 H         1 0RB         0.1802
     26 H5        -25.0815    8.5836   -4.7670 H         1 0RB         0.1802
     27 H6        -24.1515   14.3844  -11.0928 H         1 0RB         0.1891
     28 H7        -25.2369   16.1427  -11.9893 H         1 0RB         0.0674
     29 H8        -25.4996   16.7335  -10.3134 H         1 0RB         0.0674
     30 H9        -29.8205   13.8617  -10.9414 H         1 0RB         0.2774
     31 H10       -27.8559   17.5331  -11.7670 H         1 0RB         0.0708
@<TRIPOS>BOND
     1    1   11 ar 
     2   13    1 ar 
     3    1   14 ar 
     4    3    2 1  
     5    2   10 2  
     6    2   11 am 
     7    4    3 ar 
     8    3    9 ar 
     9   12    4 ar 
    10    4   13 1  
    11    5    6 ar 
    12    5    8 1  
    13    5   12 ar 
    14    6    9 ar 
    15    8    7 2  
    16    8   15 am 
    17   15   16 1  
    18   16   17 1  
    19   17   18 2  
    20   17   21 1  
    21   18   19 1  
    22   19   20 1  
    23   20   21 2  
    24    6   22 1  
    25   11   23 1  
    26   13   24 1  
    27   14   25 1  
    28   14   26 1  
    29   15   27 1  
    30   16   28 1  
    31   16   29 1  
    32   19   30 1  
    33   21   31 1  
@<TRIPOS>SUBSTRUCTURE
     1 0RB         1

