### 
### Created by X-TOOL on Mon Sep 10 21:12:44 2018
### 

@<TRIPOS>MOLECULE
4est_ligand
   72    73     1     0     0
SMALL
GAST_HUCK


@<TRIPOS>ATOM
      1 C         -15.7140   18.5650   39.5850 C.2       1 ACE         0.1751
      2 O         -15.1390   17.4920   39.2350 O.2       1 ACE        -0.3972
      3 CH3       -16.6380   18.6530   40.8010 C.3       1 ACE         0.0258
      4 N         -15.6320   19.7190   38.9060 N.am      1 ALA        -0.2661
      5 CA        -14.8230   19.8430   37.7090 C.3       1 ALA         0.1283
      6 C         -13.5520   20.6370   38.0640 C.2       1 ALA         0.2061
      7 O         -13.5300   21.8720   38.0000 O.2       1 ALA        -0.3942
      8 CB        -15.6560   20.5910   36.6980 C.3       1 ALA        -0.0244
      9 N         -12.5350   19.9370   38.5850 N.am      1 PRO        -0.2498
     10 CA        -11.2670   20.5480   38.9520 C.3       1 PRO         0.1336
     11 C         -10.8150   21.3500   37.7690 C.2       1 PRO         0.2022
     12 O         -10.7290   20.8130   36.6500 O.2       1 PRO        -0.3945
     13 CB        -10.2700   19.4580   39.1440 C.3       1 PRO        -0.0104
     14 CG        -10.9600   18.1360   38.7770 C.3       1 PRO        -0.0281
     15 CD        -12.4030   18.5000   38.4260 C.3       1 PRO         0.0369
     16 N         -10.5810   22.6310   38.0010 N.am      1 VAI        -0.2792
     17 CA        -10.1080   23.6630   37.0890 C.3       1 VAI         0.0751
     18 C          -8.5480   23.7550   37.1250 C.3       1 VAI         0.1487
     19 O          -8.1160   24.9530   36.5630 O.3       1 VAI        -0.3846
     20 CB        -10.7780   24.9550   37.5420 C.3       1 VAI        -0.0212
     21 CG1       -12.1960   24.7750   37.1310 C.3       1 VAI        -0.0605
     22 CG2       -10.6960   25.1770   39.0450 C.3       1 VAI        -0.0605
     23 C1         -7.9720   22.7280   36.1770 C.3       1 FPA         0.3505
     24 F1         -7.9340   21.4980   36.5290 F         1 FPA        -0.1977
     25 F2         -8.6720   22.5810   35.1320 F         1 FPA        -0.1977
     26 C2         -6.7660   22.9560   35.3890 C.2       1 FPA         0.2681
     27 O1         -5.9140   22.0690   35.4780 O.2       1 FPA        -0.3383
     28 N1         -7.0740   23.4350   34.1790 N.am      1 PEA        -0.2793
     29 C3         -6.0850   23.4870   33.1180 C.3       1 PEA         0.0407
     30 C4         -6.8730   23.4210   31.8320 C.3       1 PEA         0.0012
     31 C5         -6.1460   23.8760   30.5680 C.ar      1 PEA        -0.0411
     32 C6         -6.7500   24.8570   29.7430 C.ar      1 PEA        -0.0603
     33 C7         -6.1170   25.2590   28.5520 C.ar      1 PEA        -0.0686
     34 C8         -4.8410   24.7240   28.2550 C.ar      1 PEA        -0.0687
     35 C9         -4.2110   23.7600   29.0910 C.ar      1 PEA        -0.0686
     36 C10        -4.8920   23.2880   30.2330 C.ar      1 PEA        -0.0603
     37 H1        -17.0153   19.6814   40.9011 H         1 ACE         0.0467
     38 H2        -16.0786   18.3779   41.7073 H         1 ACE         0.0467
     39 H3        -17.4845   17.9631   40.6690 H         1 ACE         0.0467
     40 H4        -16.1420   20.5143   39.2338 H         1 ALA         0.1882
     41 H5        -14.5495   18.8517   37.3186 H         1 ALA         0.0797
     42 H6        -15.0824   20.7110   35.7671 H         1 ALA         0.0277
     43 H7        -15.9164   21.5818   37.0985 H         1 ALA         0.0277
     44 H8        -16.5766   20.0256   36.4911 H         1 ALA         0.0277
     45 H9        -11.3638   21.1701   39.8540 H         1 PRO         0.0802
     46 H10        -9.9393   19.4312   40.1927 H         1 PRO         0.0313
     47 H11        -9.4014   19.6232   38.4897 H         1 PRO         0.0313
     48 H12       -10.9371   17.4426   39.6306 H         1 PRO         0.0287
     49 H13       -10.4618   17.6712   37.9135 H         1 PRO         0.0287
     50 H14       -12.6213   18.2144   37.3864 H         1 PRO         0.0524
     51 H15       -13.0977   17.9807   39.1026 H         1 PRO         0.0524
     52 H16       -10.7539   22.9346   38.9380 H         1 VAI         0.1856
     53 H17       -10.4216   23.4271   36.0614 H         1 VAI         0.0584
     54 H18        -8.1770   23.6267   38.1525 H         1 VAI         0.0663
     55 H19        -8.4796   25.6808   37.0534 H         1 VAI         0.2099
     56 H20       -10.3275   25.8171   37.0284 H         1 VAI         0.0318
     57 H21       -12.7761   25.6651   37.4158 H         1 VAI         0.0233
     58 H22       -12.6135   23.8894   37.6324 H         1 VAI         0.0233
     59 H23       -12.2472   24.6374   36.0409 H         1 VAI         0.0233
     60 H24        -9.6443   25.3090   39.3393 H         1 VAI         0.0233
     61 H25       -11.1164   24.3053   39.5679 H         1 VAI         0.0233
     62 H26       -11.2679   26.0772   39.3144 H         1 VAI         0.0233
     63 H27        -8.0019   23.7631   34.0021 H         1 PEA         0.1860
     64 H28        -5.3963   22.6325   33.1916 H         1 PEA         0.0544
     65 H29        -5.5127   24.4249   33.1709 H         1 PEA         0.0544
     66 H30        -7.7642   24.0545   31.9523 H         1 PEA         0.0446
     67 H31        -7.1832   22.3763   31.6824 H         1 PEA         0.0446
     68 H32        -7.6984   25.2973   30.0288 H         1 PEA         0.0557
     69 H33        -6.5951   25.9612   27.8787 H         1 PEA         0.0599
     70 H34        -4.3268   25.0594   27.3616 H         1 PEA         0.0559
     71 H35        -3.2193   23.3925   28.8532 H         1 PEA         0.0599
     72 H36        -4.4708   22.4961   30.8417 H         1 PEA         0.0557
@<TRIPOS>BOND
     1    1    2 2  
     2    1    3 1  
     3    1    4 am 
     4    4    5 1  
     5    5    6 1  
     6    5    8 1  
     7    6    7 2  
     8    6    9 am 
     9    9   10 1  
    10    9   15 1  
    11   10   11 1  
    12   10   13 1  
    13   11   12 2  
    14   11   16 am 
    15   13   14 1  
    16   14   15 1  
    17   16   17 1  
    18   17   18 1  
    19   17   20 1  
    20   18   19 1  
    21   18   23 1  
    22   20   21 1  
    23   20   22 1  
    24   23   24 1  
    25   23   25 1  
    26   23   26 1  
    27   26   27 2  
    28   26   28 am 
    29   28   29 1  
    30   29   30 1  
    31   30   31 1  
    32   31   32 ar 
    33   31   36 ar 
    34   32   33 ar 
    35   33   34 ar 
    36   34   35 ar 
    37   35   36 ar 
    38    3   37 1  
    39    3   38 1  
    40    3   39 1  
    41    4   40 1  
    42    5   41 1  
    43    8   42 1  
    44    8   43 1  
    45    8   44 1  
    46   10   45 1  
    47   13   46 1  
    48   13   47 1  
    49   14   48 1  
    50   14   49 1  
    51   15   50 1  
    52   15   51 1  
    53   16   52 1  
    54   17   53 1  
    55   18   54 1  
    56   19   55 1  
    57   20   56 1  
    58   21   57 1  
    59   21   58 1  
    60   21   59 1  
    61   22   60 1  
    62   22   61 1  
    63   22   62 1  
    64   28   63 1  
    65   29   64 1  
    66   29   65 1  
    67   30   66 1  
    68   30   67 1  
    69   32   68 1  
    70   33   69 1  
    71   34   70 1  
    72   35   71 1  
    73   36   72 1  
@<TRIPOS>SUBSTRUCTURE
     1 ACE         1

