### 
### Created by X-TOOL on Mon Sep 10 21:13:08 2018
### 

@<TRIPOS>MOLECULE
4eu3_ligand
   18    17     1     0     0
SMALL
GAST_HUCK


@<TRIPOS>ATOM
      1 C1        -19.2100  -27.2950  -30.9930 C.2       1 CIT         0.0371
      2 O1        -20.2970  -27.8200  -31.0560 O.co2     1 CIT        -0.5690
      3 O2        -18.2660  -27.6060  -31.8850 O.co2     1 CIT        -0.5690
      4 C2        -18.8910  -26.3170  -29.8920 C.3       1 CIT         0.0356
      5 C3        -20.1340  -25.5020  -29.5330 C.3       1 CIT         0.1328
      6 O7        -21.1290  -26.3860  -29.0070 O.3       1 CIT        -0.3818
      7 C4        -19.7220  -24.4710  -28.4820 C.3       1 CIT         0.0356
      8 C5        -20.8670  -23.5990  -28.0420 C.2       1 CIT         0.0371
      9 O3        -21.9910  -23.7690  -28.4450 O.co2     1 CIT        -0.5690
     10 O4        -20.5950  -22.5570  -27.2620 O.co2     1 CIT        -0.5690
     11 C6        -20.6440  -24.7980  -30.7640 C.2       1 CIT         0.0796
     12 O5        -21.7590  -25.0060  -31.1790 O.co2     1 CIT        -0.5449
     13 O6        -19.8750  -23.8830  -31.3710 O.co2     1 CIT        -0.5449
     14 H1        -18.0955  -25.6365  -30.2297 H         1 CIT         0.0452
     15 H2        -18.5492  -26.8686  -29.0038 H         1 CIT         0.0452
     16 H3        -21.3492  -27.0385  -29.6614 H         1 CIT         0.2091
     17 H4        -18.9353  -23.8304  -28.9072 H         1 CIT         0.0452
     18 H5        -19.3271  -25.0026  -27.6037 H         1 CIT         0.0452
@<TRIPOS>BOND
     1    1    2 ar 
     2    1    3 ar 
     3    1    4 1  
     4    4    5 1  
     5    5    6 1  
     6    5    7 1  
     7    5   11 1  
     8    7    8 1  
     9    8    9 ar 
    10    8   10 ar 
    11   11   12 ar 
    12   11   13 ar 
    13    4   14 1  
    14    4   15 1  
    15    6   16 1  
    16    7   17 1  
    17    7   18 1  
@<TRIPOS>SUBSTRUCTURE
     1 CIT         1

