### 
### Created by X-TOOL on Mon Sep 10 21:13:09 2018
### 

@<TRIPOS>MOLECULE
4euo_ligand
   16    15     1     0     0
SMALL
GAST_HUCK


@<TRIPOS>ATOM
      1 N           8.2130  -14.1210   10.4330 N.4       1 ABU         0.2186
      2 CA          6.8480  -13.5820   10.3890 C.3       1 ABU        -0.0339
      3 CB          6.4170  -13.2690    8.9770 C.3       1 ABU        -0.0011
      4 CG          5.0400  -12.6990    8.9940 C.3       1 ABU         0.0050
      5 CD          4.4130  -12.4580    7.6370 C.2       1 ABU         0.0350
      6 OE1         3.0920  -12.3050    7.5890 O.co2     1 ABU        -0.5690
      7 OE2         5.0900  -12.5180    6.5160 O.co2     1 ABU        -0.5690
      8 H1          8.4659  -14.3177   11.3887 H         1 ABU         0.1994
      9 H2          8.8539  -13.4448   10.0482 H         1 ABU         0.1994
     10 H3          8.2564  -14.9706    9.8924 H         1 ABU         0.1994
     11 H4          6.8097  -12.6591   10.9863 H         1 ABU         0.0814
     12 H5          6.1576  -14.3242   10.8162 H         1 ABU         0.0814
     13 H6          6.4248  -14.1915    8.3780 H         1 ABU         0.0335
     14 H7          7.1108  -12.5388    8.5349 H         1 ABU         0.0335
     15 H8          5.0792  -11.7360    9.5241 H         1 ABU         0.0432
     16 H9          4.3925  -13.3956    9.5466 H         1 ABU         0.0432
@<TRIPOS>BOND
     1    1    2 1  
     2    2    3 1  
     3    3    4 1  
     4    4    5 1  
     5    5    6 ar 
     6    5    7 ar 
     7    1    8 1  
     8    1    9 1  
     9    1   10 1  
    10    2   11 1  
    11    2   12 1  
    12    3   13 1  
    13    3   14 1  
    14    4   15 1  
    15    4   16 1  
@<TRIPOS>SUBSTRUCTURE
     1 ABU         1

