### 
### Created by X-TOOL on Mon Sep 10 21:13:13 2018
### 

@<TRIPOS>MOLECULE
4ew2_ligand
   60    61     1     0     0
SMALL
GAST_HUCK


@<TRIPOS>ATOM
      1 OE1         0.1580   72.7980   89.6760 O.co2     1 DXY        -0.5690
      2 CD          1.1370   72.2070   89.1180 C.2       1 DXY         0.0350
      3 OE2         1.4810   72.3630   87.9170 O.co2     1 DXY        -0.5690
      4 CG          2.0140   71.2030   89.9560 C.3       1 DXY         0.0038
      5 CB          3.0640   71.9400   90.8220 C.3       1 DXY        -0.0064
      6 CA          3.6760   71.1160   91.9850 C.3       1 DXY         0.0953
      7 C           3.8210   72.0660   93.1760 C.2       1 DXY         0.0601
      8 OXT         2.9630   72.0440   94.0700 O.co2     1 DXY        -0.5666
      9 O           4.7900   72.8460   93.1420 O.co2     1 DXY        -0.5666
     10 N           2.9240   69.8830   92.3040 N.am      1 DXY        -0.2716
     11 CAY         3.5490   68.7090   92.4290 C.2       1 DXY         0.2016
     12 OAF         4.7540   68.5770   92.2380 O.2       1 DXY        -0.3877
     13 CBB         2.6400   67.5460   92.7120 C.ar      1 DXY         0.0428
     14 CAK         3.0090   66.2100   92.8700 C.ar      1 DXY        -0.0485
     15 CAM         2.0640   65.2150   93.1210 C.ar      1 DXY        -0.0534
     16 CAJ         1.3280   67.8730   92.8370 C.ar      1 DXY        -0.0485
     17 CAL         0.3890   66.8970   93.0840 C.ar      1 DXY        -0.0534
     18 CBC         0.7210   65.5590   93.2340 C.ar      1 DXY        -0.0254
     19 CBG        -0.5080   64.6310   93.4820 C.3       1 DXY         0.0407
     20 SAV        -0.7540   63.4380   92.0950 S.3       1 DXY        -0.1461
     21 CAA         0.8030   63.2830   91.2150 C.3       1 DXY        -0.0157
     22 CAQ        -0.6460   63.9850   94.8880 C.3       1 DXY        -0.0305
     23 CAN        -0.3510   64.9320   96.0420 C.3       1 DXY        -0.0479
     24 CAP        -1.2520   64.8750   97.3240 C.3       1 DXY        -0.0274
     25 CBD        -0.4360   65.5820   98.3770 C.3       1 DXY         0.1446
     26 CBE         0.3410   64.8820   99.2910 C.2       1 DXY         0.1879
     27 OAG         0.3580   63.6560   99.3360 O.2       1 DXY        -0.3971
     28 NAU         1.0970   65.5360  100.1940 N.am      1 DXY        -0.2015
     29 CAZ         1.1440   66.9140  100.2110 C.cat     1 DXY         0.4096
     30 NAB         1.9200   67.4790  101.1010 N.pl3     1 DXY        -0.2203
     31 NAS         0.4090   67.6130   99.3270 N.pl3     1 DXY        -0.1652
     32 CBA        -0.3740   66.9950   98.4400 C.cat     1 DXY         0.3080
     33 NAC        -1.0740   67.7340   97.5670 N.pl3     1 DXY        -0.2408
     34 H1          2.5356   70.5241   89.2654 H         1 DXY         0.0432
     35 H2          1.3548   70.6197   90.6157 H         1 DXY         0.0432
     36 H3          2.5812   72.8284   91.2551 H         1 DXY         0.0323
     37 H4          3.8858   72.2544   90.1618 H         1 DXY         0.0323
     38 H5          4.6841   70.7990   91.6798 H         1 DXY         0.0726
     39 H6          1.9328   69.9289   92.4280 H         1 DXY         0.1866
     40 H7          4.0558   65.9383   92.7959 H         1 DXY         0.0652
     41 H8          2.3739   64.1817   93.2272 H         1 DXY         0.0570
     42 H9          1.0185   68.9075   92.7418 H         1 DXY         0.0652
     43 H10        -0.6526   67.1863   93.1645 H         1 DXY         0.0570
     44 H11        -1.3707   65.3109   93.4232 H         1 DXY         0.0584
     45 H12         0.6839   62.5758   90.3810 H         1 DXY         0.0342
     46 H13         1.5774   62.9121   91.9025 H         1 DXY         0.0342
     47 H14         1.1017   64.2661   90.8222 H         1 DXY         0.0342
     48 H15         0.0540   63.1387   94.9489 H         1 DXY         0.0299
     49 H16        -1.6767   63.6170   94.9988 H         1 DXY         0.0299
     50 H17        -0.4209   65.9553   95.6447 H         1 DXY         0.0269
     51 H18         0.6816   64.7339   96.3652 H         1 DXY         0.0269
     52 H19        -1.4494   63.8333   97.6169 H         1 DXY         0.0291
     53 H20        -2.2062   65.3954   97.1545 H         1 DXY         0.0291
     54 H21        -1.2969   65.5655   99.0615 H         1 DXY         0.0587
     55 H22         1.6309   65.0156  100.8604 H         1 DXY         0.1886
     56 H23         1.9856   68.5058  101.1494 H         1 DXY         0.3738
     57 H24         2.4650   66.8968  101.7529 H         1 DXY         0.3738
     58 H25         0.4512   68.6421   99.3348 H         1 DXY         0.4033
     59 H26        -1.0302   68.7621   97.6112 H         1 DXY         0.3717
     60 H27        -1.6554   67.2735   96.8523 H         1 DXY         0.3717
@<TRIPOS>BOND
     1    1    2 ar 
     2    2    3 ar 
     3    2    4 1  
     4    4    5 1  
     5    5    6 1  
     6    6    7 1  
     7    6   10 1  
     8    7    8 ar 
     9    7    9 ar 
    10   10   11 am 
    11   11   12 2  
    12   11   13 1  
    13   13   14 ar 
    14   13   16 ar 
    15   14   15 ar 
    16   15   18 ar 
    17   16   17 ar 
    18   17   18 ar 
    19   18   19 1  
    20   19   20 1  
    21   19   22 1  
    22   20   21 1  
    23   22   23 1  
    24   23   24 1  
    25   24   25 1  
    26   25   26 1  
    27   25   32 1  
    28   26   27 2  
    29   26   28 am 
    30   28   29 1  
    31   29   30 ar 
    32   29   31 ar 
    33   31   32 ar 
    34   32   33 ar 
    35    4   34 1  
    36    4   35 1  
    37    5   36 1  
    38    5   37 1  
    39    6   38 1  
    40   10   39 1  
    41   14   40 1  
    42   15   41 1  
    43   16   42 1  
    44   17   43 1  
    45   19   44 1  
    46   21   45 1  
    47   21   46 1  
    48   21   47 1  
    49   22   48 1  
    50   22   49 1  
    51   23   50 1  
    52   23   51 1  
    53   24   52 1  
    54   24   53 1  
    55   25   54 1  
    56   28   55 1  
    57   30   56 1  
    58   30   57 1  
    59   31   58 1  
    60   33   59 1  
    61   33   60 1  
@<TRIPOS>SUBSTRUCTURE
     1 DXY         1

