### 
### Created by X-TOOL on Mon Sep 10 21:13:14 2018
### 

@<TRIPOS>MOLECULE
4ew3_ligand
   60    61     1     0     0
SMALL
GAST_HUCK


@<TRIPOS>ATOM
      1 OE1         1.3850   72.1720   88.2490 O.co2     1 DXZ        -0.5690
      2 CD          1.0580   72.0550   89.4610 C.2       1 DXZ         0.0350
      3 OE2         0.0810   72.6600   90.0110 O.co2     1 DXZ        -0.5690
      4 CG          1.9870   71.1120   90.3140 C.3       1 DXZ         0.0038
      5 CB          3.1130   71.8660   91.0410 C.3       1 DXZ        -0.0064
      6 CA          3.6970   71.0780   92.2340 C.3       1 DXZ         0.0953
      7 C           3.8320   72.0260   93.4290 C.2       1 DXZ         0.0601
      8 OXT         2.9370   72.0280   94.2920 O.co2     1 DXZ        -0.5666
      9 O           4.8240   72.7690   93.4300 O.co2     1 DXZ        -0.5666
     10 N           2.9140   69.8680   92.5540 N.am      1 DXZ        -0.2716
     11 CAY         3.5120   68.6940   92.6630 C.2       1 DXZ         0.2016
     12 OAF         4.7220   68.5420   92.4910 O.2       1 DXZ        -0.3877
     13 CBB         2.6120   67.5360   92.9900 C.ar      1 DXZ         0.0428
     14 CAK         1.2640   67.7350   93.1270 C.ar      1 DXZ        -0.0485
     15 CAM         0.4420   66.6520   93.4190 C.ar      1 DXZ        -0.0534
     16 CAJ         3.1140   66.2620   93.1950 C.ar      1 DXZ        -0.0485
     17 CAL         2.2920   65.1800   93.5000 C.ar      1 DXZ        -0.0534
     18 CBC         0.9240   65.3720   93.6150 C.ar      1 DXZ        -0.0254
     19 CBG        -0.0370   64.2200   93.9680 C.3       1 DXZ         0.0407
     20 SAV        -0.9620   63.6800   92.4750 S.3       1 DXZ        -0.1461
     21 CAA        -2.5730   64.4730   92.6570 C.3       1 DXZ        -0.0157
     22 CAQ        -1.0410   64.6150   95.1110 C.3       1 DXZ        -0.0305
     23 CAN        -0.3750   64.5990   96.4780 C.3       1 DXZ        -0.0479
     24 CAP        -1.3100   64.8650   97.6970 C.3       1 DXZ        -0.0274
     25 CBD        -0.4470   65.6020   98.7030 C.3       1 DXZ         0.1446
     26 CBE         0.3350   64.8920   99.6200 C.2       1 DXZ         0.1879
     27 OAG         0.3200   63.6620   99.6640 O.2       1 DXZ        -0.3971
     28 NAU         1.1220   65.5590  100.5110 N.am      1 DXZ        -0.2015
     29 CAZ         1.1870   66.9410  100.4900 C.cat     1 DXZ         0.4096
     30 NAB         1.9870   67.5650  101.3430 N.pl3     1 DXZ        -0.2203
     31 NAS         0.4370   67.6310   99.6050 N.pl3     1 DXZ        -0.1652
     32 CBA        -0.3600   67.0030   98.7220 C.cat     1 DXZ         0.3080
     33 NAC        -1.0760   67.7500   97.8490 N.pl3     1 DXZ        -0.2408
     34 H1          2.4412   70.3685   89.6426 H         1 DXZ         0.0432
     35 H2          1.3687   70.5986   91.0650 H         1 DXZ         0.0432
     36 H3          2.7117   72.8198   91.4141 H         1 DXZ         0.0323
     37 H4          3.9221   72.0645   90.3227 H         1 DXZ         0.0323
     38 H5          4.7069   70.7435   91.9542 H         1 DXZ         0.0726
     39 H6          1.9256   69.9368   92.6891 H         1 DXZ         0.1866
     40 H7          0.8421   68.7265   93.0090 H         1 DXZ         0.0652
     41 H8         -0.6261   66.8197   93.4964 H         1 DXZ         0.0570
     42 H9          4.1831   66.1013   93.1154 H         1 DXZ         0.0652
     43 H10         2.7190   64.1945   93.6465 H         1 DXZ         0.0570
     44 H11         0.5672   63.3731   94.3253 H         1 DXZ         0.0584
     45 H12        -3.2107   64.2085   91.8006 H         1 DXZ         0.0342
     46 H13        -2.4424   65.5646   92.6934 H         1 DXZ         0.0342
     47 H14        -3.0479   64.1292   93.5877 H         1 DXZ         0.0342
     48 H15        -1.8767   63.8998   95.1137 H         1 DXZ         0.0299
     49 H16        -1.4249   65.6268   94.9138 H         1 DXZ         0.0299
     50 H17         0.4082   65.3713   96.4798 H         1 DXZ         0.0269
     51 H18         0.0853   63.6096   96.6166 H         1 DXZ         0.0269
     52 H19        -1.6721   63.9165   98.1203 H         1 DXZ         0.0291
     53 H20        -2.1684   65.4843   97.3975 H         1 DXZ         0.0291
     54 H21        -1.2887   65.6299   99.4106 H         1 DXZ         0.0587
     55 H22         1.6555   65.0465  101.1838 H         1 DXZ         0.1886
     56 H23         2.0442   68.5934  101.3373 H         1 DXZ         0.3738
     57 H24         2.5514   67.0215  102.0115 H         1 DXZ         0.3738
     58 H25         0.4758   68.6603   99.6058 H         1 DXZ         0.4033
     59 H26        -1.0051   68.7773   97.8712 H         1 DXZ         0.3717
     60 H27        -1.6917   67.2910   97.1626 H         1 DXZ         0.3717
@<TRIPOS>BOND
     1    1    2 ar 
     2    2    3 ar 
     3    2    4 1  
     4    4    5 1  
     5    5    6 1  
     6    6    7 1  
     7    6   10 1  
     8    7    8 ar 
     9    7    9 ar 
    10   10   11 am 
    11   11   12 2  
    12   11   13 1  
    13   13   14 ar 
    14   13   16 ar 
    15   14   15 ar 
    16   15   18 ar 
    17   16   17 ar 
    18   17   18 ar 
    19   18   19 1  
    20   19   20 1  
    21   19   22 1  
    22   20   21 1  
    23   22   23 1  
    24   23   24 1  
    25   24   25 1  
    26   25   26 1  
    27   25   32 1  
    28   26   27 2  
    29   26   28 am 
    30   28   29 1  
    31   29   30 ar 
    32   29   31 ar 
    33   31   32 ar 
    34   32   33 ar 
    35    4   34 1  
    36    4   35 1  
    37    5   36 1  
    38    5   37 1  
    39    6   38 1  
    40   10   39 1  
    41   14   40 1  
    42   15   41 1  
    43   16   42 1  
    44   17   43 1  
    45   19   44 1  
    46   21   45 1  
    47   21   46 1  
    48   21   47 1  
    49   22   48 1  
    50   22   49 1  
    51   23   50 1  
    52   23   51 1  
    53   24   52 1  
    54   24   53 1  
    55   25   54 1  
    56   28   55 1  
    57   30   56 1  
    58   30   57 1  
    59   31   58 1  
    60   33   59 1  
    61   33   60 1  
@<TRIPOS>SUBSTRUCTURE
     1 DXZ         1

