### 
### Created by X-TOOL on Mon Sep 10 21:13:09 2018
### 

@<TRIPOS>MOLECULE
4ewo_ligand
   73    75     1     0     0
SMALL
GAST_HUCK


@<TRIPOS>ATOM
      1 O21         7.4040    2.2460  -18.3460 O.2       1 996        -0.3974
      2 C6          6.4500    1.5560  -17.8960 C.2       1 996         0.1733
      3 C5          6.6080    0.5340  -16.7480 C.3       1 996         0.0257
      4 N7          5.2140    1.6710  -18.3530 N.am      1 996        -0.2795
      5 C8          4.8180    2.5500  -19.4940 C.3       1 996         0.0823
      6 C13         4.0930    1.6950  -20.5280 C.3       1 996         0.0066
      7 C22         4.9370    0.4930  -21.0110 C.ar      1 996        -0.0408
      8 C23         6.3210    0.5690  -21.2330 C.ar      1 996        -0.0603
      9 C24         7.0220   -0.6210  -21.6200 C.ar      1 996        -0.0686
     10 C25         6.3180   -1.8200  -21.8300 C.ar      1 996        -0.0687
     11 C26         4.9540   -1.8680  -21.5800 C.ar      1 996        -0.0686
     12 C27         4.2360   -0.7120  -21.1990 C.ar      1 996        -0.0603
     13 C9          3.9280    3.6970  -18.9380 C.3       1 996         0.1193
     14 O1          3.5530    4.6330  -19.9890 O.3       1 996        -0.3841
     15 C10         4.7380    4.4890  -17.8860 C.3       1 996        -0.0037
     16 N11         3.9380    5.6150  -17.4350 N.4       1 996         0.2376
     17 C12         4.6650    6.7960  -16.9890 C.3       1 996        -0.0025
     18 C17         5.6100    7.3270  -18.0230 C.2       1 996         0.0176
     19 C16         6.9880    7.7180  -17.7730 C.2       1 996         0.0161
     20 C14         7.6050    7.5980  -16.3910 C.3       1 996        -0.0116
     21 C2          6.4660    7.5670  -15.3380 C.3       1 996        -0.0204
     22 C3          5.8280    8.9490  -15.1610 C.3       1 996        -0.0580
     23 C4          7.1650    7.2050  -14.0090 C.3       1 996        -0.0580
     24 C15         5.5600    6.3810  -15.7520 C.3       1 996         0.0012
     25 N20         7.5310    8.1470  -18.9500 N.2       1 996        -0.2322
     26 N19         6.4910    8.0310  -19.8920 N.pl3     1 996        -0.2239
     27 C18         5.2990    7.5440  -19.3850 C.2       1 996         0.0468
     28 C28         6.8770    8.4540  -21.2270 C.3       1 996         0.0698
     29 C29         6.5120    9.8980  -21.5670 C.3       1 996        -0.0090
     30 C30         5.0190   10.1980  -21.3010 C.3       1 996        -0.0574
     31 C31         7.3990   10.8770  -20.7310 C.3       1 996        -0.0574
     32 C32         6.7760   10.0770  -23.0570 C.3       1 996        -0.0574
     33 H1          5.6358    0.0634  -16.5397 H         1 996         0.0467
     34 H2          6.9668    1.0495  -15.8450 H         1 996         0.0467
     35 H3          7.3337   -0.2385  -17.0421 H         1 996         0.0467
     36 H4          4.4983    1.1347  -17.9056 H         1 996         0.1857
     37 H5          5.7151    2.9865  -19.9573 H         1 996         0.0606
     38 H6          3.8497    2.3249  -21.3964 H         1 996         0.0449
     39 H7          3.1637    1.3140  -20.0795 H         1 996         0.0449
     40 H8          6.8493    1.5081  -21.1143 H         1 996         0.0557
     41 H9          8.0978   -0.5960  -21.7510 H         1 996         0.0599
     42 H10         6.8382   -2.7022  -22.1853 H         1 996         0.0559
     43 H11         4.4287   -2.8110  -21.6789 H         1 996         0.0599
     44 H12         3.1625   -0.7532  -21.0540 H         1 996         0.0557
     45 H13         3.0235    3.2700  -18.4803 H         1 996         0.0672
     46 H14         3.0671    4.1725  -20.6631 H         1 996         0.2101
     47 H15         5.6722    4.8553  -18.3367 H         1 996         0.0840
     48 H16         4.9739    3.8368  -17.0322 H         1 996         0.0840
     49 H17         3.3696    5.2974  -16.6655 H         1 996         0.2024
     50 H18         3.3432    5.8931  -18.1998 H         1 996         0.2024
     51 H19         3.9472    7.5797  -16.7050 H         1 996         0.0931
     52 H20         8.2602    8.4611  -16.2020 H         1 996         0.0409
     53 H21         8.1929    6.6705  -16.3275 H         1 996         0.0409
     54 H22         5.0270    8.8895  -14.4094 H         1 996         0.0236
     55 H23         5.4065    9.2839  -16.1203 H         1 996         0.0236
     56 H24         6.5924    9.6656  -14.8262 H         1 996         0.0236
     57 H25         7.6358    6.2150  -14.1002 H         1 996         0.0236
     58 H26         6.4224    7.1845  -13.1978 H         1 996         0.0236
     59 H27         7.9347    7.9576  -13.7826 H         1 996         0.0236
     60 H28         6.1878    5.5209  -16.0278 H         1 996         0.0339
     61 H29         4.9109    6.1054  -14.9078 H         1 996         0.0339
     62 H30         4.3577    7.3713  -19.9047 H         1 996         0.0864
     63 H31         6.3796    7.7943  -21.9532 H         1 996         0.0633
     64 H32         7.9676    8.3449  -21.3196 H         1 996         0.0633
     65 H33         4.8038   11.2453  -21.5594 H         1 996         0.0236
     66 H34         4.7949   10.0293  -20.2374 H         1 996         0.0236
     67 H35         4.3959    9.5330  -21.9170 H         1 996         0.0236
     68 H36         8.4610   10.6626  -20.9211 H         1 996         0.0236
     69 H37         7.1839   10.7434  -19.6606 H         1 996         0.0236
     70 H38         7.1763   11.9138  -21.0232 H         1 996         0.0236
     71 H39         6.1438    9.3808  -23.6276 H         1 996         0.0236
     72 H40         7.8350    9.8686  -23.2694 H         1 996         0.0236
     73 H41         6.5398   11.1107  -23.3497 H         1 996         0.0236
@<TRIPOS>BOND
     1    1    2 2  
     2    2    3 1  
     3    2    4 am 
     4    4    5 1  
     5    5    6 1  
     6    5   13 1  
     7    6    7 1  
     8    7    8 ar 
     9    7   12 ar 
    10    8    9 ar 
    11    9   10 ar 
    12   10   11 ar 
    13   11   12 ar 
    14   13   14 1  
    15   13   15 1  
    16   15   16 1  
    17   16   17 1  
    18   17   18 1  
    19   17   24 1  
    20   18   19 1  
    21   18   27 2  
    22   19   20 1  
    23   19   25 2  
    24   20   21 1  
    25   21   22 1  
    26   21   23 1  
    27   21   24 1  
    28   25   26 1  
    29   26   27 1  
    30   26   28 1  
    31   28   29 1  
    32   29   30 1  
    33   29   31 1  
    34   29   32 1  
    35    3   33 1  
    36    3   34 1  
    37    3   35 1  
    38    4   36 1  
    39    5   37 1  
    40    6   38 1  
    41    6   39 1  
    42    8   40 1  
    43    9   41 1  
    44   10   42 1  
    45   11   43 1  
    46   12   44 1  
    47   13   45 1  
    48   14   46 1  
    49   15   47 1  
    50   15   48 1  
    51   16   49 1  
    52   16   50 1  
    53   17   51 1  
    54   20   52 1  
    55   20   53 1  
    56   22   54 1  
    57   22   55 1  
    58   22   56 1  
    59   23   57 1  
    60   23   58 1  
    61   23   59 1  
    62   24   60 1  
    63   24   61 1  
    64   27   62 1  
    65   28   63 1  
    66   28   64 1  
    67   30   65 1  
    68   30   66 1  
    69   30   67 1  
    70   31   68 1  
    71   31   69 1  
    72   31   70 1  
    73   32   71 1  
    74   32   72 1  
    75   32   73 1  
@<TRIPOS>SUBSTRUCTURE
     1 996         1

