### 
### Created by X-TOOL on Mon Sep 10 21:13:09 2018
### 

@<TRIPOS>MOLECULE
4exg_ligand
   71    73     1     0     0
SMALL
GAST_HUCK


@<TRIPOS>ATOM
      1 O21         7.3340    2.3220  -18.3080 O.2       1 916        -0.3974
      2 C6          6.4180    1.6320  -17.8900 C.2       1 916         0.1733
      3 C5          6.7000    0.6360  -16.7630 C.3       1 916         0.0257
      4 N7          5.1800    1.6990  -18.4330 N.am      1 916        -0.2795
      5 C8          4.9170    2.6490  -19.5630 C.3       1 916         0.0823
      6 C13         4.1880    1.7900  -20.5780 C.3       1 916         0.0066
      7 C22         4.9930    0.5970  -21.0730 C.ar      1 916        -0.0408
      8 C27         4.3290   -0.6260  -21.2780 C.ar      1 916        -0.0603
      9 C26         5.0650   -1.7310  -21.7440 C.ar      1 916        -0.0686
     10 C25         6.4440   -1.6530  -21.9750 C.ar      1 916        -0.0687
     11 C24         7.1070   -0.4380  -21.7280 C.ar      1 916        -0.0686
     12 C23         6.3850    0.6940  -21.2930 C.ar      1 916        -0.0603
     13 C9          4.0200    3.7910  -19.0140 C.3       1 916         0.1193
     14 O1          3.6260    4.7010  -20.0540 O.3       1 916        -0.3841
     15 C10         4.8010    4.6050  -17.9820 C.3       1 916        -0.0038
     16 N11         3.9550    5.6850  -17.5260 N.4       1 916         0.2365
     17 C12         4.5870    6.9280  -17.0110 C.3       1 916        -0.0079
     18 C15         5.3230    6.5480  -15.7140 C.3       1 916         0.0258
     19 C2          6.3220    7.6450  -15.2470 C.3       1 916         0.0901
     20 C4          6.9700    7.1250  -13.9510 C.3       1 916        -0.0316
     21 C3          5.6110    9.0150  -15.1020 C.3       1 916        -0.0316
     22 C17         5.6250    7.4140  -17.9440 C.2       1 916        -0.0053
     23 C18         5.3720    7.5350  -19.3720 C.2       1 916        -0.0900
     24 C19         6.5850    7.9970  -19.9910 C.2       1 916        -0.0033
     25 S20         7.9130    8.2310  -18.8370 S.3       1 916        -0.0204
     26 C16         6.9700    7.7880  -17.5310 C.2       1 916         0.1384
     27 O14         7.3760    7.7630  -16.2290 O.3       1 916        -0.3124
     28 C28         6.8860    8.3020  -21.4460 C.3       1 916        -0.0122
     29 C29         6.5530    9.7440  -21.8420 C.3       1 916        -0.0289
     30 C32         7.4150   10.7820  -21.0870 C.3       1 916        -0.0583
     31 C31         5.1020   10.0610  -21.5220 C.3       1 916        -0.0583
     32 C30         6.7540    9.9560  -23.3370 C.3       1 916        -0.0583
     33 H1          5.7743    0.0995  -16.5077 H         1 916         0.0467
     34 H2          7.0659    1.1774  -15.8782 H         1 916         0.0467
     35 H3          7.4624   -0.0849  -17.0930 H         1 916         0.0467
     36 H4          4.4450    1.1184  -18.0827 H         1 916         0.1857
     37 H5          5.8462    3.0605  -19.9840 H         1 916         0.0606
     38 H6          3.9338    2.4188  -21.4440 H         1 916         0.0449
     39 H7          3.2642    1.4148  -20.1135 H         1 916         0.0449
     40 H8          3.2670   -0.7158  -21.0801 H         1 916         0.0557
     41 H9          4.5510   -2.6673  -21.9291 H         1 916         0.0599
     42 H10         6.9913   -2.5153  -22.3383 H         1 916         0.0559
     43 H11         8.1792   -0.3703  -21.8725 H         1 916         0.0599
     44 H12         6.8971    1.6351  -21.1282 H         1 916         0.0557
     45 H13         3.1248    3.3529  -18.5485 H         1 916         0.0672
     46 H14         3.1380    4.2288  -20.7183 H         1 916         0.2101
     47 H15         5.7121    5.0145  -18.4426 H         1 916         0.0840
     48 H16         5.0763    3.9632  -17.1321 H         1 916         0.0840
     49 H17         3.3802    5.3169  -16.7843 H         1 916         0.2023
     50 H18         3.3709    5.9510  -18.3033 H         1 916         0.2023
     51 H19         3.8279    7.7040  -16.8333 H         1 916         0.0914
     52 H20         5.8799    5.6151  -15.8858 H         1 916         0.0363
     53 H21         4.5782    6.3895  -14.9202 H         1 916         0.0363
     54 H22         7.6895    7.8683  -13.5770 H         1 916         0.0261
     55 H23         7.4931    6.1794  -14.1564 H         1 916         0.0261
     56 H24         6.1905    6.9558  -13.1936 H         1 916         0.0261
     57 H25         5.1791    9.3082  -16.0702 H         1 916         0.0261
     58 H26         6.3394    9.7740  -14.7805 H         1 916         0.0261
     59 H27         4.8099    8.9349  -14.3524 H         1 916         0.0261
     60 H28         4.4340    7.3155  -19.8798 H         1 916         0.0218
     61 H29         6.2943    7.6212  -22.0756 H         1 916         0.0420
     62 H30         7.9574    8.1289  -21.6251 H         1 916         0.0420
     63 H31         7.1344   11.7956  -21.4093 H         1 916         0.0236
     64 H32         8.4780   10.6076  -21.3098 H         1 916         0.0236
     65 H33         7.2459   10.6814  -20.0047 H         1 916         0.0236
     66 H34         4.4474    9.3446  -22.0399 H         1 916         0.0236
     67 H35         4.8669   11.0817  -21.8580 H         1 916         0.0236
     68 H36         4.9411    9.9861  -20.4364 H         1 916         0.0236
     69 H37         7.7983    9.7339  -23.6017 H         1 916         0.0236
     70 H38         6.5251   11.0010  -23.5932 H         1 916         0.0236
     71 H39         6.0838    9.2862  -23.8957 H         1 916         0.0236
@<TRIPOS>BOND
     1    1    2 2  
     2    2    3 1  
     3    2    4 am 
     4    4    5 1  
     5    5    6 1  
     6    5   13 1  
     7    6    7 1  
     8    7    8 ar 
     9    7   12 ar 
    10    8    9 ar 
    11    9   10 ar 
    12   10   11 ar 
    13   11   12 ar 
    14   13   14 1  
    15   13   15 1  
    16   15   16 1  
    17   16   17 1  
    18   17   18 1  
    19   17   22 1  
    20   18   19 1  
    21   19   20 1  
    22   19   21 1  
    23   19   27 1  
    24   22   23 1  
    25   22   26 2  
    26   23   24 2  
    27   24   25 1  
    28   24   28 1  
    29   25   26 1  
    30   26   27 1  
    31   28   29 1  
    32   29   30 1  
    33   29   31 1  
    34   29   32 1  
    35    3   33 1  
    36    3   34 1  
    37    3   35 1  
    38    4   36 1  
    39    5   37 1  
    40    6   38 1  
    41    6   39 1  
    42    8   40 1  
    43    9   41 1  
    44   10   42 1  
    45   11   43 1  
    46   12   44 1  
    47   13   45 1  
    48   14   46 1  
    49   15   47 1  
    50   15   48 1  
    51   16   49 1  
    52   16   50 1  
    53   17   51 1  
    54   18   52 1  
    55   18   53 1  
    56   20   54 1  
    57   20   55 1  
    58   20   56 1  
    59   21   57 1  
    60   21   58 1  
    61   21   59 1  
    62   23   60 1  
    63   28   61 1  
    64   28   62 1  
    65   30   63 1  
    66   30   64 1  
    67   30   65 1  
    68   31   66 1  
    69   31   67 1  
    70   31   68 1  
    71   32   69 1  
    72   32   70 1  
    73   32   71 1  
@<TRIPOS>SUBSTRUCTURE
     1 916         1

