### 
### Created by X-TOOL on Mon Sep 10 21:13:10 2018
### 

@<TRIPOS>MOLECULE
4exh_ligand
   67    66     1     0     0
SMALL
GAST_HUCK


@<TRIPOS>ATOM
      1 C          -5.7760    3.7080    8.2030 C.2       1 ACE         0.1751
      2 O          -5.9920    4.6730    8.9330 O.2       1 ACE        -0.3972
      3 CH3        -5.7480    2.3030    8.7380 C.3       1 ACE         0.0258
      4 N          -5.9400    3.7740    6.8860 N.am      1 VAL        -0.2656
      5 CA         -6.0880    4.9970    6.1090 C.3       1 VAL         0.1332
      6 C          -7.1410    4.7590    5.0320 C.2       1 VAL         0.2042
      7 O          -6.9280    3.9970    4.0920 O.2       1 VAL        -0.3944
      8 CB         -4.7470    5.4110    5.4430 C.3       1 VAL        -0.0063
      9 CG1        -4.9500    6.5790    4.4850 C.3       1 VAL        -0.0584
     10 CG2        -3.7000    5.7550    6.4960 C.3       1 VAL        -0.0584
     11 N          -8.2960    5.3820    5.1960 N.am      1 VAL        -0.2635
     12 CA         -9.3880    5.2480    4.2340 C.3       1 VAL         0.1331
     13 C          -9.6410    6.6170    3.6160 C.2       1 VAL         0.2022
     14 O          -9.4590    7.6210    4.2980 O.2       1 VAL        -0.3945
     15 CB        -10.6560    4.7520    4.9480 C.3       1 VAL        -0.0063
     16 CG1       -11.8560    4.6740    3.9840 C.3       1 VAL        -0.0584
     17 CG2       -10.3810    3.4020    5.5800 C.3       1 VAL        -0.0584
     18 N          -9.7160    6.5810    2.2720 N.am      1 STA        -0.2793
     19 CA         -9.9880    7.8220    1.5520 C.3       1 STA         0.0703
     20 CB         -9.7920    7.6450    0.0510 C.3       1 STA        -0.0250
     21 CG         -8.3140    7.6970   -0.3380 C.3       1 STA        -0.0446
     22 CD1        -7.6510    8.9970    0.1010 C.3       1 STA        -0.0626
     23 CD2        -8.1390    7.5160   -1.8400 C.3       1 STA        -0.0626
     24 CH        -11.4090    8.2840    1.8910 C.3       1 STA         0.0946
     25 OH        -11.6720    9.5460    1.3100 O.3       1 STA        -0.3872
     26 CM        -12.4720    7.2630    1.4810 C.3       1 STA         0.0652
     27 C         -13.8050    7.6700    2.0690 C.2       1 STA         0.1761
     28 O         -14.2280    7.4220    3.3860 O.2       1 STA        -0.3972
     29 N         -14.6210    7.8340    1.0350 N.am      1 ALA        -0.3008
     30 H          -4.9684    2.2194    9.4952 H         1 ACE         0.0467
     31 H          -6.7146    2.0654    9.1821 H         1 ACE         0.0467
     32 H          -5.5407    1.6094    7.9231 H         1 ACE         0.0467
     33 H          -5.9644    2.8916    6.3749 H         1 VAL         0.1883
     34 H          -6.3918    5.8046    6.7751 H         1 VAL         0.0802
     35 H          -4.3839    4.5599    4.8669 H         1 VAL         0.0343
     36 H          -5.2854    7.4522    5.0446 H         1 VAL         0.0234
     37 H          -4.0080    6.8057    3.9857 H         1 VAL         0.0234
     38 H          -5.7013    6.3115    3.7420 H         1 VAL         0.0234
     39 H          -2.7527    5.9782    6.0052 H         1 VAL         0.0234
     40 H          -4.0301    6.6247    7.0642 H         1 VAL         0.0234
     41 H          -3.5712    4.9073    7.1690 H         1 VAL         0.0234
     42 H          -8.4284    5.9726    6.0170 H         1 VAL         0.1883
     43 H          -9.1249    4.5270    3.4600 H         1 VAL         0.0802
     44 H         -10.9193    5.4678    5.7267 H         1 VAL         0.0343
     45 H         -12.0561    5.6640    3.5741 H         1 VAL         0.0234
     46 H         -11.6246    3.9835    3.1730 H         1 VAL         0.0234
     47 H         -12.7330    4.3195    4.5256 H         1 VAL         0.0234
     48 H         -10.0966    2.6905    4.8048 H         1 VAL         0.0234
     49 H          -9.5698    3.4986    6.3016 H         1 VAL         0.0234
     50 H         -11.2795    3.0496    6.0865 H         1 VAL         0.0234
     51 H          -9.5854    5.7045    1.7670 H         1 STA         0.1856
     52 H          -9.2802    8.5897    1.8646 H         1 STA         0.0583
     53 H         -10.3099    8.4564   -0.4604 H         1 STA         0.0291
     54 H         -10.1874    6.6700   -0.2338 H         1 STA         0.0291
     55 H          -7.8246    6.8743    0.1834 H         1 STA         0.0296
     56 H          -8.1569    9.8390   -0.3715 H         1 STA         0.0232
     57 H          -7.7210    9.0911    1.1847 H         1 STA         0.0232
     58 H          -6.6026    8.9875   -0.1972 H         1 STA         0.0232
     59 H          -8.5460    6.5498   -2.1381 H         1 STA         0.0232
     60 H          -8.6676    8.3119   -2.3646 H         1 STA         0.0232
     61 H          -7.0785    7.5572   -2.0885 H         1 STA         0.0232
     62 H         -11.4652    8.3761    2.9757 H         1 STA         0.0642
     63 H         -11.0454   10.1897    1.6485 H         1 STA         0.2101
     64 H         -12.1942    6.2765    1.8521 H         1 STA         0.0529
     65 H         -12.5466    7.2288    0.3941 H         1 STA         0.0529
     66 H         -15.6308    7.7829    1.1691 H         1 ALA         0.1814
     67 H         -14.2382    8.0111    0.1063 H         1 ALA         0.1814
@<TRIPOS>BOND
     1    1    2 2  
     2    1    3 1  
     3    1    4 am 
     4    4    5 1  
     5    5    6 1  
     6    5    8 1  
     7    6    7 2  
     8    6   11 am 
     9    8    9 1  
    10    8   10 1  
    11   11   12 1  
    12   12   13 1  
    13   12   15 1  
    14   13   14 2  
    15   13   18 am 
    16   15   16 1  
    17   15   17 1  
    18   18   19 1  
    19   19   20 1  
    20   19   24 1  
    21   20   21 1  
    22   21   22 1  
    23   21   23 1  
    24   24   25 1  
    25   24   26 1  
    26   26   27 1  
    27   27   28 2  
    28   27   29 am 
    29    3   30 1  
    30    3   31 1  
    31    3   32 1  
    32    4   33 1  
    33    5   34 1  
    34    8   35 1  
    35    9   36 1  
    36    9   37 1  
    37    9   38 1  
    38   10   39 1  
    39   10   40 1  
    40   10   41 1  
    41   11   42 1  
    42   12   43 1  
    43   15   44 1  
    44   16   45 1  
    45   16   46 1  
    46   16   47 1  
    47   17   48 1  
    48   17   49 1  
    49   17   50 1  
    50   18   51 1  
    51   19   52 1  
    52   20   53 1  
    53   20   54 1  
    54   21   55 1  
    55   22   56 1  
    56   22   57 1  
    57   22   58 1  
    58   23   59 1  
    59   23   60 1  
    60   23   61 1  
    61   24   62 1  
    62   25   63 1  
    63   26   64 1  
    64   26   65 1  
    65   29   66 1  
    66   29   67 1  
@<TRIPOS>SUBSTRUCTURE
     1 ACE         1

