### 
### Created by X-TOOL on Mon Sep 10 21:13:10 2018
### 

@<TRIPOS>MOLECULE
4exs_ligand
   28    28     1     0     0
SMALL
GAST_HUCK


@<TRIPOS>ATOM
      1 O1        -43.8560    6.0450   -3.2430 O.2       1 X8Z        -0.3964
      2 C4        -43.0400    5.9190   -2.3390 C.2       1 X8Z         0.1838
      3 C2        -42.8800    7.0700   -1.4000 C.3       1 X8Z         0.0548
      4 C1        -42.5780    8.3030   -2.2340 C.3       1 X8Z         0.0101
      5 S         -41.3400    8.0040   -3.5180 S.3       1 X8Z        -0.1756
      6 C3        -44.2000    7.2520   -0.6640 C.3       1 X8Z        -0.0446
      7 N         -42.2760    4.8320   -2.1440 N.am      1 X8Z        -0.2572
      8 C8        -42.4090    3.6490   -2.9930 C.3       1 X8Z         0.0971
      9 C9        -43.5810    2.7960   -2.5390 C.2       1 X8Z         0.0603
     10 O3        -43.9340    1.7910   -3.2250 O.co2     1 X8Z        -0.5666
     11 O2        -44.1750    3.1390   -1.4830 O.co2     1 X8Z        -0.5666
     12 C5        -41.3010    4.6280   -1.0700 C.3       1 X8Z         0.0362
     13 C6        -40.5130    3.3930   -1.4760 C.3       1 X8Z        -0.0288
     14 C7        -41.1110    2.8890   -2.7760 C.3       1 X8Z        -0.0159
     15 H1        -42.0656    6.8819   -0.6849 H         1 X8Z         0.0543
     16 H2        -42.2064    9.0947   -1.5669 H         1 X8Z         0.0401
     17 H3        -43.5089    8.6365   -2.7159 H         1 X8Z         0.0401
     18 H4        -41.1824    8.8544   -4.0357 H         1 X8Z         0.1018
     19 H5        -44.4112    6.3554   -0.0628 H         1 X8Z         0.0257
     20 H6        -45.0090    7.4030   -1.3939 H         1 X8Z         0.0257
     21 H7        -44.1336    8.1291   -0.0034 H         1 X8Z         0.0257
     22 H8        -42.5352    3.9312   -4.0487 H         1 X8Z         0.0728
     23 H9        -41.8130    4.4607   -0.1109 H         1 X8Z         0.0524
     24 H10       -40.6350    5.4991   -0.9831 H         1 X8Z         0.0524
     25 H11       -40.5960    2.6199   -0.6979 H         1 X8Z         0.0286
     26 H12       -39.4543    3.6526   -1.6235 H         1 X8Z         0.0286
     27 H13       -40.4183    3.0791   -3.6090 H         1 X8Z         0.0306
     28 H14       -41.3124    1.8099   -2.7056 H         1 X8Z         0.0306
@<TRIPOS>BOND
     1    1    2 2  
     2    2    3 1  
     3    2    7 am 
     4    3    4 1  
     5    3    6 1  
     6    4    5 1  
     7    7    8 1  
     8    7   12 1  
     9    8    9 1  
    10    8   14 1  
    11    9   10 ar 
    12    9   11 ar 
    13   12   13 1  
    14   13   14 1  
    15    3   15 1  
    16    4   16 1  
    17    4   17 1  
    18    5   18 1  
    19    6   19 1  
    20    6   20 1  
    21    6   21 1  
    22    8   22 1  
    23   12   23 1  
    24   12   24 1  
    25   13   25 1  
    26   13   26 1  
    27   14   27 1  
    28   14   28 1  
@<TRIPOS>SUBSTRUCTURE
     1 X8Z         1

