### 
### Created by X-TOOL on Mon Sep 10 21:13:11 2018
### 

@<TRIPOS>MOLECULE
4exz_ligand
   50    50     1     0     0
SMALL
GAST_HUCK


@<TRIPOS>ATOM
      1 C1         -7.1050    1.3130    5.4060 C.3       1 RET        -0.0970
      2 C2         -8.3720    1.6820    6.1580 C.3       1 RET        -0.1037
      3 C3         -8.0530    2.7550    7.1850 C.3       1 RET        -0.0389
      4 C4         -7.6520    4.0420    6.4790 C.3       1 RET         0.0374
      5 C5         -6.6960    3.7790    5.3360 C.2       1 RET         0.0234
      6 C6         -6.4520    2.5570    4.8540 C.2       1 RET        -0.0560
      7 C7         -5.5010    2.4170    3.7360 C.2       1 RET        -0.0696
      8 C8         -5.6460    1.4280    2.8590 C.2       1 RET        -0.0618
      9 C9         -4.6950    1.2880    1.7410 C.2       1 RET        -0.0512
     10 C10        -3.9690    0.1680    1.6150 C.2       1 RET        -0.0715
     11 C11        -3.0270    0.0290    0.5080 C.2       1 RET        -0.0806
     12 C12        -2.3370   -1.0980    0.3590 C.2       1 RET        -0.0756
     13 C13        -1.3850   -1.2380   -0.7590 C.2       1 RET        -0.0610
     14 C14        -0.6420   -2.3470   -0.8710 C.2       1 RET        -0.0818
     15 C15         0.3000   -2.4850   -1.9790 C.3       1 RET        -0.0401
     16 C16        -7.4350    0.3830    4.2460 C.3       1 RET        -0.1205
     17 C17        -6.1200    0.6340    6.3510 C.3       1 RET        -0.1205
     18 C18        -5.9910    4.9470    4.7120 C.3       1 RET         0.0278
     19 C19        -4.5390    2.3980    0.7440 C.3       1 RET        -0.0323
     20 C20        -1.2500   -0.1390   -1.7710 C.3       1 RET        -0.0402
     21 H          -8.7663    0.8000    6.6627 H         1 RET         0.0062
     22 H          -9.1159    2.0589    5.4561 H         1 RET         0.0062
     23 H          -7.2294    2.4177    7.8144 H         1 RET         0.0308
     24 H          -8.9349    2.9403    7.7982 H         1 RET         0.0308
     25 H          -7.1541    4.6890    7.2012 H         1 RET         0.0732
     26 H          -8.5514    4.5063    6.0745 H         1 RET         0.0732
     27 H          -4.6788    3.1244    3.6283 H         1 RET         0.0605
     28 H          -6.4682    0.7206    2.9667 H         1 RET         0.0560
     29 H          -4.0819   -0.6389    2.3390 H         1 RET         0.0484
     30 H          -2.8893    0.8493   -0.1965 H         1 RET         0.0518
     31 H          -2.4749   -1.9185    1.0632 H         1 RET         0.0522
     32 H          -0.7402   -3.1458   -0.1359 H         1 RET         0.0575
     33 H          -0.2417   -2.4329   -2.9234 H         1 RET         0.0401
     34 H           1.0325   -1.6791   -1.9339 H         1 RET         0.0401
     35 H           0.8096   -3.4456   -1.9035 H         1 RET         0.0401
     36 H          -6.5210    0.1437    3.7025 H         1 RET         0.0022
     37 H          -7.8801   -0.5339    4.6324 H         1 RET         0.0022
     38 H          -8.1392    0.8759    3.5758 H         1 RET         0.0022
     39 H          -6.5640   -0.2827    6.7392 H         1 RET         0.0022
     40 H          -5.2048    0.3949    5.8094 H         1 RET         0.0022
     41 H          -5.8895    1.3060    7.1776 H         1 RET         0.0022
     42 H          -4.9137    4.8162    4.8139 H         1 RET         0.0698
     43 H          -6.2529    5.0057    3.6556 H         1 RET         0.0698
     44 H          -6.2960    5.8648    5.2148 H         1 RET         0.0698
     45 H          -3.5072    2.7493    0.7518 H         1 RET         0.0396
     46 H          -4.7913    2.0296   -0.2504 H         1 RET         0.0396
     47 H          -5.2056    3.2188    1.0087 H         1 RET         0.0396
     48 H          -0.2241    0.2294   -1.7708 H         1 RET         0.0350
     49 H          -1.4987   -0.5247   -2.7597 H         1 RET         0.0350
     50 H          -1.9294    0.6741   -1.5153 H         1 RET         0.0350
@<TRIPOS>BOND
     1    1    2 1  
     2    1    6 1  
     3    1   16 1  
     4    1   17 1  
     5    2    3 1  
     6    3    4 1  
     7    4    5 1  
     8    5    6 2  
     9    5   18 1  
    10    6    7 1  
    11    7    8 2  
    12    8    9 1  
    13    9   10 2  
    14    9   19 1  
    15   10   11 1  
    16   11   12 2  
    17   12   13 1  
    18   13   14 2  
    19   13   20 1  
    20   14   15 1  
    21    2   21 1  
    22    2   22 1  
    23    3   23 1  
    24    3   24 1  
    25    4   25 1  
    26    4   26 1  
    27    7   27 1  
    28    8   28 1  
    29   10   29 1  
    30   11   30 1  
    31   12   31 1  
    32   14   32 1  
    33   15   33 1  
    34   15   34 1  
    35   15   35 1  
    36   16   36 1  
    37   16   37 1  
    38   16   38 1  
    39   17   39 1  
    40   17   40 1  
    41   17   41 1  
    42   18   42 1  
    43   18   43 1  
    44   18   44 1  
    45   19   45 1  
    46   19   46 1  
    47   19   47 1  
    48   20   48 1  
    49   20   49 1  
    50   20   50 1  
@<TRIPOS>SUBSTRUCTURE
     1 RET         1

