### 
### Created by X-TOOL on Mon Sep 10 21:13:11 2018
### 

@<TRIPOS>MOLECULE
4eyj_ligand
   50    52     1     0     0
SMALL
GAST_HUCK


@<TRIPOS>ATOM
      1 O1        -12.9230   12.2820  -26.4660 O.2       1 N61        -0.3800
      2 C9        -13.8960   11.5290  -26.5500 C.2       1 N61         0.3200
      3 N3        -14.9220   11.5170  -25.5020 N.am      1 N61        -0.1824
      4 C8        -14.8390   12.4200  -24.3360 C.2       1 N61         0.2022
      5 C7        -14.4260   13.7380  -24.3550 C.2       1 N61        -0.0216
      6 C2        -14.5280   14.2170  -23.0140 C.2       1 N61         0.0006
      7 C3        -14.1720   15.6350  -22.5330 C.3       1 N61        -0.0412
      8 C6        -12.7490   15.9670  -22.9430 C.3       1 N61        -0.0827
      9 C5        -14.3210   15.7030  -21.0620 C.3       1 N61        -0.0827
     10 C4        -15.1150   16.6080  -23.1730 C.3       1 N61        -0.0827
     11 N2        -14.9830   13.2160  -22.2590 N.2       1 N61        -0.1752
     12 N1        -15.1920   12.0990  -23.0590 N.pl3     1 N61        -0.1523
     13 C1        -15.6870   10.7860  -22.6260 C.3       1 N61         0.0718
     14 N4        -14.1020   10.6160  -27.6590 N.am      1 N61        -0.2192
     15 C10       -13.2280   10.4380  -28.8060 C.ar      1 N61         0.0578
     16 C20       -11.8990   10.7610  -28.8190 C.ar      1 N61        -0.0478
     17 C19       -11.1320   10.5510  -29.9950 C.ar      1 N61        -0.0404
     18 C13       -11.7390   10.0210  -31.1390 C.ar      1 N61         0.1047
     19 C12       -13.0660    9.6910  -31.1170 C.ar      1 N61        -0.0404
     20 C11       -13.8260    9.9020  -29.9530 C.ar      1 N61        -0.0478
     21 O2        -11.0290    9.7820  -32.2910 O.3       1 N61        -0.2573
     22 C14       -10.7000   10.9220  -33.0250 C.ar      1 N61         0.1329
     23 C18        -9.6040   10.8610  -33.9040 C.ar      1 N61        -0.0015
     24 C17        -9.2750   11.9600  -34.6290 C.ar      1 N61         0.0004
     25 N5         -9.9990   13.1130  -34.5090 N.ar      1 N61        -0.3127
     26 C16       -11.0680   13.2030  -33.6630 C.ar      1 N61         0.0004
     27 C15       -11.4340   12.1340  -32.9240 C.ar      1 N61        -0.0015
     28 H1        -15.6931   10.8849  -25.5784 H         1 N61         0.2335
     29 H2        -14.0885   14.3017  -25.2235 H         1 N61         0.0214
     30 H3        -12.4953   16.9805  -22.5989 H         1 N61         0.0142
     31 H4        -12.6625   15.9194  -24.0385 H         1 N61         0.0142
     32 H5        -12.0578   15.2418  -22.4887 H         1 N61         0.0142
     33 H6        -15.3578   15.4594  -20.7869 H         1 N61         0.0142
     34 H7        -14.0786   16.7184  -20.7154 H         1 N61         0.0142
     35 H8        -13.6374   14.9817  -20.5905 H         1 N61         0.0142
     36 H9        -15.0059   16.5591  -24.2665 H         1 N61         0.0142
     37 H10       -14.8827   17.6258  -22.8265 H         1 N61         0.0142
     38 H11       -16.1486   16.3533  -22.8959 H         1 N61         0.0142
     39 H12       -15.8935   10.8100  -21.5458 H         1 N61         0.0621
     40 H13       -14.9266   10.0196  -22.8370 H         1 N61         0.0621
     41 H14       -16.6117   10.5448  -23.1708 H         1 N61         0.0621
     42 H15       -14.9280   10.0531  -27.6310 H         1 N61         0.2231
     43 H16       -11.4323   11.1765  -27.9332 H         1 N61         0.0480
     44 H17       -10.0773   10.8009  -30.0067 H         1 N61         0.0520
     45 H18       -13.5326    9.2661  -31.9983 H         1 N61         0.0520
     46 H19       -14.8799    9.6485  -29.9436 H         1 N61         0.0480
     47 H20        -9.0290    9.9473  -34.0013 H         1 N61         0.0643
     48 H21        -8.4313   11.9231  -35.3086 H         1 N61         0.0789
     49 H22       -11.6217   14.1317  -33.5852 H         1 N61         0.0789
     50 H23       -12.2850   12.2004  -32.2559 H         1 N61         0.0643
@<TRIPOS>BOND
     1    1    2 2  
     2    2    3 am 
     3    2   14 am 
     4    3    4 1  
     5    4    5 2  
     6    4   12 1  
     7    5    6 1  
     8    6    7 1  
     9    6   11 2  
    10    7    8 1  
    11    7    9 1  
    12    7   10 1  
    13   11   12 1  
    14   12   13 1  
    15   14   15 1  
    16   15   16 ar 
    17   15   20 ar 
    18   16   17 ar 
    19   17   18 ar 
    20   18   19 ar 
    21   18   21 1  
    22   19   20 ar 
    23   21   22 1  
    24   22   23 ar 
    25   22   27 ar 
    26   23   24 ar 
    27   24   25 ar 
    28   25   26 ar 
    29   26   27 ar 
    30    3   28 1  
    31    5   29 1  
    32    8   30 1  
    33    8   31 1  
    34    8   32 1  
    35    9   33 1  
    36    9   34 1  
    37    9   35 1  
    38   10   36 1  
    39   10   37 1  
    40   10   38 1  
    41   13   39 1  
    42   13   40 1  
    43   13   41 1  
    44   14   42 1  
    45   16   43 1  
    46   17   44 1  
    47   19   45 1  
    48   20   46 1  
    49   23   47 1  
    50   24   48 1  
    51   26   49 1  
    52   27   50 1  
@<TRIPOS>SUBSTRUCTURE
     1 N61         1

