### 
### Created by X-TOOL on Mon Sep 10 21:13:10 2018
### 

@<TRIPOS>MOLECULE
4eym_ligand
   48    51     1     0     0
SMALL
GAST_HUCK


@<TRIPOS>ATOM
      1 O1        -13.3930   12.3820  -26.5740 O.2       1 0RX        -0.3693
      2 C1        -14.2360   11.5210  -26.4060 C.2       1 0RX         0.2364
      3 C13       -14.9400   11.4950  -25.0830 C.ar      1 0RX         0.0631
      4 C21       -15.2410   10.2920  -24.4700 C.ar      1 0RX         0.0038
      5 C16       -15.8890   10.3030  -23.2410 C.ar      1 0RX         0.1191
      6 N4        -16.1680    9.0870  -22.6130 N.pl3     1 0RX        -0.2890
      7 C20       -16.4390    9.0650  -21.1810 C.3       1 0RX         0.0532
      8 C19       -17.4310    7.9360  -20.9340 C.3       1 0RX         0.0678
      9 O3        -16.9610    6.6850  -21.4430 O.3       1 0RX        -0.3758
     10 C18       -15.8660    6.7730  -22.3540 C.3       1 0RX         0.0678
     11 C17       -16.1500    7.8560  -23.3860 C.3       1 0RX         0.0532
     12 N3        -16.2240   11.4670  -22.6440 N.ar      1 0RX        -0.2809
     13 C15       -15.9480   12.6380  -23.2250 C.ar      1 0RX         0.0010
     14 C14       -15.2990   12.6790  -24.4560 C.ar      1 0RX        -0.0284
     15 N1        -14.5590   10.6180  -27.3330 N.am      1 0RX        -0.2371
     16 C2        -13.8530   10.4180  -28.4740 C.ar      1 0RX         0.0569
     17 C12       -14.4200    9.6530  -29.4810 C.ar      1 0RX        -0.0474
     18 C11       -13.7300    9.4190  -30.6650 C.ar      1 0RX        -0.0401
     19 C5        -12.4650    9.9570  -30.8570 C.ar      1 0RX         0.1049
     20 C4        -11.8830   10.7140  -29.8490 C.ar      1 0RX        -0.0401
     21 C3        -12.5780   10.9450  -28.6620 C.ar      1 0RX        -0.0474
     22 O2        -11.8040    9.7060  -32.0340 O.3       1 0RX        -0.2572
     23 C6        -11.3200   10.7100  -32.8340 C.ar      1 0RX         0.1330
     24 C10       -11.8910   11.9800  -32.8140 C.ar      1 0RX        -0.0015
     25 C9        -11.3790   12.9720  -33.6450 C.ar      1 0RX         0.0004
     26 N2        -10.3580   12.7070  -34.4720 N.ar      1 0RX        -0.3127
     27 C8         -9.8020   11.4900  -34.5180 C.ar      1 0RX         0.0004
     28 C7        -10.2650   10.4620  -33.7020 C.ar      1 0RX        -0.0015
     29 H1        -14.9749    9.3532  -24.9422 H         1 0RX         0.0660
     30 H2        -16.8722   10.0249  -20.8635 H         1 0RX         0.0542
     31 H3        -15.5092    8.8799  -20.6231 H         1 0RX         0.0542
     32 H4        -18.3818    8.1850  -21.4280 H         1 0RX         0.0580
     33 H5        -17.5950    7.8388  -19.8507 H         1 0RX         0.0580
     34 H6        -15.7341    5.8069  -22.8632 H         1 0RX         0.0580
     35 H7        -14.9487    7.0246  -21.8015 H         1 0RX         0.0580
     36 H8        -15.3581    7.8856  -24.1489 H         1 0RX         0.0542
     37 H9        -17.1218    7.6863  -23.8726 H         1 0RX         0.0542
     38 H10       -16.2313   13.5623  -22.7347 H         1 0RX         0.0790
     39 H11       -15.0753   13.6317  -24.9222 H         1 0RX         0.0644
     40 H12       -15.3704   10.0545  -27.1776 H         1 0RX         0.2225
     41 H13       -15.4101    9.2335  -29.3442 H         1 0RX         0.0482
     42 H14       -14.1822    8.8134  -31.4421 H         1 0RX         0.0521
     43 H15       -10.8892   11.1252  -29.9845 H         1 0RX         0.0521
     44 H16       -12.1216   11.5399  -27.8791 H         1 0RX         0.0482
     45 H17       -12.7265   12.1939  -32.1573 H         1 0RX         0.0643
     46 H18       -11.8093   13.9667  -33.6233 H         1 0RX         0.0789
     47 H19        -8.9803   11.3028  -35.1998 H         1 0RX         0.0789
     48 H20        -9.8077    9.4800  -33.7436 H         1 0RX         0.0643
@<TRIPOS>BOND
     1    1    2 2  
     2    2    3 1  
     3    2   15 am 
     4    3    4 ar 
     5    3   14 ar 
     6    4    5 ar 
     7    5    6 1  
     8    5   12 ar 
     9    6    7 1  
    10    6   11 1  
    11    7    8 1  
    12    8    9 1  
    13    9   10 1  
    14   10   11 1  
    15   12   13 ar 
    16   13   14 ar 
    17   15   16 1  
    18   16   17 ar 
    19   16   21 ar 
    20   17   18 ar 
    21   18   19 ar 
    22   19   20 ar 
    23   19   22 1  
    24   20   21 ar 
    25   22   23 1  
    26   23   24 ar 
    27   23   28 ar 
    28   24   25 ar 
    29   25   26 ar 
    30   26   27 ar 
    31   27   28 ar 
    32    4   29 1  
    33    7   30 1  
    34    7   31 1  
    35    8   32 1  
    36    8   33 1  
    37   10   34 1  
    38   10   35 1  
    39   11   36 1  
    40   11   37 1  
    41   13   38 1  
    42   14   39 1  
    43   15   40 1  
    44   17   41 1  
    45   18   42 1  
    46   20   43 1  
    47   21   44 1  
    48   24   45 1  
    49   25   46 1  
    50   27   47 1  
    51   28   48 1  
@<TRIPOS>SUBSTRUCTURE
     1 0RX         1

