### 
### Created by X-TOOL on Mon Sep 10 21:13:14 2018
### 

@<TRIPOS>MOLECULE
4eyr_ligand
   98   101     1     0     0
SMALL
GAST_HUCK


@<TRIPOS>ATOM
      1 C1         12.0480   -3.7360    4.9050 C.2       1 RIT        -0.0174
      2 C2         12.0210   -3.7540    3.5250 C.2       1 RIT         0.0612
      3 S3         11.5240   -2.2750    2.7360 S.3       1 RIT        -0.0006
      4 C4         11.3390   -1.7070    4.3820 C.2       1 RIT         0.0672
      5 N5         11.6750   -2.5490    5.3820 N.2       1 RIT        -0.3288
      6 C6         12.3650   -4.9210    2.6340 C.3       1 RIT         0.1243
      7 O7         12.9190   -4.5380    1.3940 O.3       1 RIT        -0.2484
      8 C10        14.0340   -5.3350    0.9260 C.2       1 RIT         0.3223
      9 O24        14.7540   -5.8970    1.7290 O.2       1 RIT        -0.3774
     10 N11        14.2240   -5.3970   -0.3830 N.am      1 RIT        -0.2549
     11 C12        14.9390   -6.4640   -1.0590 C.3       1 RIT         0.0793
     12 C13        16.4160   -6.5530   -0.6470 C.3       1 RIT         0.0821
     13 C14        16.6970   -7.7880    0.2120 C.3       1 RIT         0.0004
     14 C15        16.8340   -8.9850   -0.7200 C.3       1 RIT         0.0540
     15 C26        14.7980   -6.2110   -2.5590 C.3       1 RIT         0.0064
     16 C28        13.6290   -5.2830   -2.7530 C.ar      1 RIT        -0.0408
     17 C31        12.4940   -5.7450   -3.4220 C.ar      1 RIT        -0.0603
     18 C32        11.4090   -4.8870   -3.5660 C.ar      1 RIT        -0.0686
     19 C33        11.4710   -3.5930   -3.0440 C.ar      1 RIT        -0.0687
     20 C34        12.6040   -3.1420   -2.3680 C.ar      1 RIT        -0.0686
     21 C35        13.6860   -3.9860   -2.2230 C.ar      1 RIT        -0.0603
     22 O41        16.8460   -5.3600    0.0100 O.3       1 RIT        -0.3893
     23 C44        17.6140  -10.1170   -0.0610 C.3       1 RIT         0.0040
     24 C45        16.7200  -11.2050    0.4890 C.ar      1 RIT        -0.0408
     25 C48        16.9590  -12.5310    0.1250 C.ar      1 RIT        -0.0603
     26 C49        16.1580  -13.5600    0.6190 C.ar      1 RIT        -0.0686
     27 C50        15.1140  -13.2540    1.4880 C.ar      1 RIT        -0.0687
     28 C51        14.8720  -11.9360    1.8640 C.ar      1 RIT        -0.0686
     29 C52        15.6760  -10.9110    1.3670 C.ar      1 RIT        -0.0603
     30 N58        17.5390   -8.5080   -1.8870 N.am      1 RIT        -0.2800
     31 N20        18.1520  -10.7720   -3.2820 N.am      1 RIT        -0.2514
     32 C19        17.9020   -9.5140   -4.0150 C.3       1 RIT         0.1335
     33 C18        17.0730   -8.6180   -3.1280 C.2       1 RIT         0.2020
     34 O61        16.0670   -8.0220   -3.5080 O.2       1 RIT        -0.3945
     35 C62        17.3700   -9.6400   -5.4780 C.3       1 RIT        -0.0065
     36 C64        16.1480   -8.7950   -5.8540 C.3       1 RIT        -0.0585
     37 C68        18.4150   -9.3410   -6.5570 C.3       1 RIT        -0.0585
     38 C21        19.3180  -11.3790   -2.9050 C.2       1 RIT         0.2635
     39 N74        19.2510  -12.6160   -2.3690 N.am      1 RIT        -0.2534
     40 C75        20.3760  -13.2790   -1.7010 C.3       1 RIT         0.0647
     41 O76        20.4320  -10.8870   -3.0320 O.2       1 RIT        -0.4004
     42 C77        20.6160  -12.9050   -0.2490 C.2       1 RIT         0.0075
     43 C80        21.2250  -11.7300    0.1830 C.2       1 RIT        -0.0033
     44 S81        21.4170  -11.5520    1.9170 S.3       1 RIT        -0.0199
     45 C82        20.6370  -13.1270    1.9790 C.2       1 RIT         0.0910
     46 N83        20.2990  -13.6890    0.8010 N.2       1 RIT        -0.3157
     47 C85        20.4570  -13.6550    3.3500 C.3       1 RIT         0.0236
     48 C86        21.5840  -14.6280    3.6950 C.3       1 RIT        -0.0458
     49 C90        19.0860  -14.3120    3.4700 C.3       1 RIT        -0.0458
     50 C95        18.0580  -13.4600   -2.4460 C.3       1 RIT         0.0248
     51 H1         12.3372   -4.5835    5.5247 H         1 RIT         0.0425
     52 H2         10.9647   -0.7062    4.5922 H         1 RIT         0.1080
     53 H3         11.4467   -5.4955    2.4425 H         1 RIT         0.0803
     54 H4         13.0928   -5.5572    3.1589 H         1 RIT         0.0803
     55 H5         13.8495   -4.6586   -0.9438 H         1 RIT         0.1873
     56 H6         14.4607   -7.4226   -0.8095 H         1 RIT         0.0604
     57 H7         17.0073   -6.6534   -1.5691 H         1 RIT         0.0619
     58 H8         15.8652   -7.9531    0.9126 H         1 RIT         0.0315
     59 H9         17.6299   -7.6458    0.7773 H         1 RIT         0.0315
     60 H10        15.8373   -9.3532   -1.0045 H         1 RIT         0.0579
     61 H11        14.6155   -7.1600   -3.0845 H         1 RIT         0.0449
     62 H12        15.7153   -5.7462   -2.9494 H         1 RIT         0.0449
     63 H13        12.4592   -6.7522   -3.8212 H         1 RIT         0.0557
     64 H14        10.5167   -5.2219   -4.0825 H         1 RIT         0.0599
     65 H15        10.6238   -2.9280   -3.1665 H         1 RIT         0.0559
     66 H16        12.6346   -2.1381   -1.9603 H         1 RIT         0.0599
     67 H17        14.5749   -3.6484   -1.7024 H         1 RIT         0.0557
     68 H18        16.3824   -5.2690    0.8342 H         1 RIT         0.2099
     69 H19        18.2078   -9.6995    0.7655 H         1 RIT         0.0448
     70 H20        18.2876  -10.5609   -0.8088 H         1 RIT         0.0448
     71 H21        17.7758  -12.7634   -0.5487 H         1 RIT         0.0557
     72 H22        16.3462  -14.5875    0.3295 H         1 RIT         0.0599
     73 H23        14.4852  -14.0480    1.8744 H         1 RIT         0.0559
     74 H24        14.0588  -11.7064    2.5430 H         1 RIT         0.0599
     75 H25        15.4899   -9.8849    1.6629 H         1 RIT         0.0557
     76 H26        18.4282   -8.0701   -1.7544 H         1 RIT         0.1856
     77 H27        17.3244  -11.2657   -3.0150 H         1 RIT         0.1877
     78 H28        18.8828   -9.0267   -4.1177 H         1 RIT         0.0799
     79 H29        17.0752  -10.6941   -5.5871 H         1 RIT         0.0342
     80 H30        15.8833   -8.9807   -6.9054 H         1 RIT         0.0234
     81 H31        16.3833   -7.7291   -5.7179 H         1 RIT         0.0234
     82 H32        15.3003   -9.0687   -5.2087 H         1 RIT         0.0234
     83 H33        19.3291   -9.9175   -6.3519 H         1 RIT         0.0234
     84 H34        18.6504   -8.2665   -6.5518 H         1 RIT         0.0234
     85 H35        18.0162   -9.6243   -7.5422 H         1 RIT         0.0234
     86 H36        21.2893  -13.0366   -2.2641 H         1 RIT         0.0654
     87 H37        20.1971  -14.3636   -1.7418 H         1 RIT         0.0654
     88 H38        21.5626  -10.9657   -0.5154 H         1 RIT         0.0503
     89 H39        20.5004  -12.8145    4.0583 H         1 RIT         0.0551
     90 H40        21.4374  -15.0119    4.7154 H         1 RIT         0.0263
     91 H41        22.5504  -14.1060    3.6350 H         1 RIT         0.0263
     92 H42        21.5753  -15.4665    2.9830 H         1 RIT         0.0263
     93 H43        18.3053  -13.5806    3.2142 H         1 RIT         0.0263
     94 H44        18.9363  -14.6622    4.5019 H         1 RIT         0.0263
     95 H45        19.0275  -15.1670    2.7804 H         1 RIT         0.0263
     96 H46        17.2523  -12.9105   -2.9549 H         1 RIT         0.0485
     97 H47        17.7332  -13.7294   -1.4302 H         1 RIT         0.0485
     98 H48        18.2916  -14.3745   -3.0109 H         1 RIT         0.0485
@<TRIPOS>BOND
     1    2    1 2  
     2    1    5 1  
     3    2    3 1  
     4    6    2 1  
     5    3    4 1  
     6    4    5 2  
     7    7    6 1  
     8    8    7 1  
     9    8    9 2  
    10   10    8 am 
    11   11   10 1  
    12   12   11 1  
    13   11   15 1  
    14   13   12 1  
    15   12   22 1  
    16   14   13 1  
    17   14   23 1  
    18   30   14 1  
    19   15   16 1  
    20   16   17 ar 
    21   16   21 ar 
    22   17   18 ar 
    23   18   19 ar 
    24   20   19 ar 
    25   21   20 ar 
    26   23   24 1  
    27   24   25 ar 
    28   24   29 ar 
    29   25   26 ar 
    30   26   27 ar 
    31   28   27 ar 
    32   29   28 ar 
    33   33   30 am 
    34   32   31 1  
    35   31   38 am 
    36   32   33 1  
    37   32   35 1  
    38   33   34 2  
    39   35   36 1  
    40   35   37 1  
    41   38   39 am 
    42   38   41 2  
    43   39   40 1  
    44   39   50 1  
    45   40   42 1  
    46   42   43 2  
    47   42   46 1  
    48   43   44 1  
    49   44   45 1  
    50   45   46 2  
    51   45   47 1  
    52   47   48 1  
    53   47   49 1  
    54    1   51 1  
    55    4   52 1  
    56    6   53 1  
    57    6   54 1  
    58   10   55 1  
    59   11   56 1  
    60   12   57 1  
    61   13   58 1  
    62   13   59 1  
    63   14   60 1  
    64   15   61 1  
    65   15   62 1  
    66   17   63 1  
    67   18   64 1  
    68   19   65 1  
    69   20   66 1  
    70   21   67 1  
    71   22   68 1  
    72   23   69 1  
    73   23   70 1  
    74   25   71 1  
    75   26   72 1  
    76   27   73 1  
    77   28   74 1  
    78   29   75 1  
    79   30   76 1  
    80   31   77 1  
    81   32   78 1  
    82   35   79 1  
    83   36   80 1  
    84   36   81 1  
    85   36   82 1  
    86   37   83 1  
    87   37   84 1  
    88   37   85 1  
    89   40   86 1  
    90   40   87 1  
    91   43   88 1  
    92   47   89 1  
    93   48   90 1  
    94   48   91 1  
    95   48   92 1  
    96   49   93 1  
    97   49   94 1  
    98   49   95 1  
    99   50   96 1  
   100   50   97 1  
   101   50   98 1  
@<TRIPOS>SUBSTRUCTURE
     1 RIT         1

