### 
### Created by X-TOOL on Mon Sep 10 21:13:11 2018
### 

@<TRIPOS>MOLECULE
4ez3_ligand
   30    31     1     0     0
SMALL
GAST_HUCK


@<TRIPOS>ATOM
      1 O01        -1.6760   -4.0230   29.0480 O.3       1 0S0        -0.2644
      2 C02        -0.8360   -4.2980   28.1940 C.2       1 0S0         0.2799
      3 N03         0.0160   -3.3490   27.8250 N.am      1 0S0        -0.1719
      4 C04         0.9850   -3.5700   26.8740 C.2       1 0S0         0.2038
      5 O05         1.8320   -2.5690   26.5410 O.2       1 0S0        -0.4120
      6 C06         1.0990   -4.8100   26.2480 C.2       1 0S0        -0.0157
      7 C07         0.2180   -5.8340   26.5870 C.2       1 0S0        -0.0502
      8 C08        -0.7710   -5.5850   27.5760 C.2       1 0S0         0.1401
      9 N09        -1.6690   -6.6760   27.8850 N.2       1 0S0        -0.2105
     10 N10        -2.5790   -6.6350   28.7020 N.2       1 0S0        -0.2219
     11 C11        -3.6410   -7.6400   28.5730 C.ar      1 0S0         0.0482
     12 C12        -3.5570   -8.5790   27.5180 C.ar      1 0S0        -0.0413
     13 C13        -4.5120   -9.5160   27.3980 C.ar      1 0S0        -0.0354
     14 C14        -5.5920   -9.5320   28.3280 C.ar      1 0S0         0.1063
     15 S15        -6.8650  -10.7480   28.1750 S.o2      1 0S0         0.0651
     16 O16        -6.4720  -11.8710   27.3680 O.2       1 0S0        -0.1507
     17 N17        -7.3320  -11.2200   29.6360 N.am      1 0S0        -0.2611
     18 O18        -7.9450  -10.1570   27.3370 O.2       1 0S0        -0.1507
     19 C19        -5.6820   -8.5970   29.3650 C.ar      1 0S0        -0.0354
     20 C20        -4.7140   -7.6510   29.4990 C.ar      1 0S0        -0.0413
     21 H1         -2.2162   -4.7861   29.2166 H         1 0S0         0.2751
     22 H2         -0.0486   -2.4466   28.2511 H         1 0S0         0.2661
     23 H3          1.8716   -4.9770   25.4990 H         1 0S0         0.0354
     24 H4          0.2860   -6.8072   26.1031 H         1 0S0         0.0657
     25 H5         -2.7323   -8.5427   26.8154 H         1 0S0         0.0618
     26 H6         -4.4619  -10.2514   26.6032 H         1 0S0         0.0633
     27 H7         -8.0501  -11.9091   29.7330 H         1 0S0         0.1635
     28 H8         -6.9049  -10.8250   30.4494 H         1 0S0         0.1635
     29 H9         -6.5166   -8.6263   30.0561 H         1 0S0         0.0633
     30 H10        -4.7622   -6.9201   30.2980 H         1 0S0         0.0618
@<TRIPOS>BOND
     1    1    2 1  
     2    2    3 am 
     3    2    8 2  
     4    3    4 am 
     5    4    5 2  
     6    4    6 1  
     7    6    7 2  
     8    7    8 1  
     9    8    9 1  
    10    9   10 2  
    11   10   11 1  
    12   11   12 ar 
    13   11   20 ar 
    14   12   13 ar 
    15   13   14 ar 
    16   14   15 1  
    17   14   19 ar 
    18   15   16 2  
    19   15   17 am 
    20   15   18 2  
    21   19   20 ar 
    22    1   21 1  
    23    3   22 1  
    24    6   23 1  
    25    7   24 1  
    26   12   25 1  
    27   13   26 1  
    28   17   27 1  
    29   17   28 1  
    30   19   29 1  
    31   20   30 1  
@<TRIPOS>SUBSTRUCTURE
     1 0S0         1

