### 
### Created by X-TOOL on Mon Sep 10 21:13:15 2018
### 

@<TRIPOS>MOLECULE
4ez5_ligand
   64    69     1     0     0
SMALL
GAST_HUCK


@<TRIPOS>ATOM
      1 C1         41.1560   20.3810   17.2800 C.3       1 0RS        -0.0431
      2 C2         41.6200   21.8690   15.4620 C.3       1 0RS        -0.0431
      3 C3         39.3490   20.9040   15.7450 C.3       1 0RS        -0.0177
      4 O1         33.3950   26.1640    9.6520 O.2       1 0RS        -0.3432
      5 C11        36.1570   22.6180   10.0100 C.ar      1 0RS         0.1013
      6 C12        34.9170   24.3260    9.6360 C.2       1 0RS         0.2060
      7 C13        35.8010   23.1340   11.2820 C.ar      1 0RS         0.0920
      8 C14        34.1080   25.4330    8.9760 C.2       1 0RS         0.2287
      9 C15        34.1850   25.6330    7.4990 C.ar      1 0RS         0.0636
     10 C16        33.1390   26.2870    6.8280 C.ar      1 0RS        -0.0153
     11 C17        33.2480   26.4550    5.4430 C.ar      1 0RS         0.0163
     12 C18        35.3040   25.3900    5.3320 C.ar      1 0RS         0.0649
     13 C19        35.2800   25.2010    6.7190 C.ar      1 0RS        -0.0066
     14 C20        36.4310   24.9540    4.4830 C.ar      1 0RS         0.0298
     15 C21        36.8560   25.8340    3.4560 C.ar      1 0RS         0.0187
     16 C22        38.5250   24.4280    2.7500 C.ar      1 0RS         0.0211
     17 C23        38.2080   23.4610    3.7200 C.ar      1 0RS         0.0104
     18 C24        38.9340   22.2570    3.8020 C.ar      1 0RS        -0.0449
     19 C25        38.6020   21.3030    4.7860 C.ar      1 0RS        -0.0551
     20 C26        37.5490   21.5310    5.6910 C.ar      1 0RS        -0.0553
     21 C27        36.8240   22.7320    5.5900 C.ar      1 0RS        -0.0456
     22 C28        37.1380   23.7220    4.6130 C.ar      1 0RS         0.0070
     23 N1         40.5880   21.3840   16.3830 N.4       1 0RS         0.2332
     24 C4         38.2970   22.0300   15.6330 C.3       1 0RS         0.0103
     25 C5         37.0100   21.5330   14.9500 C.3       1 0RS         0.0336
     26 N2         37.3580   21.0040   13.6330 N.pl3     1 0RS        -0.2984
     27 C6         38.2170   19.8270   13.7520 C.3       1 0RS         0.0336
     28 C7         39.5660   20.2000   14.3860 C.3       1 0RS         0.0103
     29 C8         36.9640   21.5460   12.4530 C.ar      1 0RS         0.0983
     30 C9         37.3860   20.9460   11.2420 C.ar      1 0RS        -0.0235
     31 C10        36.9810   21.4780   10.0020 C.ar      1 0RS        -0.0254
     32 N3         35.6040   23.3670    8.9930 N.pl3     1 0RS        -0.2381
     33 N4         35.0050   24.2260   10.9870 N.2       1 0RS        -0.2738
     34 N5         36.1690   22.6470   12.5000 N.ar      1 0RS        -0.2921
     35 N6         34.3000   26.0250    4.7140 N.ar      1 0RS        -0.2854
     36 N7         37.8730   25.5940    2.6090 N.ar      1 0RS        -0.2946
     37 H1         42.0764   20.7755   17.7352 H         1 0RS         0.0777
     38 H2         41.3903   19.4699   16.7100 H         1 0RS         0.0777
     39 H3         40.4292   20.1423   18.0704 H         1 0RS         0.0777
     40 H4         41.1860   22.6236   14.7896 H         1 0RS         0.0777
     41 H5         42.0062   21.0275   14.8681 H         1 0RS         0.0777
     42 H6         42.4422   22.3199   16.0371 H         1 0RS         0.0777
     43 H7         38.9301   20.1443   16.4212 H         1 0RS         0.0852
     44 H8         32.2721   26.6512    7.3674 H         1 0RS         0.0760
     45 H9         32.4406   26.9599    4.9251 H         1 0RS         0.0839
     46 H10        36.1183   24.7136    7.2036 H         1 0RS         0.0777
     47 H11        36.3213   26.7704    3.3450 H         1 0RS         0.0803
     48 H12        39.3464   24.2198    2.0740 H         1 0RS         0.0878
     49 H13        39.7461   22.0641    3.1104 H         1 0RS         0.0661
     50 H14        39.1668   20.3797    4.8461 H         1 0RS         0.0644
     51 H15        37.3019   20.7970    6.4495 H         1 0RS         0.0657
     52 H16        36.0027   22.9102    6.2747 H         1 0RS         0.0645
     53 H17        40.3209   22.1726   16.9512 H         1 0RS         0.2030
     54 H18        38.7191   22.8562   15.0421 H         1 0RS         0.0339
     55 H19        38.0498   22.3901   16.6426 H         1 0RS         0.0339
     56 H20        36.3026   22.3680   14.8392 H         1 0RS         0.0519
     57 H21        36.5495   20.7405   15.5582 H         1 0RS         0.0519
     58 H22        38.3928   19.4057   12.7512 H         1 0RS         0.0519
     59 H23        37.7168   19.0774   14.3827 H         1 0RS         0.0519
     60 H24        40.1577   19.2859   14.5422 H         1 0RS         0.0339
     61 H25        40.1088   20.8771   13.7101 H         1 0RS         0.0339
     62 H26        38.0253   20.0710   11.2692 H         1 0RS         0.0570
     63 H27        37.2949   21.0225    9.0698 H         1 0RS         0.0664
     64 H28        35.6961   23.2245    7.9771 H         1 0RS         0.2344
@<TRIPOS>BOND
     1   23    1 1  
     2   23    2 1  
     3    3   23 1  
     4   24    3 1  
     5   28    3 1  
     6    8    4 2  
     7    7    5 ar 
     8    5   31 ar 
     9    5   32 1  
    10    6    8 1  
    11    6   32 1  
    12   33    6 2  
    13    7   33 1  
    14   34    7 ar 
    15    8    9 1  
    16    9   10 ar 
    17    9   13 ar 
    18   10   11 ar 
    19   11   35 ar 
    20   13   12 ar 
    21   12   14 1  
    22   12   35 ar 
    23   14   15 ar 
    24   14   22 ar 
    25   15   36 ar 
    26   17   16 ar 
    27   36   16 ar 
    28   17   18 ar 
    29   22   17 ar 
    30   18   19 ar 
    31   20   19 ar 
    32   21   20 ar 
    33   22   21 ar 
    34   25   24 1  
    35   26   25 1  
    36   26   27 1  
    37   29   26 1  
    38   27   28 1  
    39   29   30 ar 
    40   29   34 ar 
    41   30   31 ar 
    42    1   37 1  
    43    1   38 1  
    44    1   39 1  
    45    2   40 1  
    46    2   41 1  
    47    2   42 1  
    48    3   43 1  
    49   10   44 1  
    50   11   45 1  
    51   13   46 1  
    52   15   47 1  
    53   16   48 1  
    54   18   49 1  
    55   19   50 1  
    56   20   51 1  
    57   21   52 1  
    58   23   53 1  
    59   24   54 1  
    60   24   55 1  
    61   25   56 1  
    62   25   57 1  
    63   27   58 1  
    64   27   59 1  
    65   28   60 1  
    66   28   61 1  
    67   30   62 1  
    68   31   63 1  
    69   32   64 1  
@<TRIPOS>SUBSTRUCTURE
     1 0RS         1

