### 
### Created by X-TOOL on Mon Sep 10 21:13:15 2018
### 

@<TRIPOS>MOLECULE
4ezj_ligand
   71    76     1     0     0
SMALL
GAST_HUCK


@<TRIPOS>ATOM
      1 F          22.7220   -6.4680   17.2250 F         1 0SC        -0.1865
      2 C24        23.2290   -7.3050   18.1510 C.ar      1 0SC         0.1329
      3 C23        24.4640   -7.8600   17.8930 C.ar      1 0SC        -0.0346
      4 C22        25.0420   -8.6880   18.8400 C.ar      1 0SC        -0.0384
      5 C21        24.3580   -8.9440   20.0260 C.ar      1 0SC         0.0659
      6 N5         24.7420   -9.5970   21.1720 N.pl3     1 0SC        -0.2792
      7 C20        23.7460   -9.4770   22.0990 C.2       1 0SC         0.0234
      8 C19        22.7110   -8.7740   21.5830 C.2       1 0SC        -0.0614
      9 C18        23.1000   -8.4100   20.2460 C.ar      1 0SC        -0.0146
     10 C17        22.4790   -7.5450   19.2930 C.ar      1 0SC         0.0349
     11 C16        21.2740   -6.7140   19.6680 C.ar      1 0SC         0.0914
     12 N4         21.1930   -5.4890   19.1820 N.ar      1 0SC        -0.2918
     13 C13        20.0520   -4.7810   19.4840 C.ar      1 0SC         0.0596
     14 C12        20.0030   -3.4100   19.1310 C.ar      1 0SC        -0.0255
     15 C11        18.9370   -2.6430   19.4900 C.ar      1 0SC        -0.0182
     16 N3         20.3160   -7.3490   20.3530 N.ar      1 0SC        -0.2525
     17 C15        19.1390   -6.7450   20.6330 C.ar      1 0SC         0.1548
     18 N6         18.1490   -7.5460   21.3020 N.pl3     1 0SC        -0.2744
     19 C28        16.7040   -7.3070   21.2150 C.3       1 0SC         0.0592
     20 C27        16.0660   -7.6010   22.5540 C.3       1 0SC         0.0690
     21 O1         16.3720   -8.9280   23.0050 O.3       1 0SC        -0.3756
     22 C26        17.7860   -9.1130   23.1150 C.3       1 0SC         0.0690
     23 C25        18.4800   -8.8850   21.7980 C.3       1 0SC         0.0592
     24 C14        18.9610   -5.3540   20.2170 C.ar      1 0SC         0.1093
     25 N2         17.8980   -4.5140   20.5340 N.ar      1 0SC        -0.2783
     26 C10        17.8970   -3.2270   20.1950 C.ar      1 0SC         0.0784
     27 C9         16.6970   -2.4200   20.6310 C.3       1 0SC         0.0198
     28 N1         15.7180   -2.2290   19.5550 N.4       1 0SC         0.2500
     29 C6         14.8160   -1.1040   19.8060 C.3       1 0SC        -0.0298
     30 C5         14.0020   -0.7940   18.5390 C.3       1 0SC        -0.0069
     31 C7         14.9100   -3.4190   19.3390 C.3       1 0SC        -0.0298
     32 C8         14.1450   -3.2880   18.0250 C.3       1 0SC        -0.0069
     33 C4         13.2790   -2.0190   17.9290 C.3       1 0SC        -0.0031
     34 C2         12.7240   -1.7600   16.4990 C.3       1 0SC         0.0637
     35 O2         13.8410   -1.5330   15.6120 O.3       1 0SC        -0.3888
     36 C3         11.9710   -2.9680   15.9510 C.3       1 0SC        -0.0361
     37 C1         11.8450   -0.5180   16.4340 C.3       1 0SC        -0.0361
     38 H1         24.9760   -7.6509   16.9607 H         1 0SC         0.0542
     39 H2         26.0147   -9.1315   18.6607 H         1 0SC         0.0585
     40 H3         25.6333  -10.0946   21.3094 H         1 0SC         0.2272
     41 H4         23.7798   -9.8875   23.1071 H         1 0SC         0.0952
     42 H5         21.7725   -8.5323   22.0797 H         1 0SC         0.0294
     43 H6         20.8197   -2.9686   18.5713 H         1 0SC         0.0753
     44 H7         18.9024   -1.5916   19.2283 H         1 0SC         0.0717
     45 H8         16.2685   -7.9648   20.4484 H         1 0SC         0.0558
     46 H9         16.5212   -6.2567   20.9439 H         1 0SC         0.0558
     47 H10        14.9748   -7.4989   22.4596 H         1 0SC         0.0581
     48 H11        16.4394   -6.8777   23.2938 H         1 0SC         0.0581
     49 H12        17.9863  -10.1413   23.4505 H         1 0SC         0.0581
     50 H13        18.1824   -8.4021   23.8549 H         1 0SC         0.0581
     51 H14        19.5681   -8.9669   21.9370 H         1 0SC         0.0558
     52 H15        18.1454   -9.6395   21.0708 H         1 0SC         0.0558
     53 H16        17.0424   -1.4325   20.9710 H         1 0SC         0.1021
     54 H17        16.2055   -2.9435   21.4643 H         1 0SC         0.1021
     55 H18        16.2320   -2.0372   18.7094 H         1 0SC         0.2051
     56 H19        15.4059   -0.2189   20.0863 H         1 0SC         0.0815
     57 H20        14.1300   -1.3623   20.6262 H         1 0SC         0.0815
     58 H21        14.6869   -0.3860   17.7811 H         1 0SC         0.0320
     59 H22        13.2441   -0.0384   18.7931 H         1 0SC         0.0320
     60 H23        14.1962   -3.5321   20.1682 H         1 0SC         0.0815
     61 H24        15.5640   -4.3024   19.2951 H         1 0SC         0.0815
     62 H25        13.4882   -4.1639   17.9182 H         1 0SC         0.0320
     63 H26        14.8732   -3.2730   17.2007 H         1 0SC         0.0320
     64 H27        12.3985   -2.2009   18.5627 H         1 0SC         0.0332
     65 H28        13.5184   -1.3729   14.7329 H         1 0SC         0.2101
     66 H29        11.5978   -2.7404   14.9416 H         1 0SC         0.0257
     67 H30        11.1230   -3.2020   16.6114 H         1 0SC         0.0257
     68 H31        12.6492   -3.8328   15.9047 H         1 0SC         0.0257
     69 H32        11.4798   -0.3807   15.4055 H         1 0SC         0.0257
     70 H33        12.4314    0.3625   16.7354 H         1 0SC         0.0257
     71 H34        10.9888   -0.6387   17.1140 H         1 0SC         0.0257
@<TRIPOS>BOND
     1    1    2 1  
     2    2    3 ar 
     3    2   10 ar 
     4    3    4 ar 
     5    4    5 ar 
     6    5    6 1  
     7    5    9 ar 
     8    6    7 1  
     9    7    8 2  
    10    8    9 1  
    11    9   10 ar 
    12   10   11 1  
    13   11   12 ar 
    14   11   16 ar 
    15   12   13 ar 
    16   13   14 ar 
    17   13   24 ar 
    18   14   15 ar 
    19   15   26 ar 
    20   16   17 ar 
    21   17   18 1  
    22   17   24 ar 
    23   18   19 1  
    24   18   23 1  
    25   19   20 1  
    26   20   21 1  
    27   21   22 1  
    28   22   23 1  
    29   24   25 ar 
    30   25   26 ar 
    31   26   27 1  
    32   27   28 1  
    33   28   29 1  
    34   28   31 1  
    35   29   30 1  
    36   30   33 1  
    37   31   32 1  
    38   32   33 1  
    39   33   34 1  
    40   34   35 1  
    41   34   36 1  
    42   34   37 1  
    43    3   38 1  
    44    4   39 1  
    45    6   40 1  
    46    7   41 1  
    47    8   42 1  
    48   14   43 1  
    49   15   44 1  
    50   19   45 1  
    51   19   46 1  
    52   20   47 1  
    53   20   48 1  
    54   22   49 1  
    55   22   50 1  
    56   23   51 1  
    57   23   52 1  
    58   27   53 1  
    59   27   54 1  
    60   28   55 1  
    61   29   56 1  
    62   29   57 1  
    63   30   58 1  
    64   30   59 1  
    65   31   60 1  
    66   31   61 1  
    67   32   62 1  
    68   32   63 1  
    69   33   64 1  
    70   35   65 1  
    71   36   66 1  
    72   36   67 1  
    73   36   68 1  
    74   37   69 1  
    75   37   70 1  
    76   37   71 1  
@<TRIPOS>SUBSTRUCTURE
     1 0SC         1

