### 
### Created by X-TOOL on Mon Sep 10 21:13:16 2018
### 

@<TRIPOS>MOLECULE
4ezk_ligand
   70    75     1     0     0
SMALL
GAST_HUCK


@<TRIPOS>ATOM
      1 N          15.3040   -1.4830   20.3060 N.4       1 0SD         0.2501
      2 C          14.9940    0.3730   15.3320 C.3       1 0SD        -0.0361
      3 O          16.4990   -7.9970   23.6510 O.3       1 0SD        -0.3756
      4 C1         14.0790   -0.4540   16.2160 C.3       1 0SD         0.0637
      5 N1         17.6700   -3.8670   21.3220 N.ar      1 0SD        -0.2774
      6 O1         13.6590   -1.5900   15.4390 O.3       1 0SD        -0.3888
      7 C2         12.8370    0.3410   16.5840 C.3       1 0SD        -0.0361
      8 N2         20.5000   -6.2050   21.1680 N.ar      1 0SD        -0.2479
      9 C3         14.8140   -0.9870   17.4660 C.3       1 0SD        -0.0031
     10 N3         21.0960   -4.1850   20.0940 N.ar      1 0SD        -0.2852
     11 C4         15.2640    0.1120   18.4200 C.3       1 0SD        -0.0069
     12 N4         24.0130   -8.3730   22.4550 N.pl3     1 0SD        -0.2442
     13 C5         16.0830   -0.4980   19.5530 C.3       1 0SD        -0.0298
     14 N5         25.0040   -8.1350   21.5490 N.2       1 0SD        -0.3333
     15 C6         14.8480   -2.5450   19.4040 C.3       1 0SD        -0.0298
     16 N6         18.3720   -6.4980   22.1820 N.pl3     1 0SD        -0.2741
     17 C7         13.9960   -1.9880   18.2710 C.3       1 0SD        -0.0069
     18 C8         16.0960   -2.0400   21.4080 C.3       1 0SD         0.0201
     19 C9         17.4130   -2.6230   20.9530 C.ar      1 0SD         0.0791
     20 C10        18.3180   -1.8520   20.2530 C.ar      1 0SD        -0.0173
     21 C11        19.5300   -2.3780   19.9590 C.ar      1 0SD        -0.0242
     22 C12        19.8490   -3.6890   20.3630 C.ar      1 0SD         0.0632
     23 C13        18.8850   -4.4590   21.0630 C.ar      1 0SD         0.1108
     24 C14        19.2950   -5.7550   21.4490 C.ar      1 0SD         0.1566
     25 C15        21.3480   -5.4080   20.5130 C.ar      1 0SD         0.1022
     26 C16        22.7110   -5.8670   20.1840 C.ar      1 0SD         0.0308
     27 C17        23.3730   -5.3150   19.0920 C.ar      1 0SD        -0.0454
     28 C18        24.6590   -5.7130   18.7810 C.ar      1 0SD        -0.0569
     29 C19        25.3010   -6.6620   19.5510 C.ar      1 0SD        -0.0551
     30 C20        24.6310   -7.2080   20.6370 C.ar      1 0SD        -0.0091
     31 C21        23.3220   -6.8170   20.9680 C.ar      1 0SD         0.0481
     32 C22        23.0100   -7.5890   22.1090 C.2       1 0SD         0.1123
     33 C23        18.7150   -7.8140   22.7180 C.3       1 0SD         0.0592
     34 C24        17.8830   -8.0820   23.9360 C.3       1 0SD         0.0690
     35 C25        16.1840   -6.7020   23.1730 C.3       1 0SD         0.0690
     36 C26        16.9400   -6.3800   21.9200 C.3       1 0SD         0.0592
     37 H1         14.4960   -1.0237   20.6961 H         1 0SD         0.2051
     38 H2         15.3408    1.2564   15.8881 H         1 0SD         0.0257
     39 H3         14.4441    0.6965   14.4359 H         1 0SD         0.0257
     40 H4         15.8604   -0.2343   15.0312 H         1 0SD         0.0257
     41 H5         13.0818   -2.1339   15.9619 H         1 0SD         0.2101
     42 H6         12.1855   -0.2722   17.2240 H         1 0SD         0.0257
     43 H7         12.2948    0.6189   15.6682 H         1 0SD         0.0257
     44 H8         13.1318    1.2515   17.1263 H         1 0SD         0.0257
     45 H9         15.7141   -1.5050   17.1035 H         1 0SD         0.0332
     46 H10        14.3813    0.6183   18.8378 H         1 0SD         0.0320
     47 H11        15.8807    0.8410   17.8739 H         1 0SD         0.0320
     48 H12        24.0417   -9.0304   23.2474 H         1 0SD         0.2935
     49 H13        16.9692   -0.9919   19.1280 H         1 0SD         0.0815
     50 H14        16.4019    0.3035   20.2356 H         1 0SD         0.0815
     51 H15        14.2507   -3.2690   19.9776 H         1 0SD         0.0815
     52 H16        15.7256   -3.0513   18.9755 H         1 0SD         0.0815
     53 H17        13.6746   -2.8107   17.6153 H         1 0SD         0.0320
     54 H18        13.1114   -1.4861   18.6900 H         1 0SD         0.0320
     55 H19        15.5104   -2.8343   21.8939 H         1 0SD         0.1023
     56 H20        16.2995   -1.2385   22.1334 H         1 0SD         0.1023
     57 H21        18.0634   -0.8445   19.9445 H         1 0SD         0.0719
     58 H22        20.2568   -1.7889   19.4114 H         1 0SD         0.0760
     59 H23        22.8772   -4.5687   18.4819 H         1 0SD         0.0660
     60 H24        25.1666   -5.2777   17.9278 H         1 0SD         0.0628
     61 H25        26.3108   -6.9753   19.3116 H         1 0SD         0.0649
     62 H26        22.0591   -7.5427   22.6377 H         1 0SD         0.1376
     63 H27        19.7809   -7.8346   22.9887 H         1 0SD         0.0558
     64 H28        18.5145   -8.5842   21.9587 H         1 0SD         0.0558
     65 H29        18.1095   -9.0922   24.3077 H         1 0SD         0.0581
     66 H30        18.1342   -7.3416   24.7098 H         1 0SD         0.0581
     67 H31        16.4421   -5.9631   23.9459 H         1 0SD         0.0581
     68 H32        15.1055   -6.6512   22.9627 H         1 0SD         0.0581
     69 H33        16.6518   -7.0834   21.1250 H         1 0SD         0.0558
     70 H34        16.7070   -5.3528   21.6030 H         1 0SD         0.0558
@<TRIPOS>BOND
     1    1   13 1  
     2    1   15 1  
     3   18    1 1  
     4    4    2 1  
     5   34    3 1  
     6    3   35 1  
     7    4    6 1  
     8    4    7 1  
     9    9    4 1  
    10    5   19 ar 
    11   23    5 ar 
    12   24    8 ar 
    13    8   25 ar 
    14   11    9 1  
    15   17    9 1  
    16   22   10 ar 
    17   25   10 ar 
    18   13   11 1  
    19   12   14 1  
    20   32   12 1  
    21   30   14 2  
    22   15   17 1  
    23   16   24 1  
    24   33   16 1  
    25   16   36 1  
    26   19   18 1  
    27   19   20 ar 
    28   21   20 ar 
    29   22   21 ar 
    30   23   22 ar 
    31   24   23 ar 
    32   25   26 1  
    33   26   27 ar 
    34   26   31 ar 
    35   27   28 ar 
    36   28   29 ar 
    37   30   29 ar 
    38   31   30 ar 
    39   31   32 2  
    40   33   34 1  
    41   35   36 1  
    42    1   37 1  
    43    2   38 1  
    44    2   39 1  
    45    2   40 1  
    46    6   41 1  
    47    7   42 1  
    48    7   43 1  
    49    7   44 1  
    50    9   45 1  
    51   11   46 1  
    52   11   47 1  
    53   12   48 1  
    54   13   49 1  
    55   13   50 1  
    56   15   51 1  
    57   15   52 1  
    58   17   53 1  
    59   17   54 1  
    60   18   55 1  
    61   18   56 1  
    62   20   57 1  
    63   21   58 1  
    64   27   59 1  
    65   28   60 1  
    66   29   61 1  
    67   32   62 1  
    68   33   63 1  
    69   33   64 1  
    70   34   65 1  
    71   34   66 1  
    72   35   67 1  
    73   35   68 1  
    74   36   69 1  
    75   36   70 1  
@<TRIPOS>SUBSTRUCTURE
     1 0SD         1

