### 
### Created by X-TOOL on Mon Sep 10 21:13:16 2018
### 

@<TRIPOS>MOLECULE
4ezl_ligand
   67    71     1     0     0
SMALL
GAST_HUCK


@<TRIPOS>ATOM
      1 C1         15.5400    2.7060   17.1270 C.3       1 0SE        -0.0361
      2 C2         14.9250    1.3210   16.9080 C.3       1 0SE         0.0637
      3 C3         15.6120    0.6580   15.7090 C.3       1 0SE        -0.0361
      4 C4         15.1210    0.4450   18.1510 C.3       1 0SE        -0.0031
      5 C5         16.5780   -0.0020   18.2120 C.3       1 0SE        -0.0069
      6 C6         16.6150   -0.9740   19.3780 C.3       1 0SE        -0.0298
      7 N7         16.5400   -0.1260   20.5610 N.4       1 0SE         0.2501
      8 C8         15.1610    0.3680   20.7070 C.3       1 0SE        -0.0298
      9 C9         14.7440    1.1720   19.4580 C.3       1 0SE        -0.0069
     10 C10        17.0950   -0.7990   21.7460 C.3       1 0SE         0.0200
     11 C11        18.4680   -1.3940   21.4830 C.ar      1 0SE         0.0789
     12 C12        19.4650   -0.6680   20.8230 C.ar      1 0SE        -0.0176
     13 C13        20.6930   -1.2250   20.5890 C.ar      1 0SE        -0.0246
     14 C14        20.9270   -2.5300   21.0550 C.ar      1 0SE         0.0621
     15 C15        19.8840   -3.2070   21.7290 C.ar      1 0SE         0.1104
     16 N16        18.7090   -2.6110   21.9100 N.ar      1 0SE        -0.2777
     17 C17        20.1500   -4.5680   22.2040 C.ar      1 0SE         0.1561
     18 N18        21.3620   -5.0680   21.9820 N.ar      1 0SE        -0.2486
     19 C19        22.2950   -4.3720   21.3300 C.ar      1 0SE         0.1050
     20 N20        22.0990   -3.1480   20.8840 N.ar      1 0SE        -0.2866
     21 C21        23.6360   -4.9660   21.0960 C.ar      1 0SE         0.0545
     22 C22        24.3970   -4.5580   19.9940 C.ar      1 0SE         0.0305
     23 N23        25.5900   -5.0930   19.8040 N.ar      1 0SE        -0.2468
     24 C24        26.0690   -6.0040   20.6420 C.ar      1 0SE         0.1956
     25 N25        25.3800   -6.4150   21.7010 N.ar      1 0SE        -0.2468
     26 C26        24.1760   -5.9280   21.9590 C.ar      1 0SE         0.0305
     27 N27        27.3230   -6.5370   20.4040 N.pl3     1 0SE        -0.3002
     28 N28        19.1890   -5.2880   22.8940 N.pl3     1 0SE        -0.2742
     29 C29        19.7610   -6.4180   23.6370 C.3       1 0SE         0.0592
     30 C30        18.6300   -7.2810   24.2040 C.3       1 0SE         0.0690
     31 O31        17.4340   -6.5110   24.3620 O.3       1 0SE        -0.3756
     32 C32        16.8820   -5.9750   23.1520 C.3       1 0SE         0.0690
     33 C33        17.9900   -5.6750   22.1380 C.3       1 0SE         0.0592
     34 O34        13.5280    1.4410   16.6360 O.3       1 0SE        -0.3888
     35 H1         15.3904    3.3201   16.2267 H         1 0SE         0.0257
     36 H2         16.6170    2.6019   17.3249 H         1 0SE         0.0257
     37 H3         15.0544    3.1911   17.9866 H         1 0SE         0.0257
     38 H4         15.1774   -0.3387   15.5425 H         1 0SE         0.0257
     39 H5         16.6886    0.5593   15.9117 H         1 0SE         0.0257
     40 H6         15.4629    1.2774   14.8123 H         1 0SE         0.0257
     41 H7         14.4784   -0.4426   18.0544 H         1 0SE         0.0332
     42 H8         17.2426    0.8550   18.3960 H         1 0SE         0.0320
     43 H9         16.8734   -0.5011   17.2773 H         1 0SE         0.0320
     44 H10        17.5506   -1.5524   19.3727 H         1 0SE         0.0815
     45 H11        15.7580   -1.6624   19.3379 H         1 0SE         0.0815
     46 H12        17.1223    0.6798   20.3948 H         1 0SE         0.2051
     47 H13        15.1001    1.0170   21.5930 H         1 0SE         0.0815
     48 H14        14.4806   -0.4873   20.8315 H         1 0SE         0.0815
     49 H15        13.6545    1.3219   19.4795 H         1 0SE         0.0320
     50 H16        15.2491    2.1489   19.4795 H         1 0SE         0.0320
     51 H17        16.4114   -1.6068   22.0463 H         1 0SE         0.1022
     52 H18        17.1778   -0.0663   22.5622 H         1 0SE         0.1022
     53 H19        19.2631    0.3449   20.4939 H         1 0SE         0.0718
     54 H20        21.4629   -0.6755   20.0595 H         1 0SE         0.0758
     55 H21        24.0128   -3.8135   19.3062 H         1 0SE         0.0945
     56 H22        23.6176   -6.2681   22.8236 H         1 0SE         0.0945
     57 H23        27.8677   -6.2271   19.5866 H         1 0SE         0.1845
     58 H24        27.7121   -7.2438   21.0442 H         1 0SE         0.1845
     59 H25        20.3812   -6.0380   24.4622 H         1 0SE         0.0558
     60 H26        20.3816   -7.0247   22.9612 H         1 0SE         0.0558
     61 H27        18.9354   -7.6779   25.1834 H         1 0SE         0.0581
     62 H28        18.4332   -8.1157   23.5152 H         1 0SE         0.0581
     63 H29        16.3420   -5.0448   23.3825 H         1 0SE         0.0581
     64 H30        16.1841   -6.7064   22.7184 H         1 0SE         0.0581
     65 H31        18.1994   -6.5707   21.5349 H         1 0SE         0.0558
     66 H32        17.6810   -4.8518   21.4770 H         1 0SE         0.0558
     67 H33        13.0965    1.8516   17.3761 H         1 0SE         0.2101
@<TRIPOS>BOND
     1    1    2 1  
     2    2    3 1  
     3    2    4 1  
     4    2   34 1  
     5    4    5 1  
     6    4    9 1  
     7    5    6 1  
     8    6    7 1  
     9    7    8 1  
    10    7   10 1  
    11    8    9 1  
    12   10   11 1  
    13   11   12 ar 
    14   11   16 ar 
    15   12   13 ar 
    16   13   14 ar 
    17   14   15 ar 
    18   14   20 ar 
    19   15   16 ar 
    20   15   17 ar 
    21   17   18 ar 
    22   17   28 1  
    23   18   19 ar 
    24   19   20 ar 
    25   19   21 1  
    26   21   22 ar 
    27   21   26 ar 
    28   22   23 ar 
    29   23   24 ar 
    30   24   25 ar 
    31   24   27 1  
    32   25   26 ar 
    33   28   29 1  
    34   28   33 1  
    35   29   30 1  
    36   30   31 1  
    37   31   32 1  
    38   32   33 1  
    39    1   35 1  
    40    1   36 1  
    41    1   37 1  
    42    3   38 1  
    43    3   39 1  
    44    3   40 1  
    45    4   41 1  
    46    5   42 1  
    47    5   43 1  
    48    6   44 1  
    49    6   45 1  
    50    7   46 1  
    51    8   47 1  
    52    8   48 1  
    53    9   49 1  
    54    9   50 1  
    55   10   51 1  
    56   10   52 1  
    57   12   53 1  
    58   13   54 1  
    59   22   55 1  
    60   26   56 1  
    61   27   57 1  
    62   27   58 1  
    63   29   59 1  
    64   29   60 1  
    65   30   61 1  
    66   30   62 1  
    67   32   63 1  
    68   32   64 1  
    69   33   65 1  
    70   33   66 1  
    71   34   67 1  
@<TRIPOS>SUBSTRUCTURE
     1 0SE         1

