### 
### Created by X-TOOL on Mon Sep 10 21:13:15 2018
### 

@<TRIPOS>MOLECULE
4ezr_ligand
  142   144     1     0     0
SMALL
GAST_HUCK


@<TRIPOS>ATOM
      1 N          63.8230   86.2340   18.8110 N.4       1 SER         0.2396
      2 CA         63.3610   86.3030   20.2350 C.3       1 SER         0.0885
      3 C          62.1370   85.4190   20.5310 C.2       1 SER         0.2291
      4 O          61.6960   84.6210   19.6870 O.2       1 SER        -0.3906
      5 CB         63.1210   87.7560   20.6460 C.3       1 SER         0.1041
      6 OG         62.8180   88.5280   19.4950 O.3       1 SER        -0.3870
      7 N          61.5610   85.6130   21.7190 N.am      1 HIS        -0.2597
      8 CA         60.5400   84.6560   22.1550 C.3       1 HIS         0.1372
      9 C          59.4380   85.3350   22.9070 C.2       1 HIS         0.2079
     10 O          59.3840   86.5600   22.9430 O.2       1 HIS        -0.3940
     11 CB         61.1440   83.4720   22.9380 C.3       1 HIS         0.0145
     12 CG         61.0320   82.1030   22.2320 C.2       1 HIS        -0.0027
     13 ND1        59.9930   81.2560   22.4320 N.2       1 HIS        -0.3252
     14 CD2        61.9030   81.4400   21.3720 C.2       1 HIS         0.0291
     15 CE1        60.1840   80.1320   21.7240 C.2       1 HIS         0.0907
     16 NE2        61.3550   80.2420   21.0820 N.pl3     1 HIS        -0.2752
     17 N          58.4460   84.5420   23.3920 N.am      1 PRO        -0.2497
     18 CA         57.3230   85.1860   24.0020 C.3       1 PRO         0.1338
     19 C          57.7250   86.1750   25.1060 C.2       1 PRO         0.2041
     20 O          58.8370   86.0900   25.6200 O.2       1 PRO        -0.3944
     21 CB         56.5380   84.0160   24.6180 C.3       1 PRO        -0.0104
     22 CG         56.9090   82.8110   23.8080 C.3       1 PRO        -0.0281
     23 CD         58.1090   83.1580   22.9780 C.3       1 PRO         0.0369
     24 N          56.8330   87.1500   25.3660 N.am      1 ARG        -0.2637
     25 CA         57.0480   88.1140   26.4190 C.3       1 ARG         0.1313
     26 C          56.5490   87.3580   27.6390 C.2       1 ARG         0.2064
     27 O          55.8610   86.3220   27.4900 O.2       1 ARG        -0.3942
     28 CB         56.2660   89.4100   26.1810 C.3       1 ARG        -0.0092
     29 CG         56.3780   89.8580   24.7130 C.3       1 ARG        -0.0156
     30 CD         57.8330   90.2780   24.5860 C.3       1 ARG         0.0627
     31 NE         58.1320   91.0420   23.3830 N.pl3     1 ARG        -0.2723
     32 CZ         58.7040   90.5360   22.3170 C.cat     1 ARG         0.2882
     33 NH1        58.9540   91.3360   21.2930 N.pl3     1 ARG        -0.2849
     34 NH2        59.0350   89.2340   22.2730 N.pl3     1 ARG        -0.2849
     35 N          56.9880   87.7960   28.8180 N.am      1 PRO        -0.2498
     36 CA         56.5660   87.2330   30.0900 C.3       1 PRO         0.1338
     37 C          55.1040   87.4720   30.4180 C.2       1 PRO         0.2041
     38 O          54.5120   88.5020   30.0140 O.2       1 PRO        -0.3944
     39 CB         57.3730   88.0220   31.1020 C.3       1 PRO        -0.0104
     40 CG         58.6130   88.4910   30.3890 C.3       1 PRO        -0.0281
     41 CD         58.1350   88.7150   28.9470 C.3       1 PRO         0.0369
     42 N          54.5370   86.6110   31.2500 N.am      1 ILE        -0.2635
     43 CA         53.1800   86.8210   31.6680 C.3       1 ILE         0.1335
     44 C          53.1690   87.1850   33.1160 C.2       1 ILE         0.2042
     45 O          53.9640   86.7230   33.9150 O.2       1 ILE        -0.3944
     46 CB         52.2740   85.6180   31.4190 C.3       1 ILE        -0.0037
     47 CG1        52.5930   84.4690   32.3510 C.3       1 ILE        -0.0491
     48 CG2        52.4640   85.1190   30.0220 C.3       1 ILE        -0.0582
     49 CD1        51.7020   84.4310   33.5830 C.3       1 ILE        -0.0648
     50 N          52.2390   88.0270   33.4540 N.am      1 ARG        -0.2637
     51 CA         52.0780   88.5150   34.7680 C.3       1 ARG         0.1310
     52 C          51.2940   87.4780   35.4770 C.2       1 ARG         0.2033
     53 O          50.2730   87.1080   35.0220 O.2       1 ARG        -0.3944
     54 CB         51.2030   89.7270   34.6430 C.3       1 ARG        -0.0092
     55 CG         51.7840   91.0000   35.1500 C.3       1 ARG        -0.0156
     56 CD         51.0020   91.4450   36.3640 C.3       1 ARG         0.0627
     57 NE         51.7150   92.4750   37.0670 N.pl3     1 ARG        -0.2723
     58 CZ         51.4960   93.7600   36.9030 C.cat     1 ARG         0.2882
     59 NH1        50.5560   94.1560   36.0850 N.pl3     1 ARG        -0.2849
     60 NH2        52.2040   94.6450   37.5640 N.pl3     1 ARG        -0.2849
     61 N          51.7330   86.9840   36.5970 N.am      1 VAL        -0.2692
     62 CA         50.9040   86.0160   37.2540 C.3       1 VAL         0.0967
     63 C          49.9840   86.6290   38.3220 C.2       1 VAL         0.0603
     64 O          50.3970   87.4850   39.0750 O.co2     1 VAL        -0.5666
     65 CB         51.7170   84.8800   37.8660 C.3       1 VAL        -0.0118
     66 CG1        53.1860   85.0230   37.5660 C.3       1 VAL        -0.0590
     67 CG2        51.4910   84.8410   39.3580 C.3       1 VAL        -0.0590
     68 OXT        49.0440   86.4320   38.5410 O.co2     1 VAL        -0.5666
     69 H1         64.6236   86.8339   18.6881 H         1 SER         0.2016
     70 H2         63.0795   86.5369   18.2015 H         1 SER         0.2016
     71 H3         64.0767   85.2848   18.5856 H         1 SER         0.2016
     72 H4         64.1836   85.9195   20.8565 H         1 SER         0.1122
     73 H5         64.0257   88.1552   21.1277 H         1 SER         0.0640
     74 H6         62.2785   87.8033   21.3517 H         1 SER         0.0640
     75 H7         62.6689   89.4307   19.7508 H         1 SER         0.2099
     76 H8         61.8185   86.3888   22.2951 H         1 HIS         0.1886
     77 H9         60.0900   84.2340   21.2443 H         1 HIS         0.0817
     78 H10        60.6251   83.4014   23.9053 H         1 HIS         0.0420
     79 H11        62.2101   83.6828   23.1082 H         1 HIS         0.0420
     80 H12        62.8539   81.8195   21.0008 H         1 HIS         0.0729
     81 H13        59.5066   79.2805   21.6792 H         1 HIS         0.1199
     82 H14        61.7695   79.5275   20.4667 H         1 HIS         0.2361
     83 H15        56.7232   85.7122   23.2449 H         1 PRO         0.0802
     84 H16        55.4560   84.2035   24.5538 H         1 PRO         0.0313
     85 H17        56.8237   83.8738   25.6707 H         1 PRO         0.0313
     86 H18        56.0713   82.5300   23.1528 H         1 PRO         0.0287
     87 H19        57.1488   81.9715   24.4771 H         1 PRO         0.0287
     88 H20        58.9426   82.4726   23.1908 H         1 PRO         0.0524
     89 H21        57.8668   83.1190   21.9057 H         1 PRO         0.0524
     90 H22        56.0002   87.2077   24.8154 H         1 ARG         0.1883
     91 H23        58.1165   88.3561   26.5176 H         1 ARG         0.0800
     92 H24        56.6717   90.1998   26.8303 H         1 ARG         0.0313
     93 H25        55.2070   89.2417   26.4262 H         1 ARG         0.0313
     94 H26        55.7045   90.7028   24.5063 H         1 ARG         0.0301
     95 H27        56.1462   89.0283   24.0290 H         1 ARG         0.0301
     96 H28        58.4547   89.3705   24.5814 H         1 ARG         0.0689
     97 H29        58.0912   90.8950   25.4593 H         1 ARG         0.0689
     98 H30        57.8789   92.0403   23.3685 H         1 ARG         0.2642
     99 H31        59.4026   90.9618   20.4447 H         1 ARG         0.2615
    100 H32        58.7000   92.3329   21.3443 H         1 ARG         0.2615
    101 H33        58.8339   88.6240   23.0782 H         1 ARG         0.2615
    102 H34        59.4898   88.8463   21.4341 H         1 ARG         0.2615
    103 H35        56.7885   86.1565   30.1300 H         1 PRO         0.0802
    104 H36        57.6442   87.3815   31.9542 H         1 PRO         0.0313
    105 H37        56.7925   88.8844   31.4616 H         1 PRO         0.0313
    106 H38        59.4018   87.7252   30.4271 H         1 PRO         0.0287
    107 H39        58.9889   89.4268   30.8283 H         1 PRO         0.0287
    108 H40        57.8221   89.7584   28.7941 H         1 PRO         0.0524
    109 H41        58.9261   88.4601   28.2265 H         1 PRO         0.0524
    110 H42        55.0505   85.8207   31.5843 H         1 ILE         0.1883
    111 H43        52.7764   87.6667   31.0920 H         1 ILE         0.0803
    112 H44        51.2280   85.9256   31.5647 H         1 ILE         0.0345
    113 H45        53.6386   84.5648   32.6788 H         1 ILE         0.0267
    114 H46        52.4666   83.5259   31.7991 H         1 ILE         0.0267
    115 H47        52.2411   85.9276   29.3103 H         1 ILE         0.0235
    116 H48        51.7856   84.2726   29.8395 H         1 ILE         0.0235
    117 H49        53.5051   84.7898   29.8886 H         1 ILE         0.0235
    118 H50        51.9858   83.5762   34.2145 H         1 ILE         0.0230
    119 H51        50.6519   84.3252   33.2730 H         1 ILE         0.0230
    120 H52        51.8239   85.3641   34.1526 H         1 ILE         0.0230
    121 H53        51.6061   88.3449   32.7480 H         1 ARG         0.1883
    122 H54        53.0347   88.7348   35.2643 H         1 ARG         0.0800
    123 H55        50.2757   89.5330   35.2020 H         1 ARG         0.0313
    124 H56        50.9669   89.8645   33.5775 H         1 ARG         0.0313
    125 H57        51.7226   91.7713   34.3681 H         1 ARG         0.0301
    126 H58        52.8367   90.8412   35.4267 H         1 ARG         0.0301
    127 H59        50.8521   90.5856   37.0340 H         1 ARG         0.0689
    128 H60        50.0247   91.8347   36.0432 H         1 ARG         0.0689
    129 H61        52.4409   92.1892   37.7395 H         1 ARG         0.2642
    130 H62        50.3792   95.1620   35.9519 H         1 ARG         0.2615
    131 H63        49.9923   93.4620   35.5737 H         1 ARG         0.2615
    132 H64        52.9448   94.3343   38.2087 H         1 ARG         0.2615
    133 H65        52.0190   95.6504   37.4382 H         1 ARG         0.2615
    134 H66        52.6109   87.2670   36.9834 H         1 VAL         0.1875
    135 H67        50.2567   85.5773   36.4804 H         1 VAL         0.0729
    136 H68        51.3677   83.9313   37.4325 H         1 VAL         0.0336
    137 H69        53.7365   84.1874   38.0229 H         1 VAL         0.0234
    138 H70        53.5538   85.9738   37.9791 H         1 VAL         0.0234
    139 H71        53.3406   85.0121   36.4770 H         1 VAL         0.0234
    140 H72        50.4154   84.7365   39.5633 H         1 VAL         0.0234
    141 H73        51.8615   85.7731   39.8095 H         1 VAL         0.0234
    142 H74        52.0313   83.9850   39.7885 H         1 VAL         0.0234
@<TRIPOS>BOND
     1    1    2 1  
     2    2    3 1  
     3    2    5 1  
     4    3    4 2  
     5    3    7 am 
     6    5    6 1  
     7    7    8 1  
     8    8    9 1  
     9    8   11 1  
    10    9   10 2  
    11    9   17 am 
    12   11   12 1  
    13   12   13 1  
    14   12   14 2  
    15   13   15 2  
    16   14   16 1  
    17   15   16 1  
    18   17   18 1  
    19   17   23 1  
    20   18   19 1  
    21   18   21 1  
    22   19   20 2  
    23   19   24 am 
    24   21   22 1  
    25   22   23 1  
    26   24   25 1  
    27   25   26 1  
    28   25   28 1  
    29   26   27 2  
    30   26   35 am 
    31   28   29 1  
    32   29   30 1  
    33   30   31 1  
    34   31   32 ar 
    35   32   33 ar 
    36   32   34 ar 
    37   35   36 1  
    38   35   41 1  
    39   36   37 1  
    40   36   39 1  
    41   37   38 2  
    42   37   42 am 
    43   39   40 1  
    44   40   41 1  
    45   42   43 1  
    46   43   44 1  
    47   43   46 1  
    48   44   45 2  
    49   44   50 am 
    50   46   47 1  
    51   46   48 1  
    52   47   49 1  
    53   50   51 1  
    54   51   52 1  
    55   51   54 1  
    56   52   53 2  
    57   52   61 am 
    58   54   55 1  
    59   55   56 1  
    60   56   57 1  
    61   57   58 ar 
    62   58   59 ar 
    63   58   60 ar 
    64   61   62 1  
    65   62   63 1  
    66   62   65 1  
    67   63   64 ar 
    68   63   68 ar 
    69   65   66 1  
    70   65   67 1  
    71    1   69 1  
    72    1   70 1  
    73    1   71 1  
    74    2   72 1  
    75    5   73 1  
    76    5   74 1  
    77    6   75 1  
    78    7   76 1  
    79    8   77 1  
    80   11   78 1  
    81   11   79 1  
    82   14   80 1  
    83   15   81 1  
    84   16   82 1  
    85   18   83 1  
    86   21   84 1  
    87   21   85 1  
    88   22   86 1  
    89   22   87 1  
    90   23   88 1  
    91   23   89 1  
    92   24   90 1  
    93   25   91 1  
    94   28   92 1  
    95   28   93 1  
    96   29   94 1  
    97   29   95 1  
    98   30   96 1  
    99   30   97 1  
   100   31   98 1  
   101   33   99 1  
   102   33  100 1  
   103   34  101 1  
   104   34  102 1  
   105   36  103 1  
   106   39  104 1  
   107   39  105 1  
   108   40  106 1  
   109   40  107 1  
   110   41  108 1  
   111   41  109 1  
   112   42  110 1  
   113   43  111 1  
   114   46  112 1  
   115   47  113 1  
   116   47  114 1  
   117   48  115 1  
   118   48  116 1  
   119   48  117 1  
   120   49  118 1  
   121   49  119 1  
   122   49  120 1  
   123   50  121 1  
   124   51  122 1  
   125   54  123 1  
   126   54  124 1  
   127   55  125 1  
   128   55  126 1  
   129   56  127 1  
   130   56  128 1  
   131   57  129 1  
   132   59  130 1  
   133   59  131 1  
   134   60  132 1  
   135   60  133 1  
   136   61  134 1  
   137   62  135 1  
   138   65  136 1  
   139   66  137 1  
   140   66  138 1  
   141   66  139 1  
   142   67  140 1  
   143   67  141 1  
   144   67  142 1  
@<TRIPOS>SUBSTRUCTURE
     1 SER         1

