### 
### Created by X-TOOL on Mon Sep 10 21:13:13 2018
### 

@<TRIPOS>MOLECULE
4ezx_ligand
  117   116     1     0     0
SMALL
GAST_HUCK


@<TRIPOS>ATOM
      1 N         -10.6240  -26.1680    3.1920 N.4       1 ASN         0.2396
      2 CA        -10.4580  -27.0750    2.0120 C.3       1 ASN         0.0818
      3 C          -9.0260  -27.6350    2.0080 C.2       1 ASN         0.2291
      4 O          -8.0900  -26.9550    2.4620 O.2       1 ASN        -0.3905
      5 CB        -10.6410  -26.2790    0.7180 C.3       1 ASN         0.0972
      6 CG        -12.0780  -25.8730    0.4490 C.2       1 ASN         0.1813
      7 OD1       -13.0080  -26.1550    1.2180 O.2       1 ASN        -0.3969
      8 ND2       -12.2650  -25.2070   -0.6710 N.am      1 ASN        -0.3006
      9 N          -8.8430  -28.8330    1.4660 N.am      1 ARG        -0.2609
     10 CA         -7.4780  -29.3420    1.3220 C.3       1 ARG         0.1312
     11 C          -6.7040  -28.3250    0.4010 C.2       1 ARG         0.2039
     12 O          -7.2560  -27.6770   -0.5150 O.2       1 ARG        -0.3944
     13 CB         -7.4690  -30.7560    0.6780 C.3       1 ARG        -0.0092
     14 CG         -8.1960  -31.9320    1.4070 C.3       1 ARG        -0.0156
     15 CD         -8.1400  -31.6520    2.9020 C.3       1 ARG         0.0627
     16 NE         -8.0760  -32.8370    3.7520 N.pl3     1 ARG        -0.2723
     17 CZ         -8.9650  -33.8280    3.7930 C.cat     1 ARG         0.2882
     18 NH1       -10.0120  -33.8460    2.9780 N.pl3     1 ARG        -0.2849
     19 NH2        -8.7720  -34.8410    4.6430 N.pl3     1 ARG        -0.2849
     20 N          -5.4050  -28.3250    0.5710 N.am      1 LEU        -0.2637
     21 CA         -4.5010  -27.7090   -0.3820 C.3       1 LEU         0.1312
     22 C          -4.4200  -28.6030   -1.6190 C.2       1 LEU         0.2039
     23 O          -4.7750  -29.8080   -1.6030 O.2       1 LEU        -0.3944
     24 CB         -3.1430  -27.6250    0.3040 C.3       1 LEU        -0.0101
     25 CG         -3.2060  -26.5210    1.4060 C.3       1 LEU        -0.0425
     26 CD1        -1.8270  -26.6290    2.0070 C.3       1 LEU        -0.0625
     27 CD2        -3.4090  -25.1360    0.7680 C.3       1 LEU        -0.0625
     28 N          -4.0600  -27.9620   -2.7300 N.am      1 MET        -0.2637
     29 CA         -4.1520  -28.5420   -4.0290 C.3       1 MET         0.1317
     30 C          -2.8230  -28.7440   -4.6640 C.2       1 MET         0.2039
     31 O          -1.8490  -28.0200   -4.4440 O.2       1 MET        -0.3944
     32 CB         -5.0860  -27.6530   -4.9880 C.3       1 MET        -0.0034
     33 CG         -6.5330  -27.8480   -4.4810 C.3       1 MET        -0.0024
     34 SD         -7.4690  -26.4870   -5.2980 S.3       1 MET        -0.1639
     35 CE         -9.1160  -27.1630   -5.2020 C.3       1 MET        -0.0181
     36 N          -2.7670  -29.7190   -5.5630 N.am      1 LEU        -0.2637
     37 CA         -1.5610  -30.0760   -6.3220 C.3       1 LEU         0.1312
     38 C          -1.7590  -29.9980   -7.8190 C.2       1 LEU         0.2040
     39 O          -2.8010  -30.5570   -8.3540 O.2       1 LEU        -0.3944
     40 CB         -1.2210  -31.5840   -6.0800 C.3       1 LEU        -0.0101
     41 CG         -0.8820  -31.8390   -4.6080 C.3       1 LEU        -0.0425
     42 CD1        -0.7880  -33.3850   -4.2460 C.3       1 LEU        -0.0625
     43 CD2         0.4220  -31.1150   -4.1340 C.3       1 LEU        -0.0625
     44 N          -0.7880  -29.4210   -8.5080 N.am      1 THR        -0.2613
     45 CA         -0.8940  -29.4610   -9.9830 C.3       1 THR         0.1564
     46 C          -0.2360  -30.6800  -10.5790 C.2       1 THR         0.2057
     47 O           0.3800  -31.4550   -9.8640 O.2       1 THR        -0.3943
     48 CB         -0.1970  -28.2570  -10.5720 C.3       1 THR         0.0924
     49 OG1         1.1570  -28.1870  -10.0780 O.3       1 THR        -0.3874
     50 CG2        -0.9580  -27.0010  -10.0120 C.3       1 THR        -0.0346
     51 N          -0.4100  -30.8810  -11.8810 N.am      1 GLY        -0.2721
     52 CA          0.3000  -32.0350  -12.4760 C.3       1 GLY         0.0833
     53 C          -0.5300  -32.5280  -13.6070 C.2       1 GLY         0.0570
     54 O          -1.6590  -32.0500  -13.7910 O.co2     1 GLY        -0.5669
     55 OXT        -0.0910  -33.4400  -14.3170 O.co2     1 GLY        -0.5669
     56 H1        -11.5611  -25.7968    3.2012 H         1 ASN         0.2017
     57 H2         -9.9629  -25.4097    3.1286 H         1 ASN         0.2017
     58 H3        -10.4598  -26.6869    4.0404 H         1 ASN         0.2017
     59 H4        -11.1904  -27.8942    2.0623 H         1 ASN         0.1125
     60 H5        -10.2919  -26.8972   -0.1222 H         1 ASN         0.0585
     61 H6        -10.0288  -25.3673    0.7817 H         1 ASN         0.0585
     62 H7        -13.1831  -24.9018   -0.9239 H         1 ASN         0.1814
     63 H8        -11.4890  -25.0063   -1.2689 H         1 ASN         0.1814
     64 H9         -9.6240  -29.3782    1.1614 H         1 ARG         0.1885
     65 H10        -6.9965  -29.3943    2.3096 H         1 ARG         0.0800
     66 H11        -6.4153  -31.0507    0.5650 H         1 ARG         0.0313
     67 H12        -7.9313  -30.6594   -0.3155 H         1 ARG         0.0313
     68 H13        -7.6886  -32.8822    1.1842 H         1 ARG         0.0301
     69 H14        -9.2432  -31.9888    1.0751 H         1 ARG         0.0301
     70 H15        -9.0413  -31.0842    3.1764 H         1 ARG         0.0689
     71 H16        -7.2471  -31.0413    3.1011 H         1 ARG         0.0689
     72 H17        -7.2643  -32.9143    4.3814 H         1 ARG         0.2642
     73 H18       -10.6883  -34.6214    3.0254 H         1 ARG         0.2615
     74 H19       -10.1484  -33.0845    2.2980 H         1 ARG         0.2615
     75 H20        -7.9612  -34.8330    5.2782 H         1 ARG         0.2615
     76 H21        -9.4340  -35.6298    4.6629 H         1 ARG         0.2615
     77 H22        -5.0239  -28.7641    1.3846 H         1 LEU         0.1883
     78 H23        -4.8524  -26.7054   -0.6637 H         1 LEU         0.0800
     79 H24        -2.3704  -27.3665   -0.4350 H         1 LEU         0.0315
     80 H25        -2.9004  -28.5941    0.7645 H         1 LEU         0.0315
     81 H26        -3.9960  -26.7189    2.1454 H         1 LEU         0.0298
     82 H27        -1.7217  -25.8930    2.8177 H         1 LEU         0.0232
     83 H28        -1.0725  -26.4307    1.2315 H         1 LEU         0.0232
     84 H29        -1.6810  -27.6420    2.4102 H         1 LEU         0.0232
     85 H30        -4.4187  -25.0759    0.3356 H         1 LEU         0.0232
     86 H31        -2.6612  -24.9841   -0.0243 H         1 LEU         0.0232
     87 H32        -3.2924  -24.3576    1.5364 H         1 LEU         0.0232
     88 H33        -3.7084  -27.0294   -2.6489 H         1 MET         0.1883
     89 H34        -4.6219  -29.5302   -3.9168 H         1 MET         0.0800
     90 H35        -4.9977  -27.9946   -6.0299 H         1 MET         0.0320
     91 H36        -4.7991  -26.5930   -4.9240 H         1 MET         0.0320
     92 H37        -6.5809  -27.7548   -3.3860 H         1 MET         0.0378
     93 H38        -6.9255  -28.8302   -4.7829 H         1 MET         0.0378
     94 H39        -9.8282  -26.4595   -5.6578 H         1 MET         0.0340
     95 H40        -9.3849  -27.3254   -4.1478 H         1 MET         0.0340
     96 H41        -9.1511  -28.1211   -5.7412 H         1 MET         0.0340
     97 H42        -3.6001  -30.2448   -5.7348 H         1 LEU         0.1883
     98 H43        -0.7302  -29.4260   -6.0100 H         1 LEU         0.0800
     99 H44        -0.3575  -31.8627   -6.7018 H         1 LEU         0.0315
    100 H45        -2.0890  -32.1984   -6.3612 H         1 LEU         0.0315
    101 H46        -1.7139  -31.4200   -4.0228 H         1 LEU         0.0298
    102 H47        -0.5429  -33.4976   -3.1796 H         1 LEU         0.0232
    103 H48        -0.0026  -33.8570   -4.8545 H         1 LEU         0.0232
    104 H49        -1.7535  -33.8696   -4.4535 H         1 LEU         0.0232
    105 H50         0.3589  -30.0455   -4.3835 H         1 LEU         0.0232
    106 H51         1.2923  -31.5587   -4.6397 H         1 LEU         0.0232
    107 H52         0.5313  -31.2318   -3.0457 H         1 LEU         0.0232
    108 H53        -0.0165  -28.9774   -8.0518 H         1 THR         0.1884
    109 H54        -1.9582  -29.4506  -10.2611 H         1 THR         0.0826
    110 H55        -0.2136  -28.2865  -11.6715 H         1 THR         0.0639
    111 H56         1.1439  -28.1114   -9.1311 H         1 THR         0.2101
    112 H57        -0.4945  -26.0851  -10.4074 H         1 THR         0.0257
    113 H58        -0.8998  -26.9966   -8.9136 H         1 THR         0.0257
    114 H59        -2.0123  -27.0422  -10.3232 H         1 THR         0.0257
    115 H60        -0.9918  -30.2822  -12.4314 H         1 GLY         0.1873
    116 H61         0.4233  -32.8293  -11.7251 H         1 GLY         0.0689
    117 H62         1.2882  -31.7208  -12.8430 H         1 GLY         0.0689
@<TRIPOS>BOND
     1    1    2 1  
     2    2    3 1  
     3    2    5 1  
     4    3    4 2  
     5    3    9 am 
     6    5    6 1  
     7    6    7 2  
     8    6    8 am 
     9    9   10 1  
    10   10   11 1  
    11   10   13 1  
    12   11   12 2  
    13   11   20 am 
    14   13   14 1  
    15   14   15 1  
    16   15   16 1  
    17   16   17 ar 
    18   17   18 ar 
    19   17   19 ar 
    20   20   21 1  
    21   21   22 1  
    22   21   24 1  
    23   22   23 2  
    24   22   28 am 
    25   24   25 1  
    26   25   26 1  
    27   25   27 1  
    28   28   29 1  
    29   29   30 1  
    30   29   32 1  
    31   30   31 2  
    32   30   36 am 
    33   32   33 1  
    34   33   34 1  
    35   34   35 1  
    36   36   37 1  
    37   37   38 1  
    38   37   40 1  
    39   38   39 2  
    40   38   44 am 
    41   40   41 1  
    42   41   42 1  
    43   41   43 1  
    44   44   45 1  
    45   45   46 1  
    46   45   48 1  
    47   46   47 2  
    48   46   51 am 
    49   48   49 1  
    50   48   50 1  
    51   51   52 1  
    52   52   53 1  
    53   53   54 ar 
    54   53   55 ar 
    55    1   56 1  
    56    1   57 1  
    57    1   58 1  
    58    2   59 1  
    59    5   60 1  
    60    5   61 1  
    61    8   62 1  
    62    8   63 1  
    63    9   64 1  
    64   10   65 1  
    65   13   66 1  
    66   13   67 1  
    67   14   68 1  
    68   14   69 1  
    69   15   70 1  
    70   15   71 1  
    71   16   72 1  
    72   18   73 1  
    73   18   74 1  
    74   19   75 1  
    75   19   76 1  
    76   20   77 1  
    77   21   78 1  
    78   24   79 1  
    79   24   80 1  
    80   25   81 1  
    81   26   82 1  
    82   26   83 1  
    83   26   84 1  
    84   27   85 1  
    85   27   86 1  
    86   27   87 1  
    87   28   88 1  
    88   29   89 1  
    89   32   90 1  
    90   32   91 1  
    91   33   92 1  
    92   33   93 1  
    93   35   94 1  
    94   35   95 1  
    95   35   96 1  
    96   36   97 1  
    97   37   98 1  
    98   40   99 1  
    99   40  100 1  
   100   41  101 1  
   101   42  102 1  
   102   42  103 1  
   103   42  104 1  
   104   43  105 1  
   105   43  106 1  
   106   43  107 1  
   107   44  108 1  
   108   45  109 1  
   109   48  110 1  
   110   49  111 1  
   111   50  112 1  
   112   50  113 1  
   113   50  114 1  
   114   51  115 1  
   115   52  116 1  
   116   52  117 1  
@<TRIPOS>SUBSTRUCTURE
     1 ASN         1

