### 
### Created by X-TOOL on Mon Sep 10 21:13:15 2018
### 

@<TRIPOS>MOLECULE
4ezz_ligand
  127   127     1     0     0
SMALL
GAST_HUCK


@<TRIPOS>ATOM
      1 N          61.2050   84.2090   24.0870 N.4       1 GLU         0.2380
      2 CA         60.4790   83.8350   22.8250 C.3       1 GLU         0.0665
      3 C          58.9910   84.2490   22.8740 C.2       1 GLU         0.2268
      4 O          58.2310   84.0500   21.9120 O.2       1 GLU        -0.3907
      5 CB         60.5590   82.3190   22.6130 C.3       1 GLU         0.0194
      6 CG         59.8370   81.5290   23.7040 C.3       1 GLU         0.0075
      7 CD         60.1360   80.0240   23.7350 C.2       1 GLU         0.0351
      8 OE1        59.1640   79.2580   23.6240 O.co2     1 GLU        -0.5690
      9 OE2        61.3110   79.5840   23.8840 O.co2     1 GLU        -0.5690
     10 N          58.5540   84.7350   24.0310 N.am      1 LEU        -0.2610
     11 CA         57.2520   85.3710   24.1960 C.3       1 LEU         0.1315
     12 C          57.4470   86.4250   25.2620 C.2       1 LEU         0.2064
     13 O          58.3480   86.2770   26.0940 O.2       1 LEU        -0.3942
     14 CB         56.1530   84.3740   24.6470 C.3       1 LEU        -0.0101
     15 CG         55.4500   83.5750   23.5370 C.3       1 LEU        -0.0425
     16 CD1        54.3970   82.6070   24.0810 C.3       1 LEU        -0.0625
     17 CD2        54.8340   84.4960   22.4700 C.3       1 LEU        -0.0625
     18 N          56.6420   87.5090   25.2030 N.am      1 PRO        -0.2498
     19 CA         56.7350   88.4810   26.2770 C.3       1 PRO         0.1338
     20 C          56.4370   87.7360   27.5760 C.2       1 PRO         0.2041
     21 O          55.7980   86.6690   27.5680 O.2       1 PRO        -0.3944
     22 CB         55.6110   89.5030   25.9590 C.3       1 PRO        -0.0104
     23 CG         55.3670   89.3770   24.4780 C.3       1 PRO        -0.0281
     24 CD         55.6910   87.9260   24.1320 C.3       1 PRO         0.0369
     25 N          56.9360   88.2790   28.6680 N.am      1 LEU        -0.2637
     26 CA         56.5300   87.7990   30.0090 C.3       1 LEU         0.1312
     27 C          55.0600   87.8250   30.3400 C.2       1 LEU         0.2039
     28 O          54.3210   88.6670   29.8250 O.2       1 LEU        -0.3944
     29 CB         57.2320   88.6600   31.0390 C.3       1 LEU        -0.0101
     30 CG         58.6830   88.2330   31.2230 C.3       1 LEU        -0.0425
     31 CD1        59.4320   89.3600   31.9540 C.3       1 LEU        -0.0625
     32 CD2        58.7160   86.9590   32.0390 C.3       1 LEU        -0.0625
     33 N          54.6420   86.9580   31.2590 N.am      1 VAL        -0.2635
     34 CA         53.2480   86.9060   31.7110 C.3       1 VAL         0.1332
     35 C          53.1050   87.5560   33.0600 C.2       1 VAL         0.2041
     36 O          53.8040   87.2040   34.0190 O.2       1 VAL        -0.3944
     37 CB         52.7340   85.4580   31.8070 C.3       1 VAL        -0.0063
     38 CG1        51.6110   85.3180   32.8270 C.3       1 VAL        -0.0584
     39 CG2        52.2590   85.0120   30.4480 C.3       1 VAL        -0.0584
     40 N          52.2180   88.5350   33.1170 N.am      1 LYS        -0.2637
     41 CA         51.9360   89.2220   34.3410 C.3       1 LYS         0.1309
     42 C          51.2610   88.1570   35.1780 C.2       1 LYS         0.2033
     43 O          50.2350   87.6370   34.7910 O.2       1 LYS        -0.3944
     44 CB         51.0140   90.4090   34.0140 C.3       1 LYS        -0.0122
     45 CG         50.5410   91.2020   35.2170 C.3       1 LYS        -0.0440
     46 CD         51.6670   91.9930   35.8680 C.3       1 LYS        -0.0124
     47 CE         51.1260   93.1620   36.7000 C.3       1 LYS        -0.0354
     48 NZ         50.2700   92.6970   37.8350 N.4       1 LYS         0.2185
     49 N          51.8350   87.7550   36.2920 N.am      1 ILE        -0.2692
     50 CA         51.1710   86.6610   37.0240 C.3       1 ILE         0.0969
     51 C          50.3620   87.1620   38.2300 C.2       1 ILE         0.0604
     52 O          50.7730   87.1470   39.3800 O.co2     1 ILE        -0.5666
     53 CB         52.0790   85.4040   37.3220 C.3       1 ILE        -0.0092
     54 CG1        51.2740   84.2830   38.0410 C.3       1 ILE        -0.0497
     55 CG2        53.3220   85.7730   38.1240 C.3       1 ILE        -0.0588
     56 CD1        51.4750   82.8480   37.5460 C.3       1 ILE        -0.0649
     57 OXT        49.2380   87.6370   38.0640 O.co2     1 ILE        -0.5666
     58 H1         62.1692   83.9236   24.0171 H         1 GLU         0.2015
     59 H2         60.7739   83.7468   24.8722 H         1 GLU         0.2015
     60 H3         61.1588   85.2074   24.2180 H         1 GLU         0.2015
     61 H4         60.9614   84.3453   21.9783 H         1 GLU         0.1099
     62 H5         61.6177   82.0206   22.6055 H         1 GLU         0.0363
     63 H6         60.1025   82.0754   21.6423 H         1 GLU         0.0363
     64 H7         58.7546   81.6568   23.5555 H         1 GLU         0.0434
     65 H8         60.1261   81.9524   24.6772 H         1 GLU         0.0434
     66 H9         59.1495   84.6607   24.8309 H         1 LEU         0.1884
     67 H10        56.9440   85.8373   23.2486 H         1 LEU         0.0800
     68 H11        55.3830   84.9469   25.1844 H         1 LEU         0.0315
     69 H12        56.6190   83.6520   25.3337 H         1 LEU         0.0315
     70 H13        56.2225   82.9692   23.0408 H         1 LEU         0.0298
     71 H14        53.9298   82.0658   23.2450 H         1 LEU         0.0232
     72 H15        53.6276   83.1717   24.6279 H         1 LEU         0.0232
     73 H16        54.8767   81.8877   24.7610 H         1 LEU         0.0232
     74 H17        55.6040   85.1839   22.0907 H         1 LEU         0.0232
     75 H18        54.0122   85.0754   22.9159 H         1 LEU         0.0232
     76 H19        54.4454   83.8873   21.6403 H         1 LEU         0.0232
     77 H20        57.7216   88.9657   26.3183 H         1 PRO         0.0802
     78 H21        55.9356   90.5235   26.2106 H         1 PRO         0.0313
     79 H22        54.6980   89.2593   26.5220 H         1 PRO         0.0313
     80 H23        56.0242   90.0608   23.9208 H         1 PRO         0.0287
     81 H24        54.3169   89.6032   24.2410 H         1 PRO         0.0287
     82 H25        54.7825   87.3062   24.1515 H         1 PRO         0.0524
     83 H26        56.1619   87.8553   23.1404 H         1 PRO         0.0524
     84 H27        57.5975   89.0249   28.5903 H         1 LEU         0.1883
     85 H28        56.8732   86.7583   30.1042 H         1 LEU         0.0800
     86 H29        56.7068   88.5675   32.0011 H         1 LEU         0.0315
     87 H30        57.2066   89.7083   30.7067 H         1 LEU         0.0315
     88 H31        59.1493   88.0546   30.2429 H         1 LEU         0.0298
     89 H32        60.4833   89.0694   32.0962 H         1 LEU         0.0232
     90 H33        58.9644   89.5355   32.9341 H         1 LEU         0.0232
     91 H34        59.3841   90.2811   31.3546 H         1 LEU         0.0232
     92 H35        58.1764   86.1653   31.5016 H         1 LEU         0.0232
     93 H36        58.2353   87.1346   33.0127 H         1 LEU         0.0232
     94 H37        59.7603   86.6509   32.1958 H         1 LEU         0.0232
     95 H38        55.3018   86.3195   31.6553 H         1 VAL         0.1883
     96 H39        52.6287   87.4524   30.9844 H         1 VAL         0.0802
     97 H40        53.5675   84.8126   32.1212 H         1 VAL         0.0343
     98 H41        51.2759   84.2709   32.8620 H         1 VAL         0.0234
     99 H42        50.7688   85.9629   32.5360 H         1 VAL         0.0234
    100 H43        51.9775   85.6190   33.8195 H         1 VAL         0.0234
    101 H44        53.0775   85.1175   29.7207 H         1 VAL         0.0234
    102 H45        51.4077   85.6342   30.1347 H         1 VAL         0.0234
    103 H46        51.9453   83.9588   30.4966 H         1 VAL         0.0234
    104 H47        51.7322   88.8021   32.2847 H         1 LYS         0.1883
    105 H48        52.8521   89.5833   34.8310 H         1 LYS         0.0800
    106 H49        50.1276   90.0192   33.4920 H         1 LYS         0.0312
    107 H50        51.5607   91.0927   33.3479 H         1 LYS         0.0312
    108 H51        50.1243   90.5046   35.9586 H         1 LYS         0.0269
    109 H52        49.7581   91.9032   34.8926 H         1 LYS         0.0269
    110 H53        52.3263   92.3892   35.0817 H         1 LYS         0.0317
    111 H54        52.2411   91.3228   36.5246 H         1 LYS         0.0317
    112 H55        50.5264   93.8139   36.0477 H         1 LYS         0.0813
    113 H56        51.9752   93.7309   37.1064 H         1 LYS         0.0813
    114 H57        49.9369   93.4948   38.3534 H         1 LYS         0.1994
    115 H58        50.8119   92.1035   38.4434 H         1 LYS         0.1994
    116 H59        49.4843   92.1795   37.4732 H         1 LYS         0.1994
    117 H60        52.6807   88.1715   36.6258 H         1 ILE         0.1875
    118 H61        50.4137   86.2824   36.3218 H         1 ILE         0.0729
    119 H62        52.4160   85.0047   36.3540 H         1 ILE         0.0338
    120 H63        50.2058   84.5228   37.9346 H         1 ILE         0.0267
    121 H64        51.5511   84.3075   39.1052 H         1 ILE         0.0267
    122 H65        53.8753   86.5655   37.5988 H         1 ILE         0.0234
    123 H66        53.9649   84.8871   38.2323 H         1 ILE         0.0234
    124 H67        53.0227   86.1327   39.1195 H         1 ILE         0.0234
    125 H68        50.8496   82.1646   38.1391 H         1 ILE         0.0230
    126 H69        52.5326   82.5666   37.6570 H         1 ILE         0.0230
    127 H70        51.1872   82.7819   36.4864 H         1 ILE         0.0230
@<TRIPOS>BOND
     1    1    2 1  
     2    2    3 1  
     3    2    5 1  
     4    3    4 2  
     5    3   10 am 
     6    5    6 1  
     7    6    7 1  
     8    7    8 ar 
     9    7    9 ar 
    10   10   11 1  
    11   11   12 1  
    12   11   14 1  
    13   12   13 2  
    14   12   18 am 
    15   14   15 1  
    16   15   16 1  
    17   15   17 1  
    18   18   19 1  
    19   18   24 1  
    20   19   20 1  
    21   19   22 1  
    22   20   21 2  
    23   20   25 am 
    24   22   23 1  
    25   23   24 1  
    26   25   26 1  
    27   26   27 1  
    28   26   29 1  
    29   27   28 2  
    30   27   33 am 
    31   29   30 1  
    32   30   31 1  
    33   30   32 1  
    34   33   34 1  
    35   34   35 1  
    36   34   37 1  
    37   35   36 2  
    38   35   40 am 
    39   37   38 1  
    40   37   39 1  
    41   40   41 1  
    42   41   42 1  
    43   41   44 1  
    44   42   43 2  
    45   42   49 am 
    46   44   45 1  
    47   45   46 1  
    48   46   47 1  
    49   47   48 1  
    50   49   50 1  
    51   50   51 1  
    52   50   53 1  
    53   51   52 ar 
    54   51   57 ar 
    55   53   54 1  
    56   53   55 1  
    57   54   56 1  
    58    1   58 1  
    59    1   59 1  
    60    1   60 1  
    61    2   61 1  
    62    5   62 1  
    63    5   63 1  
    64    6   64 1  
    65    6   65 1  
    66   10   66 1  
    67   11   67 1  
    68   14   68 1  
    69   14   69 1  
    70   15   70 1  
    71   16   71 1  
    72   16   72 1  
    73   16   73 1  
    74   17   74 1  
    75   17   75 1  
    76   17   76 1  
    77   19   77 1  
    78   22   78 1  
    79   22   79 1  
    80   23   80 1  
    81   23   81 1  
    82   24   82 1  
    83   24   83 1  
    84   25   84 1  
    85   26   85 1  
    86   29   86 1  
    87   29   87 1  
    88   30   88 1  
    89   31   89 1  
    90   31   90 1  
    91   31   91 1  
    92   32   92 1  
    93   32   93 1  
    94   32   94 1  
    95   33   95 1  
    96   34   96 1  
    97   37   97 1  
    98   38   98 1  
    99   38   99 1  
   100   38  100 1  
   101   39  101 1  
   102   39  102 1  
   103   39  103 1  
   104   40  104 1  
   105   41  105 1  
   106   44  106 1  
   107   44  107 1  
   108   45  108 1  
   109   45  109 1  
   110   46  110 1  
   111   46  111 1  
   112   47  112 1  
   113   47  113 1  
   114   48  114 1  
   115   48  115 1  
   116   48  116 1  
   117   49  117 1  
   118   50  118 1  
   119   53  119 1  
   120   54  120 1  
   121   54  121 1  
   122   55  122 1  
   123   55  123 1  
   124   55  124 1  
   125   56  125 1  
   126   56  126 1  
   127   56  127 1  
@<TRIPOS>SUBSTRUCTURE
     1 GLU         1

