### 
### Created by X-TOOL on Mon Sep 10 21:13:11 2018
### 

@<TRIPOS>MOLECULE
4f08_ligand
   34    37     1     0     0
SMALL
GAST_HUCK


@<TRIPOS>ATOM
      1 C2         10.3890  -53.7910  -23.2710 C.2       1 1RS         0.1057
      2 N3         11.0980  -53.0440  -24.0350 N.2       1 1RS        -0.3073
      3 C4         11.2200  -51.8420  -23.4720 C.ar      1 1RS         0.0457
      4 C5         11.8720  -50.6940  -23.8730 C.ar      1 1RS        -0.0037
      5 N6         11.8450  -49.6350  -23.1330 N.ar      1 1RS        -0.3020
      6 C7         11.2050  -49.5860  -21.9890 C.ar      1 1RS         0.1217
      7 C8         10.5180  -50.6970  -21.5090 C.ar      1 1RS         0.0218
      8 C9         10.5210  -51.8670  -22.2650 C.ar      1 1RS         0.0937
      9 N10        10.0020  -53.1230  -22.1720 N.pl3     1 1RS        -0.2309
     10 C11         9.1960  -53.7450  -21.1370 C.3       1 1RS         0.0795
     11 C12         7.7160  -53.4350  -21.1330 C.3       1 1RS         0.0179
     12 C13         7.0830  -54.5680  -20.3380 C.3       1 1RS        -0.0308
     13 N14         7.6480  -54.6270  -18.9930 N.4       1 1RS         0.2271
     14 C15         9.0910  -54.8460  -18.9870 C.3       1 1RS        -0.0308
     15 C16         9.7580  -53.7040  -19.7330 C.3       1 1RS         0.0179
     16 C17         9.9440  -50.2830  -20.2420 C.2       1 1RS        -0.0603
     17 C18        10.2970  -49.0140  -20.0490 C.2       1 1RS         0.0217
     18 N19        11.0550  -48.5850  -21.0830 N.pl3     1 1RS        -0.2734
     19 H          10.1345  -54.8291  -23.4849 H         1 1RS         0.1328
     20 H          12.4129  -50.6803  -24.8193 H         1 1RS         0.0712
     21 H           9.2774  -54.7773  -21.4774 H         1 1RS         0.0653
     22 H           7.3118  -53.3734  -22.1434 H         1 1RS         0.0347
     23 H           7.5067  -52.4618  -20.6891 H         1 1RS         0.0347
     24 H           7.2810  -55.5113  -20.8469 H         1 1RS         0.0815
     25 H           6.0099  -54.3920  -20.2638 H         1 1RS         0.0815
     26 H           7.2134  -55.4124  -18.5085 H         1 1RS         0.2013
     27 H           7.4689  -53.7298  -18.5420 H         1 1RS         0.2013
     28 H           9.3244  -55.7932  -19.4733 H         1 1RS         0.0815
     29 H           9.4564  -54.8822  -17.9607 H         1 1RS         0.0815
     30 H           9.5572  -52.7461  -19.2533 H         1 1RS         0.0347
     31 H          10.8426  -53.8126  -19.7367 H         1 1RS         0.0347
     32 H           9.3381  -50.8956  -19.5743 H         1 1RS         0.0295
     33 H          10.0166  -48.4106  -19.1857 H         1 1RS         0.0917
     34 H          11.4542  -47.6504  -21.1698 H         1 1RS         0.2287
@<TRIPOS>BOND
     1    1    2 2  
     2    1    9 1  
     3    2    3 1  
     4    3    4 ar 
     5    3    8 ar 
     6    4    5 ar 
     7    5    6 ar 
     8    6    7 ar 
     9    6   18 1  
    10    7    8 ar 
    11    7   16 1  
    12    8    9 1  
    13    9   10 1  
    14   10   11 1  
    15   10   15 1  
    16   11   12 1  
    17   12   13 1  
    18   13   14 1  
    19   14   15 1  
    20   16   17 2  
    21   17   18 1  
    22    1   19 1  
    23    4   20 1  
    24   10   21 1  
    25   11   22 1  
    26   11   23 1  
    27   12   24 1  
    28   12   25 1  
    29   13   26 1  
    30   13   27 1  
    31   14   28 1  
    32   14   29 1  
    33   15   30 1  
    34   15   31 1  
    35   16   32 1  
    36   17   33 1  
    37   18   34 1  
@<TRIPOS>SUBSTRUCTURE
     1 1RS         1

