### 
### Created by X-TOOL on Mon Sep 10 21:13:12 2018
### 

@<TRIPOS>MOLECULE
4f0c_ligand
   70    69     1     0     0
SMALL
GAST_HUCK


@<TRIPOS>ATOM
      1 N1          6.2020   19.7360    3.7790 N.4       1 GDS         0.2328
      2 CA1         5.3000   20.2360    4.8850 C.3       1 GDS         0.0304
      3 C1          6.1280   20.9870    6.0020 C.2       1 GDS         0.0846
      4 OE1         7.3010   20.5890    6.2710 O.co2     1 GDS        -0.5643
      5 OE2         5.5860   22.0060    6.5180 O.co2     1 GDS        -0.5643
      6 CB1         4.4940   19.0680    5.5560 C.3       1 GDS         0.0193
      7 CG1         3.5730   19.5990    6.6790 C.3       1 GDS         0.0441
      8 CD1         2.7080   18.4800    7.1660 C.2       1 GDS         0.1785
      9 O1          2.7560   17.3310    6.7600 O.2       1 GDS        -0.3969
     10 N2          1.8190   18.8530    8.1540 N.am      1 GDS        -0.2648
     11 CA2         0.8640   17.8900    8.7370 C.3       1 GDS         0.1405
     12 C2         -0.5520   18.3570    8.5020 C.2       1 GDS         0.2040
     13 O2         -0.8390   19.5480    8.6540 O.2       1 GDS        -0.3944
     14 CB2         1.0140   17.8260   10.2750 C.3       1 GDS         0.0443
     15 SG2         2.5490   16.9770   10.7080 S.3       1 GDS        -0.0882
     16 N3         -1.4670   17.4090    8.2110 N.am      1 GDS        -0.2722
     17 CA3        -2.8390   17.7910    8.0220 C.3       1 GDS         0.0833
     18 C3         -3.4190   17.1310    6.7760 C.2       1 GDS         0.0570
     19 OE3        -4.6580   17.1720    6.6150 O.co2     1 GDS        -0.5669
     20 OE4        -2.5850   16.6600    5.9810 O.co2     1 GDS        -0.5669
     21 N4          4.0120   14.7950    6.3520 N.am      1 GDS        -0.2722
     22 CA4         5.0160   14.5110    5.3170 C.3       1 GDS         0.0833
     23 C4          6.2020   15.5030    5.5010 C.2       1 GDS         0.0570
     24 OE5         6.4760   15.9030    6.6620 O.co2     1 GDS        -0.5669
     25 OE6         6.8080   15.8160    4.4560 O.co2     1 GDS        -0.5669
     26 C5          3.2630   13.7850    6.9030 C.2       1 GDS         0.2040
     27 O5          3.3770   12.6000    6.5860 O.2       1 GDS        -0.3944
     28 CA5         2.2550   14.1560    7.9830 C.3       1 GDS         0.1405
     29 N5          1.1180   13.1930    7.9890 N.am      1 GDS        -0.2648
     30 CB5         2.9890   14.1350    9.3280 C.3       1 GDS         0.0443
     31 SG5         1.9640   14.9140   10.6340 S.3       1 GDS        -0.0882
     32 CA6        -2.2180   13.3090    5.5530 C.3       1 GDS         0.0304
     33 C6         -1.9910   11.9340    4.8050 C.2       1 GDS         0.0846
     34 OE7        -2.9140   11.4870    4.0900 O.co2     1 GDS        -0.5643
     35 OE8        -0.8820   11.3820    4.9690 O.co2     1 GDS        -0.5643
     36 N6         -3.2960   14.0600    4.9100 N.4       1 GDS         0.2328
     37 CB6        -2.5190   12.9780    7.0450 C.3       1 GDS         0.0193
     38 CG6        -1.2650   12.5630    7.8300 C.3       1 GDS         0.0441
     39 CD6        -0.2040   13.6550    7.7830 C.2       1 GDS         0.1785
     40 O6         -0.4200   14.8610    7.6150 O.2       1 GDS        -0.3969
     41 H1          5.6485   19.2624    3.0823 H         1 GDS         0.2010
     42 H2          6.8799   19.0957    4.1618 H         1 GDS         0.2010
     43 H3          6.6788   20.5166    3.3555 H         1 GDS         0.2010
     44 H4          4.5835   20.9445    4.4439 H         1 GDS         0.1026
     45 H5          5.2018   18.3433    5.9848 H         1 GDS         0.0363
     46 H6          3.8784   18.5711    4.7917 H         1 GDS         0.0363
     47 H7          2.9416   20.4097    6.2864 H         1 GDS         0.0505
     48 H8          4.1854   19.9805    7.5093 H         1 GDS         0.0505
     49 H9          1.8220   19.7975    8.4824 H         1 GDS         0.1883
     50 H10         1.0251   16.8971    8.2919 H         1 GDS         0.0808
     51 H11         0.1612   17.2782   10.7022 H         1 GDS         0.0432
     52 H12         1.0348   18.8476   10.6823 H         1 GDS         0.0432
     53 H13        -1.1931   16.4508    8.1278 H         1 GDS         0.1873
     54 H14        -2.8969   18.8838    7.9111 H         1 GDS         0.0689
     55 H15        -3.4240   17.4800    8.9001 H         1 GDS         0.0689
     56 H16         3.8726   15.7365    6.6590 H         1 GDS         0.1873
     57 H17         4.5706   14.6446    4.3201 H         1 GDS         0.0689
     58 H18         5.3763   13.4770    5.4221 H         1 GDS         0.0689
     59 H19         1.8659   15.1670    7.7922 H         1 GDS         0.0808
     60 H20         1.2891   12.2192    8.1387 H         1 GDS         0.1883
     61 H21         3.9348   14.6884    9.2325 H         1 GDS         0.0432
     62 H22         3.2007   13.0926    9.6082 H         1 GDS         0.0432
     63 H23        -1.2985   13.9104    5.5003 H         1 GDS         0.1026
     64 H24        -3.4321   14.9336    5.3942 H         1 GDS         0.2010
     65 H25        -4.1472   13.5212    4.9434 H         1 GDS         0.2010
     66 H26        -3.0516   14.2429    3.9494 H         1 GDS         0.2010
     67 H27        -3.2452   12.1527    7.0819 H         1 GDS         0.0363
     68 H28        -2.9525   13.8695    7.5218 H         1 GDS         0.0363
     69 H29        -0.8535   11.6427    7.3898 H         1 GDS         0.0505
     70 H30        -1.5423   12.3761    8.8779 H         1 GDS         0.0505
@<TRIPOS>BOND
     1    2    1 1  
     2    2    3 1  
     3    6    2 1  
     4    3    4 ar 
     5    3    5 ar 
     6    7    6 1  
     7    8    7 1  
     8    8    9 2  
     9   10    8 am 
    10   11   10 1  
    11   11   12 1  
    12   14   11 1  
    13   12   13 2  
    14   12   16 am 
    15   15   14 1  
    16   31   15 1  
    17   16   17 1  
    18   17   18 1  
    19   18   19 ar 
    20   18   20 ar 
    21   21   22 1  
    22   26   21 am 
    23   22   23 1  
    24   23   24 ar 
    25   23   25 ar 
    26   26   27 2  
    27   28   26 1  
    28   29   28 1  
    29   28   30 1  
    30   39   29 am 
    31   30   31 1  
    32   32   33 1  
    33   32   36 1  
    34   37   32 1  
    35   33   34 ar 
    36   33   35 ar 
    37   38   37 1  
    38   38   39 1  
    39   39   40 2  
    40    1   41 1  
    41    1   42 1  
    42    1   43 1  
    43    2   44 1  
    44    6   45 1  
    45    6   46 1  
    46    7   47 1  
    47    7   48 1  
    48   10   49 1  
    49   11   50 1  
    50   14   51 1  
    51   14   52 1  
    52   16   53 1  
    53   17   54 1  
    54   17   55 1  
    55   21   56 1  
    56   22   57 1  
    57   22   58 1  
    58   28   59 1  
    59   29   60 1  
    60   30   61 1  
    61   30   62 1  
    62   32   63 1  
    63   36   64 1  
    64   36   65 1  
    65   36   66 1  
    66   37   67 1  
    67   37   68 1  
    68   38   69 1  
    69   38   70 1  
@<TRIPOS>SUBSTRUCTURE
     1 GDS         1

