### 
### Created by X-TOOL on Mon Sep 10 21:13:10 2018
### 

@<TRIPOS>MOLECULE
4f1l_ligand
   26    26     1     0     0
SMALL
GAST_HUCK


@<TRIPOS>ATOM
      1 OAB         2.9760   12.6890    4.9760 O.co2     1 0RY        -0.5582
      2 CAM         4.0580   13.3230    5.0630 C.2       1 0RY         0.0648
      3 OAE         4.3450   14.0160    6.0680 O.co2     1 0RY        -0.5582
      4 CAF         4.9460   13.4410    3.9650 C.2       1 0RY        -0.0064
      5 CAG         4.9780   12.8210    2.6970 C.2       1 0RY         0.0313
      6 CAO         4.1440   11.8390    2.1070 C.2       1 0RY         0.2294
      7 OAD         4.5280   11.4050    1.0260 O.2       1 0RY        -0.3724
      8 NAL         3.0000   11.4660    2.6950 N.am      1 0RY        -0.2324
      9 CAP         2.2330   10.4190    2.3690 C.ar      1 0RY         0.0714
     10 CAK         1.8680    9.9630    1.0950 C.ar      1 0RY        -0.0214
     11 CAI         1.8260    9.6850    3.4890 C.ar      1 0RY        -0.0368
     12 CAH         1.0970    8.5320    3.3150 C.ar      1 0RY        -0.0698
     13 CAJ         0.7310    8.0890    2.0380 C.ar      1 0RY        -0.0573
     14 CAQ         1.1050    8.7990    0.9140 C.ar      1 0RY         0.0362
     15 CAN         0.6680    8.2480   -0.4920 C.2       1 0RY         0.1989
     16 OAC        -0.4720    7.7990   -0.6400 O.2       1 0RY        -0.3849
     17 NAA         1.4870    8.4400   -1.5180 N.am      1 0RY        -0.3002
     18 H1          5.7600   14.1451    4.1312 H         1 0RY         0.0792
     19 H2          5.7911   13.1587    2.0561 H         1 0RY         0.0780
     20 H3          2.6856   12.0297    3.4588 H         1 0RY         0.2251
     21 H4          2.1842   10.5257    0.2241 H         1 0RY         0.0554
     22 H5          2.0835   10.0229    4.4863 H         1 0RY         0.0538
     23 H6          0.7999    7.9549    4.1832 H         1 0RY         0.0589
     24 H7          0.1490    7.1808    1.9308 H         1 0RY         0.0540
     25 H8          1.2389    8.1020   -2.4259 H         1 0RY         0.1808
     26 H9          2.3524    8.9227   -1.3835 H         1 0RY         0.1808
@<TRIPOS>BOND
     1    1    2 ar 
     2    2    3 ar 
     3    2    4 1  
     4    4    5 2  
     5    5    6 1  
     6    6    7 2  
     7    6    8 am 
     8    8    9 1  
     9    9   10 ar 
    10    9   11 ar 
    11   10   14 ar 
    12   11   12 ar 
    13   12   13 ar 
    14   13   14 ar 
    15   14   15 1  
    16   15   16 2  
    17   15   17 am 
    18    4   18 1  
    19    5   19 1  
    20    8   20 1  
    21   10   21 1  
    22   11   22 1  
    23   12   23 1  
    24   13   24 1  
    25   17   25 1  
    26   17   26 1  
@<TRIPOS>SUBSTRUCTURE
     1 0RY         1

