### 
### Created by X-TOOL on Mon Sep 10 21:13:11 2018
### 

@<TRIPOS>MOLECULE
4f1q_ligand
   28    28     1     0     0
SMALL
GAST_HUCK


@<TRIPOS>ATOM
      1 OAB        38.9190   22.0640  -25.8630 O.co2     1 0RZ        -0.5689
      2 CAM        39.4130   21.1480  -25.1630 C.2       1 0RZ         0.0370
      3 OAE        40.3740   20.4540  -25.5860 O.co2     1 0RZ        -0.5689
      4 CAF        38.8280   20.8900  -23.7850 C.3       1 0RZ         0.0175
      5 CAG        39.3790   19.7620  -22.8790 C.3       1 0RZ         0.0546
      6 CAO        38.7670   19.5150  -21.4860 C.2       1 0RZ         0.2052
      7 OAD        39.2040   18.6350  -20.7400 O.2       1 0RZ        -0.3848
      8 NAL        37.7890   20.3870  -21.1940 N.am      1 0RZ        -0.2330
      9 CAP        37.0220   20.3120  -20.1160 C.ar      1 0RZ         0.0717
     10 CAK        36.3220   21.4760  -19.8160 C.ar      1 0RZ        -0.0215
     11 CAI        36.7800   19.1510  -19.3710 C.ar      1 0RZ        -0.0369
     12 CAH        35.8790   19.1920  -18.3070 C.ar      1 0RZ        -0.0699
     13 CAJ        35.2100   20.3730  -17.9930 C.ar      1 0RZ        -0.0574
     14 CAQ        35.4320   21.5170  -18.7540 C.ar      1 0RZ         0.0361
     15 CAN        34.7790   22.6880  -18.4550 C.2       1 0RZ         0.1989
     16 OAC        34.3950   22.9130  -17.3100 O.2       1 0RZ        -0.3849
     17 NAA        34.5620   23.5020  -19.4810 N.am      1 0RZ        -0.3003
     18 H          37.8011   20.5862  -23.9880 H         1 0RZ         0.0455
     19 H          39.0473   21.8028  -23.2311 H         1 0RZ         0.0455
     20 H          40.4075   20.0587  -22.6735 H         1 0RZ         0.0526
     21 H          39.1712   18.8458  -23.4317 H         1 0RZ         0.0526
     22 H          37.6259   21.1565  -21.8434 H         1 0RZ         0.2256
     23 H          36.4753   22.3676  -20.4240 H         1 0RZ         0.0553
     24 H          37.2922   18.2219  -19.6209 H         1 0RZ         0.0537
     25 H          35.6970   18.2937  -17.7170 H         1 0RZ         0.0588
     26 H          34.5148   20.4010  -17.1539 H         1 0RZ         0.0539
     27 H          34.0493   24.3727  -19.3416 H         1 0RZ         0.1808
     28 H          34.9079   23.2567  -20.4087 H         1 0RZ         0.1808
@<TRIPOS>BOND
     1    1    2 ar 
     2    2    3 ar 
     3    2    4 1  
     4    4    5 1  
     5    5    6 1  
     6    6    7 2  
     7    6    8 am 
     8    8    9 1  
     9    9   10 ar 
    10    9   11 ar 
    11   10   14 ar 
    12   11   12 ar 
    13   12   13 ar 
    14   13   14 ar 
    15   14   15 1  
    16   15   16 2  
    17   15   17 am 
    18    4   18 1  
    19    4   19 1  
    20    5   20 1  
    21    5   21 1  
    22    8   22 1  
    23   10   23 1  
    24   11   24 1  
    25   12   25 1  
    26   13   26 1  
    27   17   27 1  
    28   17   28 1  
@<TRIPOS>SUBSTRUCTURE
     1 0RZ         1

