### 
### Created by X-TOOL on Mon Sep 10 21:13:10 2018
### 

@<TRIPOS>MOLECULE
4f1s_ligand
   56    59     1     0     0
SMALL
GAST_HUCK


@<TRIPOS>ATOM
      1 C31        27.6930   16.1280   18.7160 C.3       1 F1S         0.0790
      2 S30        27.3540   14.7220   17.6710 S.o2      1 F1S         0.0581
      3 O32        28.2990   14.7050   16.5080 O.2       1 F1S        -0.1499
      4 O33        25.9390   14.7830   17.1680 O.2       1 F1S        -0.1499
      5 N27        27.5430   13.3310   18.4980 N.am      1 F1S        -0.1876
      6 C26        27.1240   13.1940   19.7550 C.ar      1 F1S         0.0966
      7 C25        25.8770   13.6650   20.1580 C.ar      1 F1S        -0.0065
      8 C21        27.9450   12.5520   20.6730 C.ar      1 F1S         0.1216
      9 CL2        29.4910   11.9420   20.1960 Cl        1 F1S        -0.0632
     10 N22        27.5450   12.4010   21.9400 N.ar      1 F1S        -0.3121
     11 C23        26.3700   12.8480   22.3490 C.ar      1 F1S         0.0128
     12 C24        25.4910   13.5040   21.4880 C.ar      1 F1S         0.0697
     13 N28        24.3140   13.9310   21.9820 N.pl3     1 F1S        -0.2575
     14 C2         23.5980   14.9560   21.4850 C.ar      1 F1S         0.1462
     15 N1         24.1660   15.8090   20.6160 N.ar      1 F1S        -0.2805
     16 C6         23.5110   16.8260   20.0950 C.ar      1 F1S         0.0045
     17 C5         22.1860   17.0640   20.4350 C.ar      1 F1S        -0.0187
     18 C15        21.4660   18.2700   19.8120 C.3       1 F1S        -0.0017
     19 C16        19.9510   18.0300   19.6760 C.3       1 F1S        -0.0172
     20 C17        19.2680   19.2950   19.1450 C.3       1 F1S         0.0496
     21 O18        19.5570   20.3240   20.1050 O.3       1 F1S        -0.3794
     22 C19        20.9500   20.6770   20.0640 C.3       1 F1S         0.0496
     23 C20        21.7330   19.5150   20.6600 C.3       1 F1S        -0.0172
     24 C4         21.5500   16.2220   21.3390 C.ar      1 F1S        -0.0326
     25 C3         22.2610   15.1500   21.8730 C.ar      1 F1S         0.0669
     26 C7         21.6380   14.2890   22.7770 C.ar      1 F1S         0.1143
     27 N12        20.3660   14.4700   23.1610 N.ar      1 F1S        -0.2362
     28 N8         22.3330   13.2570   23.2760 N.ar      1 F1S        -0.2566
     29 C9         21.7770   12.4040   24.1420 C.ar      1 F1S         0.0930
     30 C13        22.6010   11.2410   24.6810 C.3       1 F1S         0.0047
     31 N10        20.5070   12.5830   24.5220 N.ar      1 F1S        -0.2329
     32 C11        19.8060   13.6180   24.0330 C.ar      1 F1S         0.1880
     33 N14        18.5500   13.7880   24.4180 N.pl3     1 F1S        -0.2993
     34 H          28.7162   16.0654   19.0865 H         1 F1S         0.0488
     35 H          27.5692   17.0452   18.1403 H         1 F1S         0.0488
     36 H          27.0000   16.1293   19.5573 H         1 F1S         0.0488
     37 H          27.9961   12.5408   18.0391 H         1 F1S         0.2176
     38 H          25.2127   14.1522   19.4443 H         1 F1S         0.0492
     39 H          26.0800   12.6995   23.3892 H         1 F1S         0.0587
     40 H          23.9369   13.4412   22.7933 H         1 F1S         0.2147
     41 H          24.0142   17.4875   19.3898 H         1 F1S         0.0766
     42 H          21.8593   18.4165   18.8060 H         1 F1S         0.0455
     43 H          19.5373   17.7813   20.6533 H         1 F1S         0.0311
     44 H          19.7781   17.2091   18.9801 H         1 F1S         0.0311
     45 H          18.1940   19.1487   19.0297 H         1 F1S         0.0561
     46 H          19.6369   19.5603   18.1542 H         1 F1S         0.0561
     47 H          21.1294   21.5896   20.6325 H         1 F1S         0.0561
     48 H          21.2663   20.8639   19.0378 H         1 F1S         0.0561
     49 H          22.7986   19.7443   20.6619 H         1 F1S         0.0311
     50 H          21.4181   19.3409   21.6889 H         1 F1S         0.0311
     51 H          20.5130   16.3973   21.6252 H         1 F1S         0.0696
     52 H          22.9243   10.6115   23.8520 H         1 F1S         0.0484
     53 H          23.4738   11.6285   25.2065 H         1 F1S         0.0484
     54 H          21.9922   10.6540   25.3687 H         1 F1S         0.0484
     55 H          18.1264   13.1364   25.0786 H         1 F1S         0.1862
     56 H          18.0064   14.5705   24.0538 H         1 F1S         0.1862
@<TRIPOS>BOND
     1    1    2 1  
     2    2    3 2  
     3    2    4 2  
     4    2    5 am 
     5    5    6 1  
     6    6    7 ar 
     7    6    8 ar 
     8    7   12 ar 
     9    8    9 1  
    10    8   10 ar 
    11   10   11 ar 
    12   11   12 ar 
    13   12   13 1  
    14   13   14 1  
    15   14   15 ar 
    16   14   25 ar 
    17   15   16 ar 
    18   16   17 ar 
    19   17   18 1  
    20   17   24 ar 
    21   18   19 1  
    22   18   23 1  
    23   19   20 1  
    24   20   21 1  
    25   21   22 1  
    26   22   23 1  
    27   24   25 ar 
    28   25   26 1  
    29   26   27 ar 
    30   26   28 ar 
    31   27   32 ar 
    32   28   29 ar 
    33   29   30 1  
    34   29   31 ar 
    35   31   32 ar 
    36   32   33 1  
    37    1   34 1  
    38    1   35 1  
    39    1   36 1  
    40    5   37 1  
    41    7   38 1  
    42   11   39 1  
    43   13   40 1  
    44   16   41 1  
    45   18   42 1  
    46   19   43 1  
    47   19   44 1  
    48   20   45 1  
    49   20   46 1  
    50   22   47 1  
    51   22   48 1  
    52   23   49 1  
    53   23   50 1  
    54   24   51 1  
    55   30   52 1  
    56   30   53 1  
    57   30   54 1  
    58   33   55 1  
    59   33   56 1  
@<TRIPOS>SUBSTRUCTURE
     1 F1S         1

