### 
### Created by X-TOOL on Mon Sep 10 21:13:13 2018
### 

@<TRIPOS>MOLECULE
4f2w_ligand
   40    42     1     0     0
SMALL
GAST_HUCK


@<TRIPOS>ATOM
      1 C2          3.0000  -21.9940  -10.8670 C.ar      1 TDI         0.0439
      2 C4          3.7900  -20.5980  -12.6010 C.ar      1 TDI         0.0483
      3 C5          4.0860  -21.7080  -13.3130 C.ar      1 TDI         0.1304
      4 C6          3.8820  -22.9550  -12.8060 C.ar      1 TDI         0.1459
      5 CS5         9.9710  -18.9300   -9.6870 C.3       1 TDI        -0.0181
      6 S           8.3350  -19.3250   -9.1480 S.3       1 TDI        -0.1636
      7 C5'         7.4080  -19.0750  -10.6940 C.3       1 TDI         0.0036
      8 C4'         6.9680  -17.5910  -10.8690 C.3       1 TDI         0.0391
      9 C1'         6.3450  -17.3770  -12.2170 C.3       1 TDI        -0.0248
     10 N1'         4.8750  -17.3790  -11.9880 N.4       1 TDI         0.2442
     11 C10         3.9620  -18.0310  -12.9690 C.3       1 TDI        -0.0117
     12 C9          4.1520  -19.5210  -13.3100 C.2       1 TDI         0.0166
     13 C8          4.6350  -19.9420  -14.4590 C.2       1 TDI         0.0326
     14 N7          4.6020  -21.2760  -14.4440 N.pl3     1 TDI        -0.2768
     15 N6          4.1990  -24.0530  -13.5330 N.pl3     1 TDI        -0.3157
     16 N1          3.3530  -23.1310  -11.5900 N.ar      1 TDI        -0.2741
     17 N3          3.2180  -20.7410  -11.3970 N.ar      1 TDI        -0.3132
     18 C2'         4.5940  -17.7120  -10.5840 C.3       1 TDI        -0.0040
     19 C3'         5.8650  -17.1400   -9.9260 C.3       1 TDI         0.1032
     20 O3'         5.8470  -15.6990   -9.7680 O.3       1 TDI        -0.3860
     21 H1          2.5526  -22.0952   -9.8848 H         1 TDI         0.0956
     22 H2         10.6702  -19.0358   -8.8444 H         1 TDI         0.0340
     23 H3          9.9954  -17.8940  -10.0559 H         1 TDI         0.0340
     24 H4         10.2658  -19.6144  -10.4961 H         1 TDI         0.0340
     25 H5          6.5120  -19.7130  -10.6795 H         1 TDI         0.0382
     26 H6          8.0471  -19.3596  -11.5428 H         1 TDI         0.0382
     27 H7          7.8537  -16.9509  -10.7429 H         1 TDI         0.0388
     28 H8          6.6270  -18.1894  -12.9029 H         1 TDI         0.0818
     29 H9          6.6658  -16.4131  -12.6388 H         1 TDI         0.0818
     30 H10         4.6252  -16.4061  -12.0719 H         1 TDI         0.2042
     31 H11         4.0552  -17.4729  -13.9123 H         1 TDI         0.0901
     32 H12         2.9402  -17.9206  -12.5770 H         1 TDI         0.0901
     33 H13         4.9959  -19.3160  -15.2738 H         1 TDI         0.0886
     34 H14         4.9332  -21.8813  -15.2087 H         1 TDI         0.2266
     35 H15         4.0414  -24.9927  -13.1419 H         1 TDI         0.1805
     36 H16         4.5976  -23.9482  -14.4769 H         1 TDI         0.1805
     37 H17         4.5054  -18.7975  -10.4298 H         1 TDI         0.0840
     38 H18         3.6836  -17.2142  -10.2187 H         1 TDI         0.0840
     39 H19         6.0056  -17.5907   -8.9325 H         1 TDI         0.0652
     40 H20         5.1106  -15.4506   -9.2215 H         1 TDI         0.2100
@<TRIPOS>BOND
     1    1   16 ar 
     2   17    1 ar 
     3    2    3 ar 
     4   12    2 1  
     5    2   17 ar 
     6    3    4 ar 
     7    3   14 1  
     8    4   15 1  
     9    4   16 ar 
    10    6    5 1  
    11    7    6 1  
    12    8    7 1  
    13    9    8 1  
    14    8   19 1  
    15   10    9 1  
    16   11   10 1  
    17   10   18 1  
    18   11   12 1  
    19   12   13 2  
    20   13   14 1  
    21   18   19 1  
    22   19   20 1  
    23    1   21 1  
    24    5   22 1  
    25    5   23 1  
    26    5   24 1  
    27    7   25 1  
    28    7   26 1  
    29    8   27 1  
    30    9   28 1  
    31    9   29 1  
    32   10   30 1  
    33   11   31 1  
    34   11   32 1  
    35   13   33 1  
    36   14   34 1  
    37   15   35 1  
    38   15   36 1  
    39   18   37 1  
    40   18   38 1  
    41   19   39 1  
    42   20   40 1  
@<TRIPOS>SUBSTRUCTURE
     1 TDI         1

