### 
### Created by X-TOOL on Mon Sep 10 21:13:10 2018
### 

@<TRIPOS>MOLECULE
4f39_ligand
   29    29     1     0     0
SMALL
GAST_HUCK


@<TRIPOS>ATOM
      1 N           2.7220   23.7450   13.7900 N.4       1 KAI         0.2433
      2 CD          2.5790   22.4810   14.5790 C.3       1 KAI        -0.0169
      3 CD1         1.3770   20.9790   16.7820 C.2       1 KAI        -0.1288
      4 CD2         2.3790   22.3430   18.5290 C.3       1 KAI        -0.0295
      5 CA          3.0850   24.8210   14.8010 C.3       1 KAI         0.0373
      6 CB          2.4100   24.2500   16.0940 C.3       1 KAI         0.0449
      7 CB1         0.8840   24.4420   16.2600 C.3       1 KAI         0.0124
      8 CG          2.8590   22.7980   16.0220 C.3       1 KAI         0.0446
      9 CG1         0.3130   25.8270   16.5500 C.2       1 KAI         0.0356
     10 CG2         2.1640   22.0400   17.0960 C.2       1 KAI        -0.0678
     11 C           4.5990   25.0510   14.8960 C.2       1 KAI         0.0851
     12 O           5.3380   24.6940   14.0130 O.co2     1 KAI        -0.5642
     13 OD1        -0.9040   26.0590   16.5820 O.co2     1 KAI        -0.5690
     14 OD2         1.2240   26.6640   17.1590 O.co2     1 KAI        -0.5690
     15 OXT         4.9800   25.9430   15.8690 O.co2     1 KAI        -0.5642
     16 H1          1.8542   23.9727   13.3305 H         1 KAI         0.2032
     17 H2          3.4518   23.6490   13.1014 H         1 KAI         0.2032
     18 H3          3.2972   21.7312   14.2157 H         1 KAI         0.0845
     19 H4          1.5562   22.0898   14.4747 H         1 KAI         0.0845
     20 H5          0.8691   20.4256   17.5705 H         1 KAI         0.0075
     21 H6          1.2537   20.6815   15.7417 H         1 KAI         0.0075
     22 H7          1.7685   21.6644   19.1428 H         1 KAI         0.0425
     23 H8          2.0864   23.3838   18.7316 H         1 KAI         0.0425
     24 H9          3.4418   22.2059   18.7774 H         1 KAI         0.0425
     25 H10         2.6188   25.7791   14.5277 H         1 KAI         0.1031
     26 H11         2.8711   24.7294   16.9701 H         1 KAI         0.0424
     27 H12         0.5710   23.7903   17.0890 H         1 KAI         0.0438
     28 H13         0.4176   24.0963   15.3257 H         1 KAI         0.0438
     29 H14         3.9404   22.7062   16.2011 H         1 KAI         0.0554
@<TRIPOS>BOND
     1    2    1 1  
     2    5    1 1  
     3    8    2 1  
     4   10    3 2  
     5   10    4 1  
     6    6    5 1  
     7    5   11 1  
     8    6    7 1  
     9    8    6 1  
    10    7    9 1  
    11    8   10 1  
    12    9   13 ar 
    13    9   14 ar 
    14   11   12 ar 
    15   11   15 ar 
    16    1   16 1  
    17    1   17 1  
    18    2   18 1  
    19    2   19 1  
    20    3   20 1  
    21    3   21 1  
    22    4   22 1  
    23    4   23 1  
    24    4   24 1  
    25    5   25 1  
    26    6   26 1  
    27    7   27 1  
    28    7   28 1  
    29    8   29 1  
@<TRIPOS>SUBSTRUCTURE
     1 KAI         1

