### 
### Created by X-TOOL on Mon Sep 10 21:13:14 2018
### 

@<TRIPOS>MOLECULE
4f3c_ligand
   49    51     1     0     0
SMALL
GAST_HUCK


@<TRIPOS>ATOM
      1 C2        -34.3010   -6.1450    6.7960 C.ar      1 BIG         0.0439
      2 C5        -36.9270   -5.5140    6.2270 C.ar      1 BIG         0.1304
      3 C4        -36.1450   -4.7930    7.2170 C.ar      1 BIG         0.0483
      4 C8        -38.2390   -3.9550    7.1050 C.2       1 BIG         0.0326
      5 O3'       -33.9220    0.5060    8.7140 O.3       1 BIG        -0.3860
      6 C3'       -34.0160   -0.5930    7.8130 C.3       1 BIG         0.1032
      7 C4'       -35.0500   -0.2820    6.7570 C.3       1 BIG         0.0391
      8 C5'       -34.7770   -0.9710    5.4260 C.3       1 BIG         0.0039
      9 S5'       -33.4450   -0.3240    4.4570 S.3       1 BIG        -0.1602
     10 C20       -34.3670    0.8330    3.4680 C.3       1 BIG        -0.0063
     11 C21       -33.4760    1.5220    2.4380 C.3       1 BIG        -0.0442
     12 C22       -33.9780    2.9170    2.0230 C.3       1 BIG        -0.0552
     13 C23       -35.3260    2.8580    1.3780 C.3       1 BIG        -0.0653
     14 C1'       -36.3450   -0.8620    7.3340 C.3       1 BIG        -0.0248
     15 N1'       -35.9790   -1.5990    8.5510 N.4       1 BIG         0.2442
     16 C2'       -34.5310   -1.8750    8.4540 C.3       1 BIG        -0.0040
     17 C10       -36.8410   -2.7420    8.8810 C.3       1 BIG        -0.0117
     18 N7        -38.1540   -4.9610    6.2040 N.pl3     1 BIG        -0.2768
     19 C6        -36.2680   -6.6050    5.5260 C.ar      1 BIG         0.1459
     20 N6        -36.9570   -7.2870    4.5720 N.pl3     1 BIG        -0.3157
     21 N3        -34.8650   -5.1210    7.4960 N.ar      1 BIG        -0.3132
     22 C9        -37.0600   -3.7820    7.8000 C.2       1 BIG         0.0166
     23 N1        -34.9510   -6.8550    5.8340 N.ar      1 BIG        -0.2741
     24 H1        -33.2737   -6.4098    7.0186 H         1 BIG         0.0956
     25 H2        -39.1327   -3.3530    7.2628 H         1 BIG         0.0886
     26 H3        -33.2722    0.3136    9.3797 H         1 BIG         0.2100
     27 H4        -33.0294   -0.7687    7.3594 H         1 BIG         0.0652
     28 H5        -35.1272    0.8043    6.6021 H         1 BIG         0.0388
     29 H6        -35.6932   -0.9033    4.8211 H         1 BIG         0.0382
     30 H7        -34.5539   -2.0273    5.6366 H         1 BIG         0.0382
     31 H8        -34.8071    1.5957    4.1272 H         1 BIG         0.0376
     32 H9        -35.1698    0.2945    2.9431 H         1 BIG         0.0376
     33 H10       -33.4284    0.8884    1.5401 H         1 BIG         0.0273
     34 H11       -32.4682    1.6283    2.8657 H         1 BIG         0.0273
     35 H12       -33.2626    3.3547    1.3113 H         1 BIG         0.0263
     36 H13       -34.0402    3.5530    2.9183 H         1 BIG         0.0263
     37 H14       -35.6437    3.8735    1.0990 H         1 BIG         0.0230
     38 H15       -36.0517    2.4277    2.0838 H         1 BIG         0.0230
     39 H16       -35.2741    2.2295    0.4767 H         1 BIG         0.0230
     40 H17       -36.8118   -1.5421    6.6063 H         1 BIG         0.0818
     41 H18       -37.0460   -0.0507    7.5798 H         1 BIG         0.0818
     42 H19       -36.0962   -0.9595    9.3213 H         1 BIG         0.2042
     43 H20       -34.0855   -2.0341    9.4471 H         1 BIG         0.0840
     44 H21       -34.3311   -2.7500    7.8180 H         1 BIG         0.0840
     45 H22       -37.8272   -2.3426    9.1599 H         1 BIG         0.0901
     46 H23       -36.3945   -3.2537    9.7463 H         1 BIG         0.0901
     47 H24       -38.9215   -5.2618    5.5864 H         1 BIG         0.2266
     48 H25       -36.5056   -8.0623    4.0660 H         1 BIG         0.1805
     49 H26       -37.9302   -7.0282    4.3556 H         1 BIG         0.1805
@<TRIPOS>BOND
     1   21    1 ar 
     2    1   23 ar 
     3    3    2 ar 
     4   18    2 1  
     5    2   19 ar 
     6    3   21 ar 
     7   22    3 1  
     8    4   18 1  
     9   22    4 2  
    10    6    5 1  
    11    6    7 1  
    12   16    6 1  
    13    7    8 1  
    14   14    7 1  
    15    8    9 1  
    16    9   10 1  
    17   10   11 1  
    18   11   12 1  
    19   12   13 1  
    20   15   14 1  
    21   15   16 1  
    22   17   15 1  
    23   17   22 1  
    24   19   20 1  
    25   19   23 ar 
    26    1   24 1  
    27    4   25 1  
    28    5   26 1  
    29    6   27 1  
    30    7   28 1  
    31    8   29 1  
    32    8   30 1  
    33   10   31 1  
    34   10   32 1  
    35   11   33 1  
    36   11   34 1  
    37   12   35 1  
    38   12   36 1  
    39   13   37 1  
    40   13   38 1  
    41   13   39 1  
    42   14   40 1  
    43   14   41 1  
    44   15   42 1  
    45   16   43 1  
    46   16   44 1  
    47   17   45 1  
    48   17   46 1  
    49   18   47 1  
    50   20   48 1  
    51   20   49 1  
@<TRIPOS>SUBSTRUCTURE
     1 BIG         1

