### 
### Created by X-TOOL on Mon Sep 10 21:13:08 2018
### 

@<TRIPOS>MOLECULE
4f3i_ligand
   47    50     1     0     0
SMALL
GAST_HUCK


@<TRIPOS>ATOM
      1 CL1        30.0780   48.6070   -6.8350 Cl        1 0S6        -0.0647
      2 C15        29.0620   49.3100   -5.5850 C.ar      1 0S6         0.0470
      3 C16        29.2980   48.9730   -4.2560 C.ar      1 0S6        -0.0406
      4 C17        28.4950   49.5700   -3.2990 C.ar      1 0S6        -0.0437
      5 C13        28.0650   50.1620   -5.9820 C.ar      1 0S6        -0.0406
      6 C14        27.2380   50.7460   -4.9910 C.ar      1 0S6        -0.0437
      7 C12        27.4570   50.4280   -3.6580 C.ar      1 0S6         0.0078
      8 C8         26.5330   50.9910   -2.6140 C.2       1 0S6         0.0263
      9 C5         27.0840   51.0760   -1.2410 C.2       1 0S6         0.0320
     10 C4         28.3570   51.6390   -0.9240 C.2       1 0S6        -0.0580
     11 C7         29.2960   52.3370   -1.8280 C.3       1 0S6        -0.0507
     12 C2         28.6690   51.5130    0.4560 C.2       1 0S6         0.0043
     13 C6         29.9260   51.8780    1.2240 C.3       1 0S6        -0.0308
     14 S1         27.3520   50.7640    1.3280 S.3       1 0S6         0.0060
     15 C3         26.5040   50.5950   -0.1490 C.2       1 0S6         0.1844
     16 N9         25.1640   50.0220   -0.1550 N.pl3     1 0S6        -0.1470
     17 C11        24.6130   48.9560    0.6150 C.2       1 0S6         0.1468
     18 C28        25.3670   48.1070    1.5930 C.3       1 0S6         0.0171
     19 N27        23.2960   48.8830    0.3010 N.2       1 0S6        -0.2795
     20 N21        22.9960   49.8580   -0.6460 N.2       1 0S6        -0.2784
     21 C19        24.1120   50.5510   -0.8840 C.2       1 0S6         0.1631
     22 N10        25.2590   51.0700   -2.8930 N.2       1 0S6        -0.3432
     23 C20        24.3770   51.6530   -1.8660 C.3       1 0S6         0.1007
     24 C22        23.0760   52.0490   -2.4700 C.3       1 0S6         0.0747
     25 C23        23.3210   53.2020   -3.4120 C.2       1 0S6         0.2369
     26 O24        24.2910   53.9370   -3.4370 O.2       1 0S6        -0.3702
     27 O25        22.2190   53.4940   -4.2050 O.3       1 0S6        -0.2800
     28 C26        22.3100   54.6030   -5.1170 C.3       1 0S6         0.0658
     29 H1         30.0780   48.2722   -3.9812 H         1 0S6         0.0639
     30 H2         28.6772   49.3661   -2.2501 H         1 0S6         0.0681
     31 H3         27.9123   50.3844   -7.0319 H         1 0S6         0.0639
     32 H4         26.4457   51.4313   -5.2699 H         1 0S6         0.0681
     33 H5         28.8898   52.3361   -2.8503 H         1 0S6         0.0315
     34 H6         30.2668   51.8198   -1.8188 H         1 0S6         0.0315
     35 H7         29.4300   53.3744   -1.4876 H         1 0S6         0.0315
     36 H8         29.7910   51.6302    2.2872 H         1 0S6         0.0365
     37 H9         30.1190   52.9560    1.1205 H         1 0S6         0.0365
     38 H10        30.7791   51.3124    0.8211 H         1 0S6         0.0365
     39 H11        24.6857   47.3662    2.0369 H         1 0S6         0.0469
     40 H12        25.7834   48.7442    2.3870 H         1 0S6         0.0469
     41 H13        26.1852   47.5873    1.0730 H         1 0S6         0.0469
     42 H14        24.8556   52.5166   -1.3812 H         1 0S6         0.0655
     43 H15        22.3773   52.3577   -1.6785 H         1 0S6         0.0556
     44 H16        22.6499   51.2000   -3.0246 H         1 0S6         0.0556
     45 H17        21.3633   54.7031   -5.6682 H         1 0S6         0.0577
     46 H18        23.1311   54.4270   -5.8275 H         1 0S6         0.0577
     47 H19        22.5051   55.5268   -4.5527 H         1 0S6         0.0577
@<TRIPOS>BOND
     1    1    2 1  
     2    2    3 ar 
     3    2    5 ar 
     4    3    4 ar 
     5    4    7 ar 
     6    5    6 ar 
     7    6    7 ar 
     8    7    8 1  
     9    8    9 1  
    10    8   22 2  
    11    9   10 1  
    12    9   15 2  
    13   10   11 1  
    14   10   12 2  
    15   12   13 1  
    16   12   14 1  
    17   14   15 1  
    18   15   16 1  
    19   16   17 1  
    20   16   21 1  
    21   17   18 1  
    22   17   19 2  
    23   19   20 1  
    24   20   21 2  
    25   21   23 1  
    26   22   23 1  
    27   23   24 1  
    28   24   25 1  
    29   25   26 2  
    30   25   27 1  
    31   27   28 1  
    32    3   29 1  
    33    4   30 1  
    34    5   31 1  
    35    6   32 1  
    36   11   33 1  
    37   11   34 1  
    38   11   35 1  
    39   13   36 1  
    40   13   37 1  
    41   13   38 1  
    42   18   39 1  
    43   18   40 1  
    44   18   41 1  
    45   23   42 1  
    46   24   43 1  
    47   24   44 1  
    48   28   45 1  
    49   28   46 1  
    50   28   47 1  
@<TRIPOS>SUBSTRUCTURE
     1 0S6         1

