### 
### Created by X-TOOL on Mon Sep 10 21:13:09 2018
### 

@<TRIPOS>MOLECULE
4f49_ligand
   60    61     1     0     0
SMALL
GAST_HUCK


@<TRIPOS>ATOM
      1 C7         10.6750   -9.3240   16.4340 C.3       1 K36         0.1113
      2 O8         11.4370   -9.1760   17.6340 O.3       1 K36        -0.2506
      3 C9         12.0540   -7.8750   17.9060 C.2       1 K36         0.3239
      4 O10        11.9400   -6.9830   17.0730 O.2       1 K36        -0.3773
      5 C1         11.4980  -10.0130   15.3680 C.ar      1 K36        -0.0130
      6 C2         12.7700  -10.4810   15.6590 C.ar      1 K36        -0.0578
      7 C3         13.5200  -11.1140   14.6800 C.ar      1 K36        -0.0685
      8 C4         13.0040  -11.2610   13.4020 C.ar      1 K36        -0.0687
      9 C5         11.7320  -10.7860   13.1010 C.ar      1 K36        -0.0685
     10 C6         10.9830  -10.1650   14.0920 C.ar      1 K36        -0.0578
     11 N11        12.7660   -7.6280   19.0620 N.am      1 K36        -0.2411
     12 C12        13.5880   -6.3940   19.1540 C.3       1 K36         0.1329
     13 C17        14.6940   -6.4620   18.1380 C.2       1 K36         0.2019
     14 O18        15.2810   -7.5140   17.9250 O.2       1 K36        -0.3945
     15 C13        14.1330   -6.2280   20.5700 C.3       1 K36        -0.0101
     16 C14        13.1330   -5.4940   21.4750 C.3       1 K36        -0.0425
     17 C15        11.7110   -5.9970   21.2530 C.3       1 K36        -0.0625
     18 C16        13.5090   -5.6130   22.9530 C.3       1 K36        -0.0625
     19 N19        15.0130   -5.3500   17.3880 N.am      1 K36        -0.2797
     20 C20        16.1240   -5.4470   16.4100 C.3       1 K36         0.0674
     21 C21        17.2540   -4.5050   16.8460 C.3       1 K36         0.0673
     22 O22        18.2570   -4.3620   15.8120 O.3       1 K36        -0.3927
     23 C24        15.6220   -5.1480   14.9860 C.3       1 K36        -0.0079
     24 C25        14.5660   -6.1660   14.5560 C.3       1 K36         0.0526
     25 C26        15.2610   -7.4740   14.2110 C.3       1 K36        -0.0129
     26 C27        14.7310   -7.9070   12.8440 C.3       1 K36         0.0332
     27 N28        13.8810   -6.8130   12.3170 N.am      1 K36        -0.2866
     28 C29        13.8520   -5.8260   13.2770 C.2       1 K36         0.1792
     29 O30        13.2400   -4.7700   13.0920 O.2       1 K36        -0.3968
     30 H1         10.3721   -8.3304   16.0721 H         1 K36         0.0776
     31 H2          9.7790   -9.9260   16.6456 H         1 K36         0.0776
     32 H3         13.1791  -10.3517   16.6545 H         1 K36         0.0557
     33 H4         14.5082  -11.4933   14.9135 H         1 K36         0.0599
     34 H5         13.5941  -11.7481   12.6342 H         1 K36         0.0559
     35 H6         11.3286  -10.8995   12.1013 H         1 K36         0.0599
     36 H7          9.9890   -9.7970   13.8650 H         1 K36         0.0557
     37 H8         12.7291   -8.2708   19.8272 H         1 K36         0.1899
     38 H9         12.9532   -5.5258   18.9232 H         1 K36         0.0799
     39 H10        15.0679   -5.6500   20.5278 H         1 K36         0.0315
     40 H11        14.3356   -7.2226   20.9940 H         1 K36         0.0315
     41 H12        13.1610   -4.4280   21.2053 H         1 K36         0.0298
     42 H13        11.0218   -5.4520   21.9149 H         1 K36         0.0232
     43 H14        11.6630   -7.0724   21.4791 H         1 K36         0.0232
     44 H15        11.4222   -5.8294   20.2049 H         1 K36         0.0232
     45 H16        14.5359   -5.2475   23.1006 H         1 K36         0.0232
     46 H17        13.4466   -6.6664   23.2636 H         1 K36         0.0232
     47 H18        12.8150   -5.0107   23.5576 H         1 K36         0.0232
     48 H19        14.5058   -4.4956   17.5010 H         1 K36         0.1855
     49 H20        16.5117   -6.4764   16.4213 H         1 K36         0.0580
     50 H21        17.7293   -4.9123   17.7505 H         1 K36         0.0580
     51 H22        16.8280   -3.5158   17.0693 H         1 K36         0.0580
     52 H23        18.9396   -3.7743   16.1137 H         1 K36         0.2095
     53 H24        16.4709   -5.1927   14.2879 H         1 K36         0.0315
     54 H25        15.1813   -4.1404   14.9634 H         1 K36         0.0315
     55 H26        13.8411   -6.2984   15.3727 H         1 K36         0.0539
     56 H27        15.0277   -8.2380   14.9672 H         1 K36         0.0312
     57 H28        16.3497   -7.3240   14.1651 H         1 K36         0.0312
     58 H29        14.1353   -8.8259   12.9481 H         1 K36         0.0521
     59 H30        15.5714   -8.0905   12.1584 H         1 K36         0.0521
     60 H31        13.4164   -6.7950   11.4317 H         1 K36         0.1851
@<TRIPOS>BOND
     1    1    2 1  
     2    1    5 1  
     3    2    3 1  
     4    3    4 2  
     5    3   11 am 
     6    5    6 ar 
     7    5   10 ar 
     8    6    7 ar 
     9    7    8 ar 
    10    8    9 ar 
    11    9   10 ar 
    12   11   12 1  
    13   12   13 1  
    14   12   15 1  
    15   13   14 2  
    16   13   19 am 
    17   15   16 1  
    18   16   17 1  
    19   16   18 1  
    20   19   20 1  
    21   20   21 1  
    22   20   23 1  
    23   21   22 1  
    24   23   24 1  
    25   24   25 1  
    26   24   28 1  
    27   25   26 1  
    28   26   27 1  
    29   27   28 am 
    30   28   29 2  
    31    1   30 1  
    32    1   31 1  
    33    6   32 1  
    34    7   33 1  
    35    8   34 1  
    36    9   35 1  
    37   10   36 1  
    38   11   37 1  
    39   12   38 1  
    40   15   39 1  
    41   15   40 1  
    42   16   41 1  
    43   17   42 1  
    44   17   43 1  
    45   17   44 1  
    46   18   45 1  
    47   18   46 1  
    48   18   47 1  
    49   19   48 1  
    50   20   49 1  
    51   21   50 1  
    52   21   51 1  
    53   22   52 1  
    54   23   53 1  
    55   23   54 1  
    56   24   55 1  
    57   25   56 1  
    58   25   57 1  
    59   26   58 1  
    60   26   59 1  
    61   27   60 1  
@<TRIPOS>SUBSTRUCTURE
     1 K36         1

