### 
### Created by X-TOOL on Mon Sep 10 21:13:11 2018
### 

@<TRIPOS>MOLECULE
4f4p_ligand
   50    53     1     0     0
SMALL
GAST_HUCK


@<TRIPOS>ATOM
      1 C1         -0.1400    2.6730   12.3210 C.ar      1 0SB         0.0428
      2 C2          0.1300    1.5660   13.1000 C.ar      1 0SB        -0.0341
      3 C3         -1.1800    2.5980   11.3950 C.ar      1 0SB        -0.0424
      4 C4         -0.5810    0.3910   12.9650 C.ar      1 0SB        -0.0162
      5 C5         -1.9190    1.4310   11.2650 C.ar      1 0SB        -0.0709
      6 C6         -1.6340    0.3320   12.0580 C.ar      1 0SB        -0.0642
      7 C7         -0.2130   -0.6830   13.9070 C.ar      1 0SB         0.0353
      8 C11        -0.7800   -2.5740   15.2650 C.ar      1 0SB        -0.0524
      9 C12         0.4980   -2.5900   15.7980 C.ar      1 0SB        -0.0116
     10 N13         2.7330   -1.7120   15.9030 N.pl3     1 0SB        -0.2403
     11 C15         3.8770   -0.0780   14.4380 C.ar      1 0SB         0.0190
     12 C17         5.0510    0.6190   14.1700 C.ar      1 0SB         0.0591
     13 C18         6.1420   -0.4400   16.0050 C.ar      1 0SB         0.0266
     14 C19         6.1720    0.4530   14.9570 C.ar      1 0SB        -0.0186
     15 C27         0.7480    6.3520   12.8730 C.3       1 0SB        -0.0135
     16 F23         4.9890    2.8400   13.6140 F         1 0SB        -0.2116
     17 C20         5.1330    1.6190   13.0540 C.3       1 0SB         0.3864
     18 F21         6.3610    1.5480   12.4750 F         1 0SB        -0.2116
     19 F22         4.1690    1.4370   12.1040 F         1 0SB        -0.2116
     20 N16         4.9860   -1.1460   16.2790 N.ar      1 0SB        -0.2488
     21 C14         3.8530   -0.9710   15.5030 C.ar      1 0SB         0.1652
     22 C10         1.4220   -1.6360   15.3910 C.ar      1 0SB         0.1332
     23 N8          1.0590   -0.6860   14.4680 N.ar      1 0SB        -0.2769
     24 C9         -1.1470   -1.6190   14.3330 C.ar      1 0SB        -0.0402
     25 N24         0.6400    3.8480   12.5240 N.pl3     1 0SB        -0.2985
     26 C26         2.0780    3.7960   12.8500 C.3       1 0SB         0.0668
     27 C28         2.3930    4.8600   13.9110 C.3       1 0SB        -0.0135
     28 N29         2.1410    6.1800   13.3320 N.4       1 0SB         0.2298
     29 C25         0.2720    5.1860   11.9840 C.3       1 0SB         0.0668
     30 H1          0.9221    1.6211   13.8379 H         1 0SB         0.0532
     31 H2         -1.4121    3.4555   10.7738 H         1 0SB         0.0532
     32 H3         -2.7229    1.3792   10.5396 H         1 0SB         0.0589
     33 H4         -2.2288   -0.5702   11.9723 H         1 0SB         0.0530
     34 H5         -1.5016   -3.3184   15.5816 H         1 0SB         0.0699
     35 H6          0.7755   -3.3419   16.5279 H         1 0SB         0.0624
     36 H7          2.8858   -2.3927   16.6608 H         1 0SB         0.2168
     37 H8          2.9951    0.0730   13.8260 H         1 0SB         0.0864
     38 H9          7.0255   -0.5892   16.6152 H         1 0SB         0.0856
     39 H10         7.0713    1.0223   14.7516 H         1 0SB         0.0826
     40 H11         0.6792    7.2862   12.2964 H         1 0SB         0.0833
     41 H12         0.0916    6.4153   13.7534 H         1 0SB         0.0833
     42 H13        -2.1564   -1.6015   13.9381 H         1 0SB         0.0613
     43 H14         2.6684    3.9943   11.9433 H         1 0SB         0.0566
     44 H15         2.3309    2.7997   13.2416 H         1 0SB         0.0566
     45 H16         3.4479    4.7823   14.2130 H         1 0SB         0.0833
     46 H17         1.7481    4.7107   14.7895 H         1 0SB         0.0833
     47 H18         2.3380    6.8799   14.0301 H         1 0SB         0.2015
     48 H19         2.7569    6.3082   12.5445 H         1 0SB         0.2015
     49 H20         0.7257    5.2978   10.9882 H         1 0SB         0.0566
     50 H21        -0.8232    5.2381   11.8959 H         1 0SB         0.0566
@<TRIPOS>BOND
     1    1    2 ar 
     2    1    3 ar 
     3   25    1 1  
     4    2    4 ar 
     5    3    5 ar 
     6    4    6 ar 
     7    4    7 1  
     8    5    6 ar 
     9    7   23 ar 
    10    7   24 ar 
    11    8    9 ar 
    12   24    8 ar 
    13   22    9 ar 
    14   10   21 1  
    15   22   10 1  
    16   11   12 ar 
    17   21   11 ar 
    18   12   14 ar 
    19   12   17 1  
    20   13   14 ar 
    21   20   13 ar 
    22   15   28 1  
    23   29   15 1  
    24   17   16 1  
    25   17   18 1  
    26   17   19 1  
    27   21   20 ar 
    28   23   22 ar 
    29   25   26 1  
    30   25   29 1  
    31   26   27 1  
    32   27   28 1  
    33    2   30 1  
    34    3   31 1  
    35    5   32 1  
    36    6   33 1  
    37    8   34 1  
    38    9   35 1  
    39   10   36 1  
    40   11   37 1  
    41   13   38 1  
    42   14   39 1  
    43   15   40 1  
    44   15   41 1  
    45   24   42 1  
    46   26   43 1  
    47   26   44 1  
    48   27   45 1  
    49   27   46 1  
    50   28   47 1  
    51   28   48 1  
    52   29   49 1  
    53   29   50 1  
@<TRIPOS>SUBSTRUCTURE
     1 0SB         1

