### 
### Created by X-TOOL on Mon Sep 10 21:13:11 2018
### 

@<TRIPOS>MOLECULE
4f63_ligand
   39    41     1     0     0
SMALL
GAST_HUCK


@<TRIPOS>ATOM
      1 C1         88.9070    0.9140   12.3780 C.3       1 0S7        -0.0326
      2 C2         88.3890    0.2960   11.0920 C.2       1 0S7        -0.0152
      3 C3         87.4920    0.8560   10.1760 C.2       1 0S7        -0.0272
      4 C4         87.2970   -0.0450    9.1720 C.2       1 0S7         0.1738
      5 N5         86.4940    0.0330    8.0460 N.pl3     1 0S7        -0.2282
      6 C6         85.7380    1.1550    7.7280 C.ar      1 0S7         0.1460
      7 N7         85.7150    2.2140    8.5140 N.ar      1 0S7        -0.2348
      8 C8         84.9990    3.2790    8.1910 C.ar      1 0S7         0.1776
      9 N9         85.0020    4.3480    9.0690 N.pl3     1 0S7        -0.2885
     10 C10        84.5840    4.0610   10.4420 C.3       1 0S7         0.0418
     11 C11        84.9600    5.2100   11.3780 C.3       1 0S7         0.0078
     12 C12        85.4230    4.6210   12.6710 C.ar      1 0S7        -0.0131
     13 C13        86.2310    5.3370   13.5580 C.ar      1 0S7        -0.0404
     14 C14        86.6390    4.7000   14.7300 C.ar      1 0S7        -0.0405
     15 C15        86.2030    3.3870   14.9790 C.ar      1 0S7         0.0042
     16 N16        85.4230    2.7510   14.1050 N.ar      1 0S7        -0.3044
     17 C17        85.0230    3.3160   12.9800 C.ar      1 0S7         0.0126
     18 N18        84.2760    3.3340    7.0780 N.ar      1 0S7        -0.2689
     19 C19        84.2490    2.3180    6.2310 C.ar      1 0S7         0.0102
     20 C20        84.9880    1.1920    6.5400 C.ar      1 0S7         0.0708
     21 BR1        85.0300   -0.3140    5.3790 Br        1 0S7        -0.0544
     22 N22        88.0400   -1.1110    9.4540 N.pl3     1 0S7        -0.2107
     23 N24        88.7130   -0.8780   10.6430 N.2       1 0S7        -0.2524
     24 H          88.6299    0.2811   13.2211 H         1 0S7         0.0373
     25 H          89.9925    0.9991   12.3272 H         1 0S7         0.0373
     26 H          88.4693    1.9040   12.5059 H         1 0S7         0.0373
     27 H          87.0300    1.8403   10.2519 H         1 0S7         0.0179
     28 H          86.4557   -0.7716    7.4202 H         1 0S7         0.2231
     29 H          85.2802    5.2845    8.7757 H         1 0S7         0.1871
     30 H          85.0871    3.1549   10.7795 H         1 0S7         0.0549
     31 H          83.5015    3.9343   10.4597 H         1 0S7         0.0549
     32 H          84.0981    5.8558   11.5460 H         1 0S7         0.0462
     33 H          85.7522    5.8129   10.9342 H         1 0S7         0.0462
     34 H          86.5331    6.3615   13.3409 H         1 0S7         0.0678
     35 H          87.2860    5.2125   15.4419 H         1 0S7         0.0693
     36 H          86.5061    2.8834   15.8969 H         1 0S7         0.0767
     37 H          84.3812    2.7656   12.2921 H         1 0S7         0.0765
     38 H          83.6603    2.3678    5.3150 H         1 0S7         0.0877
     39 H          88.1040   -1.9583    8.8898 H         1 0S7         0.2466
@<TRIPOS>BOND
     1    1    2 1  
     2    2    3 1  
     3    2   23 2  
     4    3    4 2  
     5    4    5 1  
     6    4   22 1  
     7    5    6 1  
     8    6    7 ar 
     9    6   20 ar 
    10    7    8 ar 
    11    8    9 1  
    12    8   18 ar 
    13    9   10 1  
    14   10   11 1  
    15   11   12 1  
    16   12   13 ar 
    17   12   17 ar 
    18   13   14 ar 
    19   14   15 ar 
    20   15   16 ar 
    21   16   17 ar 
    22   18   19 ar 
    23   19   20 ar 
    24   20   21 1  
    25   22   23 1  
    26    1   24 1  
    27    1   25 1  
    28    1   26 1  
    29    3   27 1  
    30    5   28 1  
    31    9   29 1  
    32   10   30 1  
    33   10   31 1  
    34   11   32 1  
    35   11   33 1  
    36   13   34 1  
    37   14   35 1  
    38   15   36 1  
    39   17   37 1  
    40   19   38 1  
    41   22   39 1  
@<TRIPOS>SUBSTRUCTURE
     1 0S7         1

