### 
### Created by X-TOOL on Mon Sep 10 21:13:11 2018
### 

@<TRIPOS>MOLECULE
4f64_ligand
   46    48     1     0     0
SMALL
GAST_HUCK


@<TRIPOS>ATOM
      1 C1         90.5280    2.7210   15.8220 C.3       1 0S8         0.0364
      2 O2         89.4190    1.9150   15.3640 O.3       1 0S8        -0.3828
      3 C3         88.8240    2.5830   14.2340 C.3       1 0S8         0.0494
      4 C4         88.0610    1.5670   13.3700 C.3       1 0S8        -0.0161
      5 C5         89.0930    1.0000   12.3960 C.3       1 0S8         0.0099
      6 C6         88.4990    0.4590   11.1240 C.2       1 0S8         0.0591
      7 C7         87.5450    1.0550   10.2820 C.2       1 0S8        -0.0253
      8 C8         87.3430    0.2080    9.2400 C.2       1 0S8         0.0980
      9 N9         86.5070    0.2720    8.1460 N.pl3     1 0S8        -0.2568
     10 C10        85.6680    1.3410    7.9020 C.ar      1 0S8         0.1395
     11 N11        85.6120    2.4020    8.6950 N.ar      1 0S8        -0.2359
     12 C12        84.7930    3.4240    8.4150 C.ar      1 0S8         0.1792
     13 N13        84.7100    4.5440    9.2420 N.pl3     1 0S8        -0.2743
     14 C14        85.6690    4.8140   10.3160 C.3       1 0S8         0.1031
     15 C15        85.1610    4.1830   11.5820 C.2       1 0S8         0.1540
     16 C16        84.0730    3.3770   11.7630 C.2       1 0S8        -0.0307
     17 C17        84.0880    3.0500   13.1570 C.2       1 0S8         0.0082
     18 C18        83.1130    2.1980   13.9280 C.3       1 0S8        -0.0293
     19 N19        85.1310    3.6480   13.6470 N.2       1 0S8        -0.1736
     20 O20        85.7300    4.2850   12.7840 O.3       1 0S8        -0.1788
     21 N21        84.0250    3.4130    7.3420 N.ar      1 0S8        -0.2692
     22 C22        84.0380    2.3890    6.4950 C.ar      1 0S8         0.0097
     23 C23        84.8750    1.3070    6.7560 C.ar      1 0S8         0.0695
     24 BR1        84.9670   -0.1760    5.5540 Br        1 0S8        -0.0549
     25 N25        88.1260   -0.8340    9.4390 N.2       1 0S8        -0.2280
     26 N27        88.8480   -0.6760   10.6030 N.pl3     1 0S8        -0.2333
     27 H          91.2563    2.8252   15.0177 H         1 0S8         0.0523
     28 H          90.1635    3.7060   16.1138 H         1 0S8         0.0523
     29 H          90.9975    2.2375   16.6787 H         1 0S8         0.0523
     30 H          89.6084    3.0469   13.6360 H         1 0S8         0.0561
     31 H          88.1308    3.3450   14.5903 H         1 0S8         0.0561
     32 H          87.2305    2.0362   12.8425 H         1 0S8         0.0313
     33 H          87.6141    0.7815   13.9793 H         1 0S8         0.0313
     34 H          89.5917    0.1713   12.8987 H         1 0S8         0.0473
     35 H          89.7607    1.8162   12.1202 H         1 0S8         0.0473
     36 H          87.0579    2.0178   10.4364 H         1 0S8         0.0219
     37 H          86.5082   -0.5061    7.4864 H         1 0S8         0.2137
     38 H          83.9474    5.2047    9.0923 H         1 0S8         0.1902
     39 H          85.7775    5.8896   10.4550 H         1 0S8         0.0749
     40 H          86.6424    4.3969   10.0580 H         1 0S8         0.0749
     41 H          83.3523    3.0540   11.0118 H         1 0S8         0.0259
     42 H          83.6416    1.3544   14.3718 H         1 0S8         0.0374
     43 H          82.6538    2.7957   14.7154 H         1 0S8         0.0374
     44 H          82.3409    1.8299   13.2524 H         1 0S8         0.0374
     45 H          83.4029    2.3959    5.6091 H         1 0S8         0.0876
     46 H          89.5307   -1.3311   10.9840 H         1 0S8         0.2454
@<TRIPOS>BOND
     1    1    2 1  
     2    2    3 1  
     3    3    4 1  
     4    4    5 1  
     5    5    6 1  
     6    6    7 2  
     7    6   26 1  
     8    7    8 1  
     9    8    9 1  
    10    8   25 2  
    11    9   10 1  
    12   10   11 ar 
    13   10   23 ar 
    14   11   12 ar 
    15   12   13 1  
    16   12   21 ar 
    17   13   14 1  
    18   14   15 1  
    19   15   16 2  
    20   15   20 1  
    21   16   17 1  
    22   17   18 1  
    23   17   19 2  
    24   19   20 1  
    25   21   22 ar 
    26   22   23 ar 
    27   23   24 1  
    28   25   26 1  
    29    1   27 1  
    30    1   28 1  
    31    1   29 1  
    32    3   30 1  
    33    3   31 1  
    34    4   32 1  
    35    4   33 1  
    36    5   34 1  
    37    5   35 1  
    38    7   36 1  
    39    9   37 1  
    40   13   38 1  
    41   14   39 1  
    42   14   40 1  
    43   16   41 1  
    44   18   42 1  
    45   18   43 1  
    46   18   44 1  
    47   22   45 1  
    48   26   46 1  
@<TRIPOS>SUBSTRUCTURE
     1 0S8         1

