### 
### Created by X-TOOL on Mon Sep 10 21:13:10 2018
### 

@<TRIPOS>MOLECULE
4f65_ligand
   49    52     1     0     0
SMALL
GAST_HUCK


@<TRIPOS>ATOM
      1 C26        11.2720   -3.6250   -9.9110 C.ar      1 0S9        -0.0687
      2 C25        12.2920   -3.0990   -9.1420 C.ar      1 0S9        -0.0686
      3 C27        11.4960   -3.9650  -11.2320 C.ar      1 0S9        -0.0686
      4 C24        13.5430   -2.9170   -9.7000 C.ar      1 0S9        -0.0602
      5 C28        12.7520   -3.7800  -11.7820 C.ar      1 0S9        -0.0602
      6 C3         19.5660   -4.3290   -9.9030 C.2       1 0S9        -0.0307
      7 C17        17.6610   -1.9580  -13.1690 C.2       1 0S9        -0.0268
      8 C11        22.6390   -3.3840  -14.4490 C.ar      1 0S9         0.0102
      9 C23        13.7760   -3.2460  -11.0210 C.ar      1 0S9        -0.0413
     10 C12        21.8120   -2.3270  -14.7390 C.ar      1 0S9         0.0708
     11 C2         18.6630   -4.0630   -8.8470 C.2       1 0S9         0.0082
     12 C18        16.4100   -1.3960  -13.0620 C.2       1 0S9        -0.0102
     13 C4         18.8230   -5.0240  -10.8300 C.2       1 0S9         0.1540
     14 C16        18.3730   -1.1110  -14.0550 C.2       1 0S9         0.1738
     15 C13        20.5310   -2.3500  -14.1890 C.ar      1 0S9         0.1460
     16 C9         20.9550   -4.4070  -13.2540 C.ar      1 0S9         0.1797
     17 C1         18.9410   -3.3420   -7.5910 C.3       1 0S9        -0.0293
     18 C22        15.1350   -3.0420  -11.6110 C.3       1 0S9        -0.0105
     19 C21        15.1780   -1.7050  -12.3060 C.3       1 0S9        -0.0109
     20 C7         19.1480   -5.6040  -12.1550 C.3       1 0S9         0.1031
     21 N10        22.2220   -4.4230  -13.7080 N.ar      1 0S9        -0.2687
     22 N6         17.4430   -4.5540   -9.1080 N.2       1 0S9        -0.1736
     23 N14        20.0970   -3.3930  -13.4640 N.ar      1 0S9        -0.2347
     24 N20        17.6080   -0.0820  -14.4460 N.pl3     1 0S9        -0.2106
     25 N19        16.4280   -0.3020  -13.8640 N.2       1 0S9        -0.2520
     26 N15        19.6790   -1.2610  -14.4190 N.pl3     1 0S9        -0.2282
     27 N8         20.5690   -5.5360  -12.5060 N.pl3     1 0S9        -0.2742
     28 O5         17.5560   -5.1680  -10.3520 O.3       1 0S9        -0.1788
     29 BR1        22.4870   -0.9310  -15.8330 Br        1 0S9        -0.0544
     30 H          10.2847   -3.7728   -9.4735 H         1 0S9         0.0559
     31 H          12.1111   -2.8292   -8.1015 H         1 0S9         0.0599
     32 H          10.6879   -4.3764  -11.8368 H         1 0S9         0.0599
     33 H          14.3521   -2.5107   -9.0930 H         1 0S9         0.0557
     34 H          12.9354   -4.0565  -12.8203 H         1 0S9         0.0557
     35 H          20.6167   -4.0464   -9.9681 H         1 0S9         0.0259
     36 H          18.0261   -2.8602  -12.6782 H         1 0S9         0.0179
     37 H          23.6602   -3.3794  -14.8301 H         1 0S9         0.0877
     38 H          18.2961   -2.4656   -7.5263 H         1 0S9         0.0374
     39 H          18.7468   -4.0009   -6.7447 H         1 0S9         0.0374
     40 H          19.9848   -3.0284   -7.5770 H         1 0S9         0.0374
     41 H          15.3447   -3.8346  -12.3293 H         1 0S9         0.0446
     42 H          15.8847   -3.0675  -10.8202 H         1 0S9         0.0446
     43 H          14.3697   -1.7180  -13.0371 H         1 0S9         0.0430
     44 H          15.1089   -0.9531  -11.5199 H         1 0S9         0.0430
     45 H          18.6035   -5.0265  -12.9020 H         1 0S9         0.0749
     46 H          18.8744   -6.6586  -12.1211 H         1 0S9         0.0749
     47 H          17.8696    0.6951  -15.0527 H         1 0S9         0.2466
     48 H          20.0900   -0.4769  -14.9256 H         1 0S9         0.2231
     49 H          21.2337   -6.2577  -12.2274 H         1 0S9         0.1902
@<TRIPOS>BOND
     1    2    1 ar 
     2    3    1 ar 
     3    4    2 ar 
     4    5    3 ar 
     5    9    4 ar 
     6    9    5 ar 
     7    6   11 1  
     8   13    6 2  
     9    7   12 1  
    10   14    7 2  
    11    8   10 ar 
    12   21    8 ar 
    13   18    9 1  
    14   15   10 ar 
    15   10   29 1  
    16   11   17 1  
    17   11   22 2  
    18   12   19 1  
    19   12   25 2  
    20   20   13 1  
    21   13   28 1  
    22   14   24 1  
    23   26   14 1  
    24   23   15 ar 
    25   15   26 1  
    26   16   21 ar 
    27   16   23 ar 
    28   27   16 1  
    29   19   18 1  
    30   20   27 1  
    31   22   28 1  
    32   24   25 1  
    33    1   30 1  
    34    2   31 1  
    35    3   32 1  
    36    4   33 1  
    37    5   34 1  
    38    6   35 1  
    39    7   36 1  
    40    8   37 1  
    41   17   38 1  
    42   17   39 1  
    43   17   40 1  
    44   18   41 1  
    45   18   42 1  
    46   19   43 1  
    47   19   44 1  
    48   20   45 1  
    49   20   46 1  
    50   24   47 1  
    51   26   48 1  
    52   27   49 1  
@<TRIPOS>SUBSTRUCTURE
     1 0S9         1

