### 
### Created by X-TOOL on Mon Sep 10 21:13:15 2018
### 

@<TRIPOS>MOLECULE
4f6s_ligand
   40    41     1     0     0
SMALL
GAST_HUCK


@<TRIPOS>ATOM
      1 O14        41.0150   57.9100   59.7370 O.2       1 0SQ        -0.3890
      2 C12        39.8840   58.3210   59.8420 C.2       1 0SQ         0.2907
      3 N13        39.3890   59.1780   58.8740 N.am      1 0SQ        -0.2809
      4 N11        39.0880   57.9820   60.9220 N.am      1 0SQ        -0.1850
      5 C1         39.4500   57.0770   61.9750 C.2       1 0SQ         0.2183
      6 C3         40.7030   56.5660   62.2830 C.2       1 0SQ        -0.0195
      7 C5         40.5240   55.6980   63.3390 C.2       1 0SQ        -0.0042
      8 C6         41.5830   54.8750   64.0760 C.3       1 0SQ        -0.0463
      9 C9         42.3490   55.7830   65.0440 C.3       1 0SQ        -0.0859
     10 C8         40.9310   53.7690   64.8990 C.3       1 0SQ        -0.0859
     11 C7         42.5480   54.2050   63.1020 C.3       1 0SQ        -0.0859
     12 N4         39.2120   55.7060   63.6390 N.2       1 0SQ        -0.1673
     13 N2         38.6030   56.5000   62.8670 N.pl3     1 0SQ        -0.1068
     14 C10        37.1370   56.6470   63.0100 C.ar      1 0SQ         0.1228
     15 C19        36.3480   56.6900   61.8560 C.ar      1 0SQ        -0.0265
     16 C18        34.9670   56.7930   61.9560 C.ar      1 0SQ        -0.0608
     17 C17        34.3570   56.8370   63.2010 C.ar      1 0SQ        -0.0493
     18 C20        32.8550   56.9610   63.2860 C.3       1 0SQ        -0.0327
     19 C15        35.1360   56.7830   64.3540 C.ar      1 0SQ        -0.0608
     20 C16        36.5200   56.6860   64.2640 C.ar      1 0SQ        -0.0265
     21 H1         38.4548   59.5274   58.9460 H         1 0SQ         0.1817
     22 H2         39.9657   59.4477   58.1028 H         1 0SQ         0.1817
     23 H3         38.1828   58.4040   60.9730 H         1 0SQ         0.2336
     24 H4         41.6432   56.8040   61.7877 H         1 0SQ         0.0220
     25 H5         43.1108   55.1932   65.5748 H         1 0SQ         0.0131
     26 H6         41.6480   56.2168   65.7723 H         1 0SQ         0.0131
     27 H7         42.8381   56.5907   64.4798 H         1 0SQ         0.0131
     28 H8         40.3711   53.0971   64.2319 H         1 0SQ         0.0131
     29 H9         40.2428   54.2147   65.6322 H         1 0SQ         0.0131
     30 H10        41.7088   53.1973   65.4264 H         1 0SQ         0.0131
     31 H11        43.0406   54.9729   62.4874 H         1 0SQ         0.0131
     32 H12        41.9914   53.5153   62.4504 H         1 0SQ         0.0131
     33 H13        43.3076   53.6439   63.6660 H         1 0SQ         0.0131
     34 H14        36.8165   56.6427   60.8796 H         1 0SQ         0.0595
     35 H15        34.3628   56.8392   61.0572 H         1 0SQ         0.0550
     36 H16        32.5479   56.9809   64.3421 H         1 0SQ         0.0385
     37 H17        32.3871   56.1012   62.7843 H         1 0SQ         0.0385
     38 H18        32.5354   57.8913   62.7937 H         1 0SQ         0.0385
     39 H19        34.6605   56.8168   65.3275 H         1 0SQ         0.0550
     40 H20        37.1203   56.6406   65.1655 H         1 0SQ         0.0595
@<TRIPOS>BOND
     1    1    2 2  
     2    2    3 am 
     3    2    4 am 
     4    4    5 1  
     5    5    6 2  
     6    5   13 1  
     7    6    7 1  
     8    7    8 1  
     9    7   12 2  
    10    8    9 1  
    11    8   10 1  
    12    8   11 1  
    13   12   13 1  
    14   13   14 1  
    15   14   15 ar 
    16   14   20 ar 
    17   15   16 ar 
    18   16   17 ar 
    19   17   18 1  
    20   17   19 ar 
    21   19   20 ar 
    22    3   21 1  
    23    3   22 1  
    24    4   23 1  
    25    6   24 1  
    26    9   25 1  
    27    9   26 1  
    28    9   27 1  
    29   10   28 1  
    30   10   29 1  
    31   10   30 1  
    32   11   31 1  
    33   11   32 1  
    34   11   33 1  
    35   15   34 1  
    36   16   35 1  
    37   18   36 1  
    38   18   37 1  
    39   18   38 1  
    40   19   39 1  
    41   20   40 1  
@<TRIPOS>SUBSTRUCTURE
     1 0SQ         1

