### 
### Created by X-TOOL on Mon Sep 10 21:13:13 2018
### 

@<TRIPOS>MOLECULE
4f6u_ligand
   63    65     1     0     0
SMALL
GAST_HUCK


@<TRIPOS>ATOM
      1 O28       -39.7370   23.0650  102.0390 O.2       1 0SR        -0.3888
      2 C17       -40.3880   22.0930  102.3520 C.2       1 0SR         0.2933
      3 N16       -40.3540   21.5850  103.6520 N.am      1 0SR        -0.1849
      4 C10       -39.4390   22.0210  104.6650 C.2       1 0SR         0.2183
      5 C11       -38.9610   23.2990  104.8760 C.2       1 0SR        -0.0195
      6 C9        -38.0130   23.1020  105.8830 C.2       1 0SR        -0.0042
      7 C12       -37.1640   24.1730  106.5550 C.3       1 0SR        -0.0463
      8 C15       -36.7830   25.2440  105.5450 C.3       1 0SR        -0.0859
      9 C14       -35.8900   23.5580  107.1540 C.3       1 0SR        -0.0859
     10 C13       -37.9850   24.7990  107.6780 C.3       1 0SR        -0.0859
     11 N8        -37.9480   21.8080  106.2070 N.2       1 0SR        -0.1673
     12 N7        -38.7750   21.1830  105.5120 N.pl3     1 0SR        -0.1068
     13 C4        -38.8960   19.7260  105.5640 C.ar      1 0SR         0.1228
     14 C2        -38.8810   19.0920  106.8040 C.ar      1 0SR        -0.0265
     15 C6        -38.8330   18.9590  104.3920 C.ar      1 0SR        -0.0265
     16 C5        -38.8650   17.5720  104.4700 C.ar      1 0SR        -0.0608
     17 C3        -38.8950   16.9450  105.7130 C.ar      1 0SR        -0.0493
     18 C29       -38.9330   15.4330  105.7980 C.3       1 0SR        -0.0327
     19 C1        -38.9000   17.7040  106.8790 C.ar      1 0SR        -0.0608
     20 N18       -41.2740   21.5120  101.4380 N.am      1 0SR        -0.2669
     21 C19       -41.2800   21.9390  100.0260 C.3       1 0SR         0.0367
     22 C20       -42.0710   23.2000   99.7630 C.3       1 0SR         0.0075
     23 C21       -42.4670   23.2020   98.2620 C.3       1 0SR        -0.0299
     24 N22       -42.3730   24.5330   97.6430 N.4       1 0SR         0.2385
     25 C27       -43.4490   25.4240   98.1120 C.3       1 0SR        -0.0078
     26 C26       -43.3530   26.7500   97.3490 C.3       1 0SR         0.0878
     27 O24       -43.4000   26.5520   95.9280 O.3       1 0SR        -0.3693
     28 C23       -42.3380   25.7380   95.4520 C.3       1 0SR         0.0878
     29 C25       -42.4030   24.3800   96.1630 C.3       1 0SR        -0.0078
     30 H1        -41.0110   20.8703  103.8919 H         1 0SR         0.2336
     31 H2        -39.2498   24.2258  104.3825 H         1 0SR         0.0220
     32 H3        -36.1705   26.0126  106.0391 H         1 0SR         0.0131
     33 H4        -37.6949   25.7067  105.1395 H         1 0SR         0.0131
     34 H5        -36.2080   24.7876  104.7258 H         1 0SR         0.0131
     35 H6        -36.1654   22.7832  107.8847 H         1 0SR         0.0131
     36 H7        -35.3045   24.3429  107.6551 H         1 0SR         0.0131
     37 H8        -35.2879   23.1074  106.3512 H         1 0SR         0.0131
     38 H9        -38.9004   25.2427  107.2595 H         1 0SR         0.0131
     39 H10       -37.3917   25.5815  108.1736 H         1 0SR         0.0131
     40 H11       -38.2550   24.0242  108.4106 H         1 0SR         0.0131
     41 H12       -38.8544   19.6823  107.7128 H         1 0SR         0.0595
     42 H13       -38.7595   19.4471  103.4269 H         1 0SR         0.0595
     43 H14       -38.8666   16.9781  103.5632 H         1 0SR         0.0550
     44 H15       -38.9530   15.1255  106.8540 H         1 0SR         0.0385
     45 H16       -38.0390   15.0158  105.3115 H         1 0SR         0.0385
     46 H17       -39.8346   15.0597  105.2903 H         1 0SR         0.0385
     47 H18       -38.9187   17.2133  107.8454 H         1 0SR         0.0550
     48 H19       -41.9080   20.8019  101.7443 H         1 0SR         0.1853
     49 H20       -41.7132   21.1280   99.4222 H         1 0SR         0.0519
     50 H21       -40.2397   22.1131   99.7139 H         1 0SR         0.0519
     51 H22       -41.4553   24.0830   99.9895 H         1 0SR         0.0336
     52 H23       -42.9752   23.2130  100.3893 H         1 0SR         0.0336
     53 H24       -43.5043   22.8469   98.1729 H         1 0SR         0.0815
     54 H25       -41.7971   22.5166   97.7221 H         1 0SR         0.0815
     55 H26       -41.4911   24.9453   97.9042 H         1 0SR         0.2035
     56 H27       -43.3343   25.6079   99.1904 H         1 0SR         0.0837
     57 H28       -44.4265   24.9568   97.9216 H         1 0SR         0.0837
     58 H29       -42.4042   27.2423   97.6087 H         1 0SR         0.0613
     59 H30       -44.1937   27.3938   97.6467 H         1 0SR         0.0613
     60 H31       -41.3745   26.2230   95.6676 H         1 0SR         0.0613
     61 H32       -42.4407   25.5928   94.3665 H         1 0SR         0.0613
     62 H33       -43.3350   23.8713   95.8758 H         1 0SR         0.0837
     63 H34       -41.5417   23.7718   95.8497 H         1 0SR         0.0837
@<TRIPOS>BOND
     1    1    2 2  
     2    2    3 am 
     3    2   20 am 
     4    3    4 1  
     5    4    5 2  
     6    4   12 1  
     7    5    6 1  
     8    6    7 1  
     9    6   11 2  
    10    7    8 1  
    11    7    9 1  
    12    7   10 1  
    13   11   12 1  
    14   12   13 1  
    15   13   14 ar 
    16   13   15 ar 
    17   14   19 ar 
    18   15   16 ar 
    19   16   17 ar 
    20   17   18 1  
    21   17   19 ar 
    22   20   21 1  
    23   21   22 1  
    24   22   23 1  
    25   23   24 1  
    26   24   25 1  
    27   24   29 1  
    28   25   26 1  
    29   26   27 1  
    30   27   28 1  
    31   28   29 1  
    32    3   30 1  
    33    5   31 1  
    34    8   32 1  
    35    8   33 1  
    36    8   34 1  
    37    9   35 1  
    38    9   36 1  
    39    9   37 1  
    40   10   38 1  
    41   10   39 1  
    42   10   40 1  
    43   14   41 1  
    44   15   42 1  
    45   16   43 1  
    46   18   44 1  
    47   18   45 1  
    48   18   46 1  
    49   19   47 1  
    50   20   48 1  
    51   21   49 1  
    52   21   50 1  
    53   22   51 1  
    54   22   52 1  
    55   23   53 1  
    56   23   54 1  
    57   24   55 1  
    58   25   56 1  
    59   25   57 1  
    60   26   58 1  
    61   26   59 1  
    62   28   60 1  
    63   28   61 1  
    64   29   62 1  
    65   29   63 1  
@<TRIPOS>SUBSTRUCTURE
     1 0SR         1

