### 
### Created by X-TOOL on Mon Sep 10 21:13:10 2018
### 

@<TRIPOS>MOLECULE
4f6v_ligand
   43    44     1     0     0
SMALL
GAST_HUCK


@<TRIPOS>ATOM
      1 OAA        23.1220   -4.9850    8.0820 O.co2     1 ZYM        -0.5463
      2 OAB        26.1080   -7.1770    4.8260 O.2       1 ZYM        -0.3936
      3 OAC        23.3830   -3.8290    6.2680 O.co2     1 ZYM        -0.5463
      4 OAD        24.8290   -5.2890    5.1000 O.2       1 ZYM        -0.3543
      5 CAE        25.0240   -6.9120    6.7480 C.3       1 ZYM         0.1198
      6 CAF        25.2010  -15.9270   12.2540 C.ar      1 ZYM        -0.0723
      7 CAG        26.5640  -15.9240   12.0510 C.ar      1 ZYM        -0.0697
      8 CAH        24.4010  -15.1820   11.4420 C.ar      1 ZYM        -0.0697
      9 CAI        28.4540  -10.6370   10.1600 C.ar      1 ZYM        -0.0762
     10 CAJ        28.9560  -10.2450    8.9470 C.ar      1 ZYM        -0.0707
     11 CAK        27.1230  -15.1670   11.0490 C.ar      1 ZYM        -0.0285
     12 CAL        24.9680  -14.4500   10.4270 C.ar      1 ZYM        -0.0285
     13 CAM        27.7230  -11.7920   10.2680 C.ar      1 ZYM        -0.0354
     14 CAN        28.0260  -12.1640    7.9190 C.ar      1 ZYM        -0.0276
     15 CAO        28.6020   -9.2970    6.0410 C.3       1 ZYM        -0.0231
     16 CAP        27.2360   -9.5820    5.4410 C.3       1 ZYM         0.0328
     17 CAQ        29.3290  -10.5420    6.5320 C.3       1 ZYM        -0.0197
     18 NAR        26.3430   -8.7730    6.2580 N.am      1 ZYM        -0.2848
     19 OAS        26.8050  -13.7150    9.1670 O.3       1 ZYM        -0.2597
     20 CAT        23.6380   -4.8070    6.9630 C.2       1 ZYM         0.1273
     21 CAU        25.8320   -7.6000    5.9180 C.2       1 ZYM         0.1948
     22 CAV        24.5320   -5.7340    6.3050 C.2       1 ZYM         0.1904
     23 CAW        28.7550  -11.0090    7.8330 C.ar      1 ZYM        -0.0509
     24 CAX        26.3220  -14.4220   10.2230 C.ar      1 ZYM         0.1159
     25 CAY        27.5150  -12.5660    9.1400 C.ar      1 ZYM         0.1094
     26 H          25.6355   -6.6667    7.6163 H         1 ZYM         0.0734
     27 H          24.1556   -7.5509    6.9086 H         1 ZYM         0.0734
     28 H          24.7667  -16.5210   13.0581 H         1 ZYM         0.0528
     29 H          27.2058  -16.5285   12.6919 H         1 ZYM         0.0590
     30 H          23.3220  -15.1666   11.5957 H         1 ZYM         0.0590
     31 H          28.6368  -10.0270   11.0446 H         1 ZYM         0.0573
     32 H          29.5205   -9.3157    8.8704 H         1 ZYM         0.0470
     33 H          28.2042  -15.1591   10.9112 H         1 ZYM         0.0552
     34 H          24.3212  -13.8746    9.7646 H         1 ZYM         0.0552
     35 H          27.3110  -12.0966   11.2301 H         1 ZYM         0.0496
     36 H          27.8485  -12.7657    7.0276 H         1 ZYM         0.0488
     37 H          28.4495   -8.6481    6.9034 H         1 ZYM         0.0307
     38 H          29.2145   -8.8504    5.2578 H         1 ZYM         0.0307
     39 H          26.9801  -10.6414    5.4584 H         1 ZYM         0.0521
     40 H          27.1802   -9.3328    4.3813 H         1 ZYM         0.0521
     41 H          30.3823  -10.3017    6.6768 H         1 ZYM         0.0425
     42 H          29.2140  -11.3332    5.7911 H         1 ZYM         0.0425
     43 H          26.0884   -9.1428    7.1739 H         1 ZYM         0.1852
@<TRIPOS>BOND
     1   20    1 ar 
     2   21    2 2  
     3   20    3 ar 
     4   22    4 2  
     5    5   21 1  
     6   22    5 1  
     7    7    6 ar 
     8    8    6 ar 
     9   11    7 ar 
    10   12    8 ar 
    11   10    9 ar 
    12    9   13 ar 
    13   23   10 ar 
    14   24   11 ar 
    15   24   12 ar 
    16   25   13 ar 
    17   23   14 ar 
    18   14   25 ar 
    19   16   15 1  
    20   15   17 1  
    21   18   16 1  
    22   17   23 1  
    23   21   18 am 
    24   19   24 1  
    25   25   19 1  
    26   20   22 1  
    27    5   26 1  
    28    5   27 1  
    29    6   28 1  
    30    7   29 1  
    31    8   30 1  
    32    9   31 1  
    33   10   32 1  
    34   11   33 1  
    35   12   34 1  
    36   13   35 1  
    37   14   36 1  
    38   15   37 1  
    39   15   38 1  
    40   16   39 1  
    41   16   40 1  
    42   17   41 1  
    43   17   42 1  
    44   18   43 1  
@<TRIPOS>SUBSTRUCTURE
     1 ZYM         1

