### 
### Created by X-TOOL on Mon Sep 10 21:13:14 2018
### 

@<TRIPOS>MOLECULE
4f6w_ligand
   97   101     1     0     0
SMALL
GAST_HUCK


@<TRIPOS>ATOM
      1 O31        40.6560   57.8560  145.5950 O.2       1 0SS        -0.3888
      2 C29        39.6520   58.5020  145.8070 C.2       1 0SS         0.2935
      3 N30        38.9210   58.3580  146.9570 N.am      1 0SS        -0.1849
      4 C32        39.2970   57.4400  147.9780 C.2       1 0SS         0.2183
      5 N35        38.4570   56.8500  148.8440 N.pl3     1 0SS        -0.1068
      6 C41        36.9940   56.9830  148.9460 C.ar      1 0SS         0.1228
      7 C46        36.2320   56.9800  147.7720 C.ar      1 0SS        -0.0265
      8 C45        34.8450   57.0530  147.8090 C.ar      1 0SS        -0.0608
      9 C44        34.1810   57.0890  149.0330 C.ar      1 0SS        -0.0493
     10 C47        32.6690   57.1500  149.0650 C.3       1 0SS        -0.0327
     11 C43        34.9300   57.0710  150.2090 C.ar      1 0SS        -0.0608
     12 C42        36.3300   56.9990  150.1690 C.ar      1 0SS        -0.0265
     13 N36        39.0810   56.0170  149.5700 N.2       1 0SS        -0.1673
     14 C34        40.3850   56.0060  149.2630 C.2       1 0SS        -0.0042
     15 C37        41.4640   55.1760  149.9510 C.3       1 0SS        -0.0463
     16 C40        42.4690   54.5230  148.9980 C.3       1 0SS        -0.0859
     17 C39        40.8530   54.0930  150.8220 C.3       1 0SS        -0.0859
     18 C38        42.2300   56.1270  150.8730 C.3       1 0SS        -0.0859
     19 C33        40.5580   56.9190  148.2530 C.2       1 0SS        -0.0195
     20 N28        39.2440   59.4470  144.9020 N.am      1 0SS        -0.2620
     21 C27        40.1640   60.0640  143.9270 C.3       1 0SS         0.0718
     22 C26        39.5130   60.2770  142.5700 C.3       1 0SS        -0.0113
     23 N24        38.6810   59.1450  142.1320 N.4       1 0SS         0.2395
     24 C23        37.9020   59.5470  140.9350 C.3       1 0SS        -0.0110
     25 C21        37.2360   58.4050  140.1500 C.3       1 0SS         0.0750
     26 C25        39.4970   57.9510  141.8270 C.3       1 0SS        -0.0110
     27 C22        38.5640   56.8350  141.3310 C.3       1 0SS         0.0750
     28 N19        38.1040   57.2170  139.9730 N.am      1 0SS        -0.2433
     29 C18        38.3810   56.6040  138.7450 C.2       1 0SS         0.2962
     30 O20        37.8940   57.0790  137.7510 O.2       1 0SS        -0.3887
     31 N17        39.2710   55.5210  138.6650 N.am      1 0SS        -0.1847
     32 C10        39.4560   54.9160  137.4030 C.2       1 0SS         0.2183
     33 C12        39.0290   53.6930  136.9410 C.2       1 0SS        -0.0195
     34 C11        39.2870   53.7270  135.5870 C.2       1 0SS        -0.0042
     35 C13        39.0540   52.6170  134.5730 C.3       1 0SS        -0.0463
     36 C16        40.4320   52.0020  134.3390 C.3       1 0SS        -0.0859
     37 C15        38.5480   53.2140  133.2440 C.3       1 0SS        -0.0859
     38 C14        38.1090   51.5190  135.0890 C.3       1 0SS        -0.0859
     39 N9         39.8170   54.9330  135.2830 N.2       1 0SS        -0.1673
     40 N8         39.9030   55.6140  136.3360 N.pl3     1 0SS        -0.1068
     41 C4         40.4340   56.9840  136.3860 C.ar      1 0SS         0.1228
     42 C2         41.4520   57.2400  137.3070 C.ar      1 0SS        -0.0265
     43 C6         39.9650   58.0220  135.5890 C.ar      1 0SS        -0.0265
     44 C5         40.5250   59.2870  135.7040 C.ar      1 0SS        -0.0608
     45 C3         41.5430   59.5360  136.6230 C.ar      1 0SS        -0.0493
     46 C7         42.1400   60.9080  136.7400 C.3       1 0SS        -0.0327
     47 C1         42.0070   58.5090  137.4250 C.ar      1 0SS        -0.0608
     48 H1         38.0994   58.9140  147.0827 H         1 0SS         0.2336
     49 H2         36.7346   56.9194  146.8135 H         1 0SS         0.0595
     50 H3         34.2793   57.0820  146.8848 H         1 0SS         0.0550
     51 H4         32.3250   57.1718  150.1096 H         1 0SS         0.0385
     52 H5         32.2555   56.2639  148.5612 H         1 0SS         0.0385
     53 H6         32.3276   58.0587  148.5476 H         1 0SS         0.0385
     54 H7         34.4236   57.1132  151.1665 H         1 0SS         0.0550
     55 H8         36.8960   56.9557  151.0925 H         1 0SS         0.0595
     56 H9         43.2052   53.9483  149.5791 H         1 0SS         0.0131
     57 H10        42.9863   55.3029  148.4200 H         1 0SS         0.0131
     58 H11        41.9375   53.8487  148.3104 H         1 0SS         0.0131
     59 H12        40.1272   54.5451  151.5140 H         1 0SS         0.0131
     60 H13        41.6466   53.5940  151.3975 H         1 0SS         0.0131
     61 H14        40.3423   53.3553  150.1856 H         1 0SS         0.0131
     62 H15        42.6882   56.9281  150.2745 H         1 0SS         0.0131
     63 H16        43.0165   55.5697  151.4030 H         1 0SS         0.0131
     64 H17        41.5360   56.5669  151.6043 H         1 0SS         0.0131
     65 H18        41.4947   57.1830  147.7644 H         1 0SS         0.0220
     66 H19        38.2848   59.7296  144.9024 H         1 0SS         0.1855
     67 H20        41.0372   59.4071  143.8006 H         1 0SS         0.0571
     68 H21        40.4918   61.0384  144.3183 H         1 0SS         0.0571
     69 H22        40.3063   60.4345  141.8245 H         1 0SS         0.0834
     70 H23        38.8786   61.1739  142.6255 H         1 0SS         0.0834
     71 H24        38.0409   58.9112  142.8747 H         1 0SS         0.2035
     72 H25        38.5839   60.0729  140.2506 H         1 0SS         0.0834
     73 H26        37.1100   60.2356  141.2644 H         1 0SS         0.0834
     74 H27        36.9586   58.7834  139.1551 H         1 0SS         0.0573
     75 H28        36.3294   58.0950  140.6903 H         1 0SS         0.0573
     76 H29        40.0223   57.6191  142.7347 H         1 0SS         0.0834
     77 H30        40.2324   58.1940  141.0459 H         1 0SS         0.0834
     78 H31        37.7017   56.7368  142.0069 H         1 0SS         0.0573
     79 H32        39.1081   55.8799  141.2895 H         1 0SS         0.0573
     80 H33        39.7569   55.1898  139.4738 H         1 0SS         0.2336
     81 H34        38.5866   52.8805  137.5154 H         1 0SS         0.0220
     82 H35        40.3488   51.1826  133.6098 H         1 0SS         0.0131
     83 H36        40.8243   51.6092  135.2886 H         1 0SS         0.0131
     84 H37        41.1155   52.7710  133.9499 H         1 0SS         0.0131
     85 H38        37.5548   53.6612  133.3976 H         1 0SS         0.0131
     86 H39        38.4789   52.4185  132.4874 H         1 0SS         0.0131
     87 H40        39.2493   53.9881  132.8992 H         1 0SS         0.0131
     88 H41        38.4980   51.1155  136.0355 H         1 0SS         0.0131
     89 H42        38.0446   50.7113  134.3451 H         1 0SS         0.0131
     90 H43        37.1085   51.9448  135.2556 H         1 0SS         0.0131
     91 H44        41.8147   56.4375  137.9391 H         1 0SS         0.0595
     92 H45        39.1645   57.8441  134.8800 H         1 0SS         0.0595
     93 H46        40.1663   60.0909  135.0714 H         1 0SS         0.0550
     94 H47        42.9220   60.9028  137.5136 H         1 0SS         0.0385
     95 H48        41.3550   61.6271  137.0170 H         1 0SS         0.0385
     96 H49        42.5806   61.1997  135.7752 H         1 0SS         0.0385
     97 H50        42.7992   58.6928  138.1417 H         1 0SS         0.0550
@<TRIPOS>BOND
     1    1    2 2  
     2    2    3 am 
     3    2   20 am 
     4    3    4 1  
     5    4    5 1  
     6    4   19 2  
     7    5    6 1  
     8    5   13 1  
     9    6    7 ar 
    10    6   12 ar 
    11    7    8 ar 
    12    8    9 ar 
    13    9   10 1  
    14    9   11 ar 
    15   11   12 ar 
    16   13   14 2  
    17   14   15 1  
    18   14   19 1  
    19   15   16 1  
    20   15   17 1  
    21   15   18 1  
    22   20   21 1  
    23   21   22 1  
    24   22   23 1  
    25   23   24 1  
    26   23   26 1  
    27   24   25 1  
    28   25   28 1  
    29   26   27 1  
    30   27   28 1  
    31   28   29 am 
    32   29   30 2  
    33   29   31 am 
    34   31   32 1  
    35   32   33 2  
    36   32   40 1  
    37   33   34 1  
    38   34   35 1  
    39   34   39 2  
    40   35   36 1  
    41   35   37 1  
    42   35   38 1  
    43   39   40 1  
    44   40   41 1  
    45   41   42 ar 
    46   41   43 ar 
    47   42   47 ar 
    48   43   44 ar 
    49   44   45 ar 
    50   45   46 1  
    51   45   47 ar 
    52    3   48 1  
    53    7   49 1  
    54    8   50 1  
    55   10   51 1  
    56   10   52 1  
    57   10   53 1  
    58   11   54 1  
    59   12   55 1  
    60   16   56 1  
    61   16   57 1  
    62   16   58 1  
    63   17   59 1  
    64   17   60 1  
    65   17   61 1  
    66   18   62 1  
    67   18   63 1  
    68   18   64 1  
    69   19   65 1  
    70   20   66 1  
    71   21   67 1  
    72   21   68 1  
    73   22   69 1  
    74   22   70 1  
    75   23   71 1  
    76   24   72 1  
    77   24   73 1  
    78   25   74 1  
    79   25   75 1  
    80   26   76 1  
    81   26   77 1  
    82   27   78 1  
    83   27   79 1  
    84   31   80 1  
    85   33   81 1  
    86   36   82 1  
    87   36   83 1  
    88   36   84 1  
    89   37   85 1  
    90   37   86 1  
    91   37   87 1  
    92   38   88 1  
    93   38   89 1  
    94   38   90 1  
    95   42   91 1  
    96   43   92 1  
    97   44   93 1  
    98   46   94 1  
    99   46   95 1  
   100   46   96 1  
   101   47   97 1  
@<TRIPOS>SUBSTRUCTURE
     1 0SS         1

