### 
### Created by X-TOOL on Mon Sep 10 21:13:10 2018
### 

@<TRIPOS>MOLECULE
4f6x_ligand
   47    48     1     0     0
SMALL
GAST_HUCK


@<TRIPOS>ATOM
      1 CAA       -23.3210   22.7610    7.7520 C.3       1 ZYL        -0.0653
      2 OAB       -25.0520    6.0660    7.1780 O.co2     1 ZYL        -0.5786
      3 OAC       -24.3330    9.3130    5.0440 O.2       1 ZYL        -0.4290
      4 OAD       -25.0550    6.9200    5.1390 O.co2     1 ZYL        -0.5786
      5 OAE       -23.0040    6.6910    8.6430 O.3       1 ZYL        -0.3266
      6 CAF       -26.0150   13.1780    6.0640 C.ar      1 ZYL        -0.0771
      7 CAG       -25.0530   12.2530    5.6860 C.ar      1 ZYL        -0.0686
      8 CAH       -25.6540   14.3030    6.7910 C.ar      1 ZYL        -0.0401
      9 CAI       -22.0500    8.8460    8.3030 C.2       1 ZYL        -0.0002
     10 CAJ       -21.9630   10.0220    7.5640 C.2       1 ZYL         0.0733
     11 CAK       -23.3650   13.5740    6.7660 C.ar      1 ZYL        -0.0294
     12 CAL       -23.7200   21.3360    8.1380 C.3       1 ZYL        -0.0559
     13 CAM       -22.6650   20.3320    7.6770 C.3       1 ZYL        -0.0532
     14 CAN       -23.3000   19.1700    6.9160 C.3       1 ZYL        -0.0506
     15 CAO       -23.3100   17.9010    7.7620 C.3       1 ZYL        -0.0251
     16 CAP       -23.9580   16.7470    7.0030 C.3       1 ZYL         0.0703
     17 CAQ       -22.6650   11.4360    5.6260 C.3       1 ZYL         0.1011
     18 OAR       -23.9710   15.6010    7.8560 O.3       1 ZYL        -0.3198
     19 CAS       -24.6860    6.9090    6.3340 C.2       1 ZYL         0.0335
     20 CAT       -23.7280   12.4490    6.0410 C.ar      1 ZYL        -0.0195
     21 CAU       -24.3280   14.5020    7.1420 C.ar      1 ZYL         0.0845
     22 CAV       -22.9270    7.8370    7.9140 C.2       1 ZYL         0.0903
     23 CAW       -23.7190    8.0040    6.7830 C.2       1 ZYL         0.0734
     24 CAX       -23.6310    9.1750    6.0410 C.2       1 ZYL         0.1983
     25 NAY       -22.7590   10.1940    6.4280 N.am      1 ZYL        -0.1976
     26 H1        -24.0949   23.4638    8.0941 H         1 ZYL         0.0230
     27 H2        -23.2203   22.8302    6.6588 H         1 ZYL         0.0230
     28 H3        -22.3609   23.0140    8.2255 H         1 ZYL         0.0230
     29 H4        -23.6430    6.1088    8.2491 H         1 ZYL         0.2557
     30 H5        -27.0522   13.0213    5.7905 H         1 ZYL         0.0572
     31 H6        -25.3375   11.3776    5.1134 H         1 ZYL         0.0465
     32 H7        -26.4075   15.0251    7.0840 H         1 ZYL         0.0486
     33 H8        -21.4300    8.7145    9.1886 H         1 ZYL         0.0374
     34 H9        -21.2748   10.8082    7.8708 H         1 ZYL         0.1275
     35 H10       -22.3278   13.7296    7.0399 H         1 ZYL         0.0479
     36 H11       -24.6822   21.0905    7.6648 H         1 ZYL         0.0263
     37 H12       -23.8228   21.2742    9.2314 H         1 ZYL         0.0263
     38 H13       -22.1367   19.9376    8.5575 H         1 ZYL         0.0265
     39 H14       -21.9480   20.8429    7.0176 H         1 ZYL         0.0265
     40 H15       -22.7244   18.9848    5.9971 H         1 ZYL         0.0266
     41 H16       -24.3348   19.4350    6.6534 H         1 ZYL         0.0266
     42 H17       -23.8771   18.0882    8.6858 H         1 ZYL         0.0291
     43 H18       -22.2749   17.6290    8.0159 H         1 ZYL         0.0291
     44 H19       -23.3787   16.5276    6.0940 H         1 ZYL         0.0614
     45 H20       -24.9879   17.0159    6.7255 H         1 ZYL         0.0614
     46 H21       -21.6699   11.8815    5.7717 H         1 ZYL         0.0806
     47 H22       -22.8033   11.1871    4.5635 H         1 ZYL         0.0806
@<TRIPOS>BOND
     1   12    1 1  
     2   19    2 ar 
     3   24    3 2  
     4   19    4 ar 
     5   22    5 1  
     6    7    6 ar 
     7    6    8 ar 
     8   20    7 ar 
     9   21    8 ar 
    10    9   10 2  
    11   22    9 1  
    12   10   25 1  
    13   20   11 ar 
    14   11   21 ar 
    15   13   12 1  
    16   14   13 1  
    17   15   14 1  
    18   16   15 1  
    19   18   16 1  
    20   17   20 1  
    21   25   17 1  
    22   21   18 1  
    23   23   19 1  
    24   23   22 2  
    25   23   24 1  
    26   24   25 am 
    27    1   26 1  
    28    1   27 1  
    29    1   28 1  
    30    5   29 1  
    31    6   30 1  
    32    7   31 1  
    33    8   32 1  
    34    9   33 1  
    35   10   34 1  
    36   11   35 1  
    37   12   36 1  
    38   12   37 1  
    39   13   38 1  
    40   13   39 1  
    41   14   40 1  
    42   14   41 1  
    43   15   42 1  
    44   15   43 1  
    45   16   44 1  
    46   16   45 1  
    47   17   46 1  
    48   17   47 1  
@<TRIPOS>SUBSTRUCTURE
     1 ZYL         1

