### 
### Created by X-TOOL on Mon Sep 10 21:13:15 2018
### 

@<TRIPOS>MOLECULE
4f70_ligand
   60    62     1     0     0
SMALL
GAST_HUCK


@<TRIPOS>ATOM
      1 O21        40.3670  -23.2770  102.2170 O.2       1 0ST        -0.3888
      2 C18        40.7510  -22.1470  102.3700 C.2       1 0ST         0.2935
      3 N17        40.4270  -21.4030  103.5100 N.am      1 0ST        -0.1849
      4 C11        39.5450  -21.8350  104.5590 C.2       1 0ST         0.2183
      5 C12        39.0660  -23.1090  104.8110 C.2       1 0ST        -0.0195
      6 C10        38.1870  -23.0130  105.8690 C.2       1 0ST        -0.0042
      7 C13        37.3620  -24.0890  106.5910 C.3       1 0ST        -0.0463
      8 C16        35.9550  -23.4910  106.8900 C.3       1 0ST        -0.0859
      9 C15        38.0900  -24.4400  107.9120 C.3       1 0ST        -0.0859
     10 C14        37.2010  -25.3550  105.7120 C.3       1 0ST        -0.0859
     11 N9         38.1650  -21.7210  106.2200 N.2       1 0ST        -0.1673
     12 N8         38.9340  -21.0510  105.4850 N.pl3     1 0ST        -0.1068
     13 C4         39.0020  -19.5940  105.6970 C.ar      1 0ST         0.1228
     14 C2         39.0950  -19.0160  106.9670 C.ar      1 0ST        -0.0265
     15 C6         38.8820  -18.7790  104.5740 C.ar      1 0ST        -0.0265
     16 C5         38.9070  -17.4010  104.6940 C.ar      1 0ST        -0.0608
     17 C3         39.0190  -16.8240  105.9480 C.ar      1 0ST        -0.0493
     18 C7         39.0380  -15.3240  106.0410 C.3       1 0ST        -0.0327
     19 C1         39.1130  -17.6300  107.0920 C.ar      1 0ST        -0.0608
     20 N19        41.5670  -21.6090  101.3850 N.am      1 0ST        -0.2620
     21 C20        42.0220  -22.2980  100.1570 C.3       1 0ST         0.0718
     22 C22        41.7900  -21.4670   98.8910 C.3       1 0ST        -0.0113
     23 N23        40.6950  -21.9870   98.0350 N.4       1 0ST         0.2399
     24 C28        39.3380  -21.8570   98.6110 C.3       1 0ST        -0.0078
     25 C27        38.2920  -22.3660   97.6030 C.3       1 0ST         0.0878
     26 O25        38.3700  -21.6380   96.3710 O.3       1 0ST        -0.3693
     27 C24        39.6350  -21.7540   95.7320 C.3       1 0ST         0.0878
     28 C26        40.7740  -21.3630   96.6950 C.3       1 0ST        -0.0078
     29 H1         40.8426  -20.4981  103.6021 H         1 0ST         0.2336
     30 H2         39.3335  -24.0177  104.2738 H         1 0ST         0.0220
     31 H3         35.3402  -24.2416  107.4084 H         1 0ST         0.0131
     32 H4         35.4685  -23.2079  105.9449 H         1 0ST         0.0131
     33 H5         36.0627  -22.6013  107.5279 H         1 0ST         0.0131
     34 H6         39.0806  -24.8605  107.6842 H         1 0ST         0.0131
     35 H7         37.4979  -25.1789  108.4718 H         1 0ST         0.0131
     36 H8         38.2087  -23.5299  108.5183 H         1 0ST         0.0131
     37 H9         36.6829  -25.0898  104.7786 H         1 0ST         0.0131
     38 H10        36.6122  -26.1074  106.2571 H         1 0ST         0.0131
     39 H11        38.1936  -25.7664  105.4762 H         1 0ST         0.0131
     40 H12        39.1527  -19.6438  107.8488 H         1 0ST         0.0595
     41 H13        38.7677  -19.2296  103.5947 H         1 0ST         0.0595
     42 H14        38.8393  -16.7760  103.8109 H         1 0ST         0.0550
     43 H15        39.1308  -15.0232  107.0950 H         1 0ST         0.0385
     44 H16        38.1037  -14.9189  105.6250 H         1 0ST         0.0385
     45 H17        39.8934  -14.9321  105.4712 H         1 0ST         0.0385
     46 H18        39.1995  -17.1742  108.0717 H         1 0ST         0.0550
     47 H19        41.8766  -20.6674  101.5174 H         1 0ST         0.1855
     48 H20        41.4721  -23.2458  100.0612 H         1 0ST         0.0571
     49 H21        43.0982  -22.5061  100.2487 H         1 0ST         0.0571
     50 H22        42.7194  -21.4616   98.3026 H         1 0ST         0.0834
     51 H23        41.5396  -20.4386   99.1904 H         1 0ST         0.0834
     52 H24        40.8613  -22.9744   97.9188 H         1 0ST         0.2036
     53 H25        39.1389  -20.8000   98.8413 H         1 0ST         0.0837
     54 H26        39.2748  -22.4516   99.5342 H         1 0ST         0.0837
     55 H27        37.2872  -22.2398   98.0325 H         1 0ST         0.0613
     56 H28        38.4741  -23.4322   97.4030 H         1 0ST         0.0613
     57 H29        39.6589  -21.0885   94.8565 H         1 0ST         0.0613
     58 H30        39.7800  -22.7945   95.4059 H         1 0ST         0.0613
     59 H31        41.7281  -21.6597   96.2350 H         1 0ST         0.0837
     60 H32        40.7531  -20.2708   96.8242 H         1 0ST         0.0837
@<TRIPOS>BOND
     1    1    2 2  
     2    2    3 am 
     3    2   20 am 
     4    3    4 1  
     5    4    5 2  
     6    4   12 1  
     7    5    6 1  
     8    6    7 1  
     9    6   11 2  
    10    7    8 1  
    11    7    9 1  
    12    7   10 1  
    13   11   12 1  
    14   12   13 1  
    15   13   14 ar 
    16   13   15 ar 
    17   14   19 ar 
    18   15   16 ar 
    19   16   17 ar 
    20   17   18 1  
    21   17   19 ar 
    22   20   21 1  
    23   21   22 1  
    24   22   23 1  
    25   23   24 1  
    26   23   28 1  
    27   24   25 1  
    28   25   26 1  
    29   26   27 1  
    30   27   28 1  
    31    3   29 1  
    32    5   30 1  
    33    8   31 1  
    34    8   32 1  
    35    8   33 1  
    36    9   34 1  
    37    9   35 1  
    38    9   36 1  
    39   10   37 1  
    40   10   38 1  
    41   10   39 1  
    42   14   40 1  
    43   15   41 1  
    44   16   42 1  
    45   18   43 1  
    46   18   44 1  
    47   18   45 1  
    48   19   46 1  
    49   20   47 1  
    50   21   48 1  
    51   21   49 1  
    52   22   50 1  
    53   22   51 1  
    54   23   52 1  
    55   24   53 1  
    56   24   54 1  
    57   25   55 1  
    58   25   56 1  
    59   27   57 1  
    60   27   58 1  
    61   28   59 1  
    62   28   60 1  
@<TRIPOS>SUBSTRUCTURE
     1 0ST         1

