### 
### Created by X-TOOL on Mon Sep 10 21:13:15 2018
### 

@<TRIPOS>MOLECULE
4f7j_ligand
   47    48     1     0     0
SMALL
GAST_HUCK


@<TRIPOS>ATOM
      1 O23        -5.2160  -22.2110  150.6480 O.2       1 0SU        -0.3888
      2 C18        -4.0980  -22.5990  150.8990 C.2       1 0SU         0.2934
      3 N19        -3.4460  -23.4450  150.0240 N.am      1 0SU        -0.2649
      4 C20        -3.9650  -23.9470  148.7430 C.3       1 0SU         0.0550
      5 C21        -2.9340  -23.7590  147.6290 C.3       1 0SU         0.0641
      6 O22        -1.6930  -23.2380  148.1140 O.3       1 0SU        -0.3930
      7 N17        -3.4160  -22.2680  152.0620 N.am      1 0SU        -0.1849
      8 C10        -3.8570  -21.3780  153.0860 C.2       1 0SU         0.2183
      9 C11        -5.1320  -20.9000  153.3390 C.2       1 0SU        -0.0195
     10 C9         -5.0040  -20.0280  154.3940 C.2       1 0SU        -0.0042
     11 C12        -6.0880  -19.2050  155.0830 C.3       1 0SU        -0.0463
     12 C15        -6.8110  -18.3300  154.0480 C.3       1 0SU        -0.0859
     13 C14        -7.1150  -20.1170  155.7560 C.3       1 0SU        -0.0859
     14 C13        -5.4260  -18.2980  156.1270 C.3       1 0SU        -0.0859
     15 N8         -3.7080  -20.0080  154.7350 N.2       1 0SU        -0.1673
     16 N7         -3.0540  -20.7910  153.9960 N.pl3     1 0SU        -0.1068
     17 C4         -1.5930  -20.9110  154.1840 C.ar      1 0SU         0.1228
     18 C2         -1.0880  -21.0480  155.4760 C.ar      1 0SU        -0.0265
     19 C6         -0.7010  -20.8160  153.1070 C.ar      1 0SU        -0.0265
     20 C5          0.6670  -20.8900  153.3170 C.ar      1 0SU        -0.0608
     21 C3          1.1630  -21.0460  154.6130 C.ar      1 0SU        -0.0493
     22 C16         2.6540  -21.1380  154.8630 C.3       1 0SU        -0.0327
     23 C1          0.2790  -21.1190  155.6880 C.ar      1 0SU        -0.0608
     24 H1         -2.5296  -23.7463  150.2877 H         1 0SU         0.1854
     25 H2         -4.8808  -23.3955  148.4838 H         1 0SU         0.0540
     26 H3         -4.1974  -25.0175  148.8425 H         1 0SU         0.0540
     27 H4         -3.3428  -23.0605  146.8840 H         1 0SU         0.0577
     28 H5         -2.7461  -24.7332  147.1540 H         1 0SU         0.0577
     29 H6         -1.0874  -23.1390  147.3888 H         1 0SU         0.2095
     30 H7         -2.5231  -22.6980  152.1958 H         1 0SU         0.2336
     31 H8         -6.0478  -21.1612  152.8107 H         1 0SU         0.0220
     32 H9         -7.5915  -17.7385  154.5491 H         1 0SU         0.0131
     33 H10        -7.2720  -18.9721  153.2830 H         1 0SU         0.0131
     34 H11        -6.0874  -17.6528  153.5708 H         1 0SU         0.0131
     35 H12        -6.6107  -20.7502  156.5007 H         1 0SU         0.0131
     36 H13        -7.5932  -20.7536  154.9970 H         1 0SU         0.0131
     37 H14        -7.8797  -19.5031  156.2543 H         1 0SU         0.0131
     38 H15        -4.6899  -17.6468  155.6329 H         1 0SU         0.0131
     39 H16        -4.9195  -18.9170  156.8821 H         1 0SU         0.0131
     40 H17        -6.1936  -17.6794  156.6149 H         1 0SU         0.0131
     41 H18        -1.7681  -21.0992  156.3186 H         1 0SU         0.0595
     42 H19        -1.0842  -20.6836  152.1017 H         1 0SU         0.0595
     43 H20         1.3500  -20.8270  152.4776 H         1 0SU         0.0550
     44 H21         2.8383  -21.2576  155.9408 H         1 0SU         0.0385
     45 H22         3.1429  -20.2191  154.5072 H         1 0SU         0.0385
     46 H23         3.0637  -22.0041  154.3227 H         1 0SU         0.0385
     47 H24         0.6632  -21.2319  156.6953 H         1 0SU         0.0550
@<TRIPOS>BOND
     1    1    2 2  
     2    2    3 am 
     3    2    7 am 
     4    3    4 1  
     5    4    5 1  
     6    5    6 1  
     7    7    8 1  
     8    8    9 2  
     9    8   16 1  
    10    9   10 1  
    11   10   11 1  
    12   10   15 2  
    13   11   12 1  
    14   11   13 1  
    15   11   14 1  
    16   15   16 1  
    17   16   17 1  
    18   17   18 ar 
    19   17   19 ar 
    20   18   23 ar 
    21   19   20 ar 
    22   20   21 ar 
    23   21   22 1  
    24   21   23 ar 
    25    3   24 1  
    26    4   25 1  
    27    4   26 1  
    28    5   27 1  
    29    5   28 1  
    30    6   29 1  
    31    7   30 1  
    32    9   31 1  
    33   12   32 1  
    34   12   33 1  
    35   12   34 1  
    36   13   35 1  
    37   13   36 1  
    38   13   37 1  
    39   14   38 1  
    40   14   39 1  
    41   14   40 1  
    42   18   41 1  
    43   19   42 1  
    44   20   43 1  
    45   22   44 1  
    46   22   45 1  
    47   22   46 1  
    48   23   47 1  
@<TRIPOS>SUBSTRUCTURE
     1 0SU         1

