### 
### Created by X-TOOL on Mon Sep 10 21:13:15 2018
### 

@<TRIPOS>MOLECULE
4f7l_ligand
   66    67     1     0     0
SMALL
GAST_HUCK


@<TRIPOS>ATOM
      1 O27        42.8730   60.0880  139.3480 O.2       1 0SO        -0.3775
      2 C25        41.7040   59.8630  139.0640 C.2       1 0SO         0.3200
      3 O26        41.3280   59.6060  137.7730 O.3       1 0SO        -0.2581
      4 C28        41.9550   58.6660  136.8970 C.3       1 0SO         0.0905
      5 C31        42.5540   59.4550  135.7390 C.3       1 0SO        -0.0320
      6 C30        40.8970   57.6930  136.3810 C.3       1 0SO        -0.0320
      7 C29        43.0460   57.8320  137.5780 C.3       1 0SO        -0.0320
      8 N24        40.7210   59.8840  140.0380 N.am      1 0SO        -0.2625
      9 C23        41.0040   60.1680  141.4510 C.3       1 0SO         0.0346
     10 C22        39.8630   59.8940  142.4470 C.3       1 0SO        -0.0127
     11 C21        40.5000   59.7630  143.8260 C.3       1 0SO         0.0337
     12 N19        39.6550   59.2540  144.9280 N.am      1 0SO        -0.2670
     13 C18        40.1510   58.3660  145.8590 C.2       1 0SO         0.2933
     14 O20        41.2840   57.9760  145.7390 O.2       1 0SO        -0.3888
     15 N17        39.3630   57.9530  146.9050 N.am      1 0SO        -0.1849
     16 C11        39.7020   57.0060  147.9290 C.2       1 0SO         0.2183
     17 C12        40.9680   56.5170  148.1890 C.2       1 0SO        -0.0195
     18 C10        40.8520   55.6130  149.2120 C.2       1 0SO        -0.0042
     19 C13        41.9910   54.8090  149.8250 C.3       1 0SO        -0.0463
     20 C16        42.3790   55.3590  151.1910 C.3       1 0SO        -0.0859
     21 C15        43.2270   54.7760  148.9050 C.3       1 0SO        -0.0859
     22 C14        41.5090   53.3830  150.0490 C.3       1 0SO        -0.0859
     23 N9         39.5470   55.5680  149.5530 N.2       1 0SO        -0.1673
     24 N8         38.8970   56.3870  148.8260 N.pl3     1 0SO        -0.1068
     25 C4         37.4420   56.5170  148.9530 C.ar      1 0SO         0.1228
     26 C2         36.8180   56.6090  150.1890 C.ar      1 0SO        -0.0265
     27 C6         36.6700   56.4920  147.7880 C.ar      1 0SO        -0.0265
     28 C5         35.2900   56.5830  147.8460 C.ar      1 0SO        -0.0608
     29 C3         34.6680   56.6780  149.0860 C.ar      1 0SO        -0.0493
     30 C7         33.1670   56.7750  149.1410 C.3       1 0SO        -0.0327
     31 C1         35.4310   56.6950  150.2590 C.ar      1 0SO        -0.0608
     32 H1         43.0475   58.7632  135.0404 H         1 0SO         0.0260
     33 H2         43.2919   60.1725  136.1270 H         1 0SO         0.0260
     34 H3         41.7550   59.9987  135.2136 H         1 0SO         0.0260
     35 H4         41.3679   56.9640  135.7051 H         1 0SO         0.0260
     36 H5         40.1210   58.2503  135.8359 H         1 0SO         0.0260
     37 H6         40.4402   57.1638  137.2303 H         1 0SO         0.0260
     38 H7         43.4827   57.1339  136.8487 H         1 0SO         0.0260
     39 H8         42.6069   57.2642  138.4115 H         1 0SO         0.0260
     40 H9         43.8314   58.4994  137.9625 H         1 0SO         0.0260
     41 H10        39.7764   59.6976  139.7678 H         1 0SO         0.1867
     42 H11        41.2698   61.2323  141.5315 H         1 0SO         0.0520
     43 H12        41.8644   59.5515  141.7503 H         1 0SO         0.0520
     44 H13        39.3438   58.9617  142.1802 H         1 0SO         0.0304
     45 H14        39.1459   60.7281  142.4394 H         1 0SO         0.0304
     46 H15        40.8563   60.7614  144.1195 H         1 0SO         0.0518
     47 H16        41.3579   59.0816  143.7282 H         1 0SO         0.0518
     48 H17        38.7056   59.5598  144.9993 H         1 0SO         0.1853
     49 H18        38.4501   58.3576  146.9595 H         1 0SO         0.2336
     50 H19        41.8868   56.7978  147.6763 H         1 0SO         0.0220
     51 H20        43.2018   54.7594  151.6074 H         1 0SO         0.0131
     52 H21        41.5117   55.3101  151.8658 H         1 0SO         0.0131
     53 H22        42.7038   56.4047  151.0865 H         1 0SO         0.0131
     54 H23        42.9406   54.3780  147.9203 H         1 0SO         0.0131
     55 H24        43.9988   54.1312  149.3507 H         1 0SO         0.0131
     56 H25        43.6238   55.7951  148.7872 H         1 0SO         0.0131
     57 H26        40.6260   53.3932  150.7050 H         1 0SO         0.0131
     58 H27        42.3098   52.7952  150.5213 H         1 0SO         0.0131
     59 H28        41.2426   52.9299  149.0827 H         1 0SO         0.0131
     60 H29        37.4094   56.6139  151.0974 H         1 0SO         0.0595
     61 H30        37.1592   56.4000  146.8250 H         1 0SO         0.0595
     62 H31        34.7013   56.5802  146.9358 H         1 0SO         0.0550
     63 H32        32.8422   56.8427  150.1898 H         1 0SO         0.0385
     64 H33        32.7245   55.8811  148.6771 H         1 0SO         0.0385
     65 H34        32.8373   57.6721  148.5965 H         1 0SO         0.0385
     66 H35        34.9412   56.7752  151.2227 H         1 0SO         0.0550
@<TRIPOS>BOND
     1    1    2 2  
     2    2    3 1  
     3    2    8 am 
     4    3    4 1  
     5    4    5 1  
     6    4    6 1  
     7    4    7 1  
     8    8    9 1  
     9    9   10 1  
    10   10   11 1  
    11   11   12 1  
    12   12   13 am 
    13   13   14 2  
    14   13   15 am 
    15   15   16 1  
    16   16   17 2  
    17   16   24 1  
    18   17   18 1  
    19   18   19 1  
    20   18   23 2  
    21   19   20 1  
    22   19   21 1  
    23   19   22 1  
    24   23   24 1  
    25   24   25 1  
    26   25   26 ar 
    27   25   27 ar 
    28   26   31 ar 
    29   27   28 ar 
    30   28   29 ar 
    31   29   30 1  
    32   29   31 ar 
    33    5   32 1  
    34    5   33 1  
    35    5   34 1  
    36    6   35 1  
    37    6   36 1  
    38    6   37 1  
    39    7   38 1  
    40    7   39 1  
    41    7   40 1  
    42    8   41 1  
    43    9   42 1  
    44    9   43 1  
    45   10   44 1  
    46   10   45 1  
    47   11   46 1  
    48   11   47 1  
    49   12   48 1  
    50   15   49 1  
    51   17   50 1  
    52   20   51 1  
    53   20   52 1  
    54   20   53 1  
    55   21   54 1  
    56   21   55 1  
    57   21   56 1  
    58   22   57 1  
    59   22   58 1  
    60   22   59 1  
    61   26   60 1  
    62   27   61 1  
    63   28   62 1  
    64   30   63 1  
    65   30   64 1  
    66   30   65 1  
    67   31   66 1  
@<TRIPOS>SUBSTRUCTURE
     1 0SO         1

