### 
### Created by X-TOOL on Mon Sep 10 21:13:14 2018
### 

@<TRIPOS>MOLECULE
4f7n_ligand
   56    57     1     0     0
SMALL
GAST_HUCK


@<TRIPOS>ATOM
      1 O20        -4.8150  -22.3490  153.9230 O.2       1 0SV        -0.3888
      2 C18        -3.7150  -22.7900  154.1390 C.2       1 0SV         0.2933
      3 N19        -3.0820  -23.5990  153.1940 N.am      1 0SV        -0.2671
      4 C21        -3.6460  -23.9680  151.8790 C.3       1 0SV         0.0319
      5 C22        -5.0570  -24.5550  151.8500 C.3       1 0SV        -0.0328
      6 C23        -5.2900  -25.1200  150.4380 C.3       1 0SV        -0.0492
      7 C24        -6.7820  -25.1610  150.0830 C.3       1 0SV        -0.0297
      8 C25        -6.9460  -25.1560  148.5650 C.3       1 0SV         0.0442
      9 O26        -8.1970  -25.7420  148.2460 O.3       1 0SV        -0.3950
     10 N17        -3.0670  -22.5610  155.3550 N.am      1 0SV        -0.1849
     11 C1         -3.5030  -21.7010  156.4100 C.2       1 0SV         0.2183
     12 N5         -2.6850  -21.0650  157.2770 N.pl3     1 0SV        -0.1068
     13 N4         -3.3230  -20.3000  158.0310 N.2       1 0SV        -0.1673
     14 C3         -4.6270  -20.3650  157.7310 C.2       1 0SV        -0.0042
     15 C12        -5.7470  -19.6000  158.4470 C.3       1 0SV        -0.0463
     16 C15        -6.5470  -20.6170  159.2890 C.3       1 0SV        -0.0859
     17 C14        -6.6760  -18.9640  157.3810 C.3       1 0SV        -0.0859
     18 C13        -5.1710  -18.5140  159.3940 C.3       1 0SV        -0.0859
     19 C2         -4.7880  -21.2620  156.6870 C.2       1 0SV        -0.0195
     20 C6         -1.2240  -21.1580  157.3810 C.ar      1 0SV         0.1228
     21 C11        -0.4470  -21.0520  156.2280 C.ar      1 0SV        -0.0265
     22 C9          0.9380  -21.1160  156.2970 C.ar      1 0SV        -0.0608
     23 C7          1.5550  -21.2590  157.5240 C.ar      1 0SV        -0.0493
     24 C16         3.0580  -21.3180  157.5690 C.3       1 0SV        -0.0327
     25 C8          0.7840  -21.3450  158.6870 C.ar      1 0SV        -0.0608
     26 C10        -0.6060  -21.2860  158.6180 C.ar      1 0SV        -0.0265
     27 H1         -2.1770  -23.9565  153.4247 H         1 0SV         0.1853
     28 H2         -2.9716  -24.7117  151.4294 H         1 0SV         0.0518
     29 H3         -3.6555  -23.0594  151.2590 H         1 0SV         0.0518
     30 H4         -5.7958  -23.7696  152.0675 H         1 0SV         0.0284
     31 H5         -5.1456  -25.3585  152.5960 H         1 0SV         0.0284
     32 H6         -4.8841  -26.1413  150.3911 H         1 0SV         0.0267
     33 H7         -4.7673  -24.4838  149.7086 H         1 0SV         0.0267
     34 H8         -7.2842  -24.2798  150.5086 H         1 0SV         0.0287
     35 H9         -7.2322  -26.0753  150.4971 H         1 0SV         0.0287
     36 H10        -6.1351  -25.7375  148.1022 H         1 0SV         0.0557
     37 H11        -6.9148  -24.1217  148.1917 H         1 0SV         0.0557
     38 H12        -8.2200  -26.6339  148.5723 H         1 0SV         0.2094
     39 H13        -2.2075  -23.0503  155.5030 H         1 0SV         0.2336
     40 H14        -7.3603  -20.0971  159.8165 H         1 0SV         0.0131
     41 H15        -5.8789  -21.0918  160.0226 H         1 0SV         0.0131
     42 H16        -6.9719  -21.3867  158.6279 H         1 0SV         0.0131
     43 H17        -6.1046  -18.2397  156.7819 H         1 0SV         0.0131
     44 H18        -7.5097  -18.4494  157.8812 H         1 0SV         0.0131
     45 H19        -7.0727  -19.7516  156.7235 H         1 0SV         0.0131
     46 H20        -4.5164  -18.9880  160.1402 H         1 0SV         0.0131
     47 H21        -5.9969  -17.9982  159.9057 H         1 0SV         0.0131
     48 H22        -4.5914  -17.7860  158.8075 H         1 0SV         0.0131
     49 H23        -5.7144  -21.5555  156.1956 H         1 0SV         0.0220
     50 H24        -0.9300  -20.9181  155.2668 H         1 0SV         0.0595
     51 H25         1.5320  -21.0540  155.3924 H         1 0SV         0.0550
     52 H26         3.3894  -21.4325  158.6116 H         1 0SV         0.0385
     53 H27         3.4741  -20.3891  157.1520 H         1 0SV         0.0385
     54 H28         3.4092  -22.1756  156.9764 H         1 0SV         0.0385
     55 H29         1.2711  -21.4583  159.6488 H         1 0SV         0.0550
     56 H30        -1.2006  -21.3396  159.5228 H         1 0SV         0.0595
@<TRIPOS>BOND
     1    1    2 2  
     2    2    3 am 
     3    2   10 am 
     4    3    4 1  
     5    4    5 1  
     6    5    6 1  
     7    6    7 1  
     8    7    8 1  
     9    8    9 1  
    10   10   11 1  
    11   11   12 1  
    12   11   19 2  
    13   12   13 1  
    14   12   20 1  
    15   13   14 2  
    16   14   15 1  
    17   14   19 1  
    18   15   16 1  
    19   15   17 1  
    20   15   18 1  
    21   20   21 ar 
    22   20   26 ar 
    23   21   22 ar 
    24   22   23 ar 
    25   23   24 1  
    26   23   25 ar 
    27   25   26 ar 
    28    3   27 1  
    29    4   28 1  
    30    4   29 1  
    31    5   30 1  
    32    5   31 1  
    33    6   32 1  
    34    6   33 1  
    35    7   34 1  
    36    7   35 1  
    37    8   36 1  
    38    8   37 1  
    39    9   38 1  
    40   10   39 1  
    41   16   40 1  
    42   16   41 1  
    43   16   42 1  
    44   17   43 1  
    45   17   44 1  
    46   17   45 1  
    47   18   46 1  
    48   18   47 1  
    49   18   48 1  
    50   19   49 1  
    51   21   50 1  
    52   22   51 1  
    53   24   52 1  
    54   24   53 1  
    55   24   54 1  
    56   25   55 1  
    57   26   56 1  
@<TRIPOS>SUBSTRUCTURE
     1 0SV         1

