### 
### Created by X-TOOL on Mon Sep 10 21:13:09 2018
### 

@<TRIPOS>MOLECULE
4f7v_ligand
   75    79     1     0     0
SMALL
GAST_HUCK


@<TRIPOS>ATOM
      1 C1          4.8650   18.0140   14.1490 C.3       1 J1D         0.1098
      2 O1          4.3070   16.6700   14.3720 O.3       1 J1D        -0.3375
      3 C2          6.3880   17.7970   14.0330 C.3       1 J1D         0.1139
      4 O2          7.0400   18.9450   14.4410 O.3       1 J1D        -0.3864
      5 C3          6.6070   16.5900   15.0380 C.3       1 J1D         0.1385
      6 O3          6.6230   16.8970   16.3840 O.3       1 J1D        -0.3836
      7 C4          5.3350   15.7290   14.7260 C.3       1 J1D         0.2009
      8 N1          5.5290   14.8920   13.5340 N.pl3     1 J1D        -0.1919
      9 C5          6.6840   14.6430   12.7270 C.2       1 J1D         0.1123
     10 N2          6.4130   13.8340   11.7010 N.2       1 J1D        -0.2958
     11 C6          5.0490   13.5690   11.8130 C.ar      1 J1D         0.1045
     12 C7          4.1980   12.8200   11.0380 C.ar      1 J1D         0.1298
     13 N3          4.6900   12.1930    9.9070 N.pl3     1 J1D        -0.3152
     14 N4          2.8720   12.7040   11.4030 N.ar      1 J1D        -0.2698
     15 C8          2.4390   13.3860   12.5120 C.ar      1 J1D         0.0533
     16 N5          3.1610   14.1300   13.3290 N.ar      1 J1D        -0.2714
     17 C9          4.4800   14.2100   12.9380 C.ar      1 J1D         0.1613
     18 C10         4.2910   18.7470   12.9340 C.3       1 J1D         0.0946
     19 S1          2.5290   18.9000   13.0100 S.o2      1 J1D        -0.0266
     20 C11         2.1330   19.8880   11.7090 C.3       1 J1D         0.0859
     21 N6          3.6600   21.7340   11.9890 N.am      1 J1D        -0.2837
     22 C12         2.2440   21.3750   12.0300 C.3       1 J1D         0.0503
     23 C13         4.2180   22.0940   10.7810 C.2       1 J1D         0.1986
     24 C14         5.6770   22.4600   10.8410 C.3       1 J1D         0.1202
     25 N7          5.9470   23.5050    9.8720 N.am      1 J1D        -0.2617
     26 C15         5.3090   24.7380    9.8610 C.2       1 J1D         0.2479
     27 O4          4.4360   25.0620   10.6610 O.2       1 J1D        -0.3676
     28 N8          7.2010   27.8920    5.5980 N.pl3     1 J1D        -0.1752
     29 C16         8.3690   27.4930    5.1340 C.cat     1 J1D         0.2197
     30 N9          8.9900   28.1250    4.0570 N.pl3     1 J1D        -0.3279
     31 N10         9.0800   26.4530    5.5860 N.am      1 J1D        -0.2425
     32 C17         8.6870   25.6620    6.6780 C.2       1 J1D         0.2540
     33 O5          9.4280   24.7580    6.9980 O.2       1 J1D        -0.3758
     34 N11         6.9550   25.3240    8.2750 N.2       1 J1D        -0.1598
     35 C18         5.7890   25.6290    8.7570 C.2       1 J1D         0.1800
     36 C19         4.9290   26.8010    8.3590 C.3       1 J1D         0.1561
     37 C20         4.8260   27.8030    9.5200 C.3       1 J1D        -0.0383
     38 C21         3.5970   26.2740    7.8390 C.3       1 J1D        -0.0383
     39 N12         5.5440   27.5280    7.2160 N.2       1 J1D        -0.1178
     40 C22         6.7180   27.1380    6.6820 C.2       1 J1D         0.3415
     41 C23         7.4170   26.0640    7.2250 C.3       1 J1D         0.3045
     42 O6          3.5550   22.1320    9.7510 O.2       1 J1D        -0.3948
     43 O7          2.0120   17.6140   12.7370 O.2       1 J1D        -0.1742
     44 O8          2.3170   19.6050   14.2370 O.2       1 J1D        -0.1742
     45 H1          4.6550   18.6337   15.0332 H         1 J1D         0.0640
     46 H2          6.6946   17.5324   13.0103 H         1 J1D         0.0647
     47 H3          7.9787   18.8164   14.3714 H         1 J1D         0.2100
     48 H4          7.5349   16.0537   14.7904 H         1 J1D         0.0676
     49 H5          7.3273   17.5099   16.5595 H         1 J1D         0.2101
     50 H6          5.0539   15.1157   15.5948 H         1 J1D         0.0996
     51 H7          7.6683   15.0641   12.9266 H         1 J1D         0.1349
     52 H8          4.0624   11.6283    9.3170 H         1 J1D         0.1820
     53 H9          5.6839   12.2910    9.6550 H         1 J1D         0.1820
     54 H10         1.3832   13.3045   12.7437 H         1 J1D         0.0996
     55 H11         4.5583   18.1880   12.0252 H         1 J1D         0.0526
     56 H12         4.7315   19.7539   12.8880 H         1 J1D         0.0526
     57 H13         1.0975   19.6715   11.4077 H         1 J1D         0.0520
     58 H14         2.8131   19.6583   10.8755 H         1 J1D         0.0520
     59 H15         4.2137   21.7188   12.8216 H         1 J1D         0.1852
     60 H16         1.8361   21.5734   13.0321 H         1 J1D         0.0536
     61 H17         1.6871   21.9618   11.2847 H         1 J1D         0.0536
     62 H18         6.2881   21.5755   10.6080 H         1 J1D         0.0764
     63 H19         5.9245   22.8212   11.8501 H         1 J1D         0.0764
     64 H20         6.6350   23.3263    9.1686 H         1 J1D         0.1883
     65 H21         6.6854   28.6896    5.1995 H         1 J1D         0.2685
     66 H22         9.9028   27.7883    3.7189 H         1 J1D         0.1809
     67 H23         8.5358   28.9285    3.5997 H         1 J1D         0.1809
     68 H24         9.9364   26.2272    5.1216 H         1 J1D         0.1856
     69 H25         4.1964   28.6524    9.2165 H         1 J1D         0.0199
     70 H26         5.8309   28.1664    9.7810 H         1 J1D         0.0199
     71 H27         4.3769   27.3074   10.3933 H         1 J1D         0.0199
     72 H28         3.7784   25.5687    7.0146 H         1 J1D         0.0199
     73 H29         2.9871   27.1141    7.4752 H         1 J1D         0.0199
     74 H30         3.0640   25.7588    8.6517 H         1 J1D         0.0199
     75 H31         7.9155   26.7543    7.9214 H         1 J1D         0.1399
@<TRIPOS>BOND
     1    1    2 1  
     2    1    3 1  
     3   18    1 1  
     4    2    7 1  
     5    3    4 1  
     6    3    5 1  
     7    5    6 1  
     8    5    7 1  
     9    7    8 1  
    10    8    9 1  
    11    8   17 1  
    12    9   10 2  
    13   11   10 1  
    14   11   12 ar 
    15   17   11 ar 
    16   12   13 1  
    17   12   14 ar 
    18   15   14 ar 
    19   16   15 ar 
    20   17   16 ar 
    21   19   18 1  
    22   20   19 1  
    23   19   43 2  
    24   19   44 2  
    25   22   20 1  
    26   21   22 1  
    27   23   21 am 
    28   24   23 1  
    29   23   42 2  
    30   25   24 1  
    31   26   25 am 
    32   26   27 2  
    33   35   26 1  
    34   29   28 ar 
    35   28   40 1  
    36   29   30 ar 
    37   31   29 ar 
    38   32   31 am 
    39   32   33 2  
    40   41   32 1  
    41   34   35 2  
    42   34   41 1  
    43   35   36 1  
    44   36   37 1  
    45   36   38 1  
    46   36   39 1  
    47   39   40 2  
    48   40   41 1  
    49    1   45 1  
    50    3   46 1  
    51    4   47 1  
    52    5   48 1  
    53    6   49 1  
    54    7   50 1  
    55    9   51 1  
    56   13   52 1  
    57   13   53 1  
    58   15   54 1  
    59   18   55 1  
    60   18   56 1  
    61   20   57 1  
    62   20   58 1  
    63   21   59 1  
    64   22   60 1  
    65   22   61 1  
    66   24   62 1  
    67   24   63 1  
    68   25   64 1  
    69   28   65 1  
    70   30   66 1  
    71   30   67 1  
    72   31   68 1  
    73   37   69 1  
    74   37   70 1  
    75   37   71 1  
    76   38   72 1  
    77   38   73 1  
    78   38   74 1  
    79   41   75 1  
@<TRIPOS>SUBSTRUCTURE
     1 J1D         1

