### 
### Created by X-TOOL on Mon Sep 10 21:13:10 2018
### 

@<TRIPOS>MOLECULE
4f8h_ligand
   33    34     1     0     0
SMALL
GAST_HUCK


@<TRIPOS>ATOM
      1 CAA        18.9420  -14.7160   22.4970 C.ar      1 RKE        -0.0323
      2 CAB        19.2480  -16.0430   22.2610 C.ar      1 RKE        -0.0335
      3 CAC        18.3510  -14.3100   23.6900 C.ar      1 RKE        -0.0342
      4 CAD        18.9590  -16.9600   23.2510 C.ar      1 RKE        -0.0178
      5 CAE        18.0410  -15.2350   24.6960 C.ar      1 RKE         0.0189
      6 CAF        18.3710  -16.5810   24.4510 C.ar      1 RKE         0.0712
      7 CAG        16.6390  -13.3660   25.7790 C.2       1 RKE         0.1427
      8 CAH        15.2190  -13.5020   25.2770 C.3       1 RKE         0.0189
      9 CAI        14.3820  -14.3170   26.3040 C.3       1 RKE        -0.0388
     10 CAJ        14.9370  -15.7550   26.3370 C.3       1 RKE        -0.0536
     11 CAK        16.4330  -15.7540   26.7590 C.3       1 RKE        -0.0224
     12 CAL        17.3780  -14.7130   26.0180 C.3       1 RKE         0.0480
     13 CAM        18.1340  -14.1240   28.3500 C.3       1 RKE        -0.0489
     14 NAN        18.4440  -14.4290   26.9600 N.4       1 RKE         0.1844
     15 OAO        17.1450  -12.2810   25.9970 O.2       1 RKE        -0.3491
     16 CLAP       18.0480  -17.9030   25.6710 Cl        1 RKE        -0.0420
     17 H          19.1682  -13.9721   21.7331 H         1 RKE         0.0700
     18 H          19.7037  -16.3557   21.3215 H         1 RKE         0.0856
     19 H          18.1255  -13.2548   23.8444 H         1 RKE         0.0847
     20 H          19.1987  -18.0105   23.0868 H         1 RKE         0.0704
     21 H          15.2207  -14.0192   24.3175 H         1 RKE         0.0481
     22 H          14.7803  -12.5117   25.1550 H         1 RKE         0.0481
     23 H          13.3319  -14.3253   26.0119 H         1 RKE         0.0289
     24 H          14.4532  -13.8632   27.2925 H         1 RKE         0.0289
     25 H          14.8511  -16.1898   25.3412 H         1 RKE         0.0260
     26 H          14.3663  -16.3375   27.0602 H         1 RKE         0.0260
     27 H          16.8179  -16.7425   26.5086 H         1 RKE         0.0218
     28 H          16.4490  -15.4787   27.8135 H         1 RKE         0.0218
     29 H          17.5031  -13.2362   28.3939 H         1 RKE         0.0778
     30 H          17.6080  -14.9675   28.7971 H         1 RKE         0.0778
     31 H          19.0597  -13.9408   28.8956 H         1 RKE         0.0778
     32 H          18.8752  -13.5759   26.6041 H         1 RKE         0.1974
     33 H          18.9794  -15.2960   27.0048 H         1 RKE         0.1974
@<TRIPOS>BOND
     1    1    2 ar 
     2    3    1 ar 
     3    4    2 ar 
     4    5    3 ar 
     5    6    4 ar 
     6    5    6 ar 
     7   12    5 1  
     8    6   16 1  
     9    7    8 1  
    10    7   12 1  
    11    7   15 2  
    12    8    9 1  
    13    9   10 1  
    14   10   11 1  
    15   11   12 1  
    16   12   14 1  
    17   14   13 1  
    18    1   17 1  
    19    2   18 1  
    20    3   19 1  
    21    4   20 1  
    22    8   21 1  
    23    8   22 1  
    24    9   23 1  
    25    9   24 1  
    26   10   25 1  
    27   10   26 1  
    28   11   27 1  
    29   11   28 1  
    30   13   29 1  
    31   13   30 1  
    32   13   31 1  
    33   14   32 1  
    34   14   33 1  
@<TRIPOS>SUBSTRUCTURE
     1 RKE         1

