### 
### Created by X-TOOL on Mon Sep 10 21:13:08 2018
### 

@<TRIPOS>MOLECULE
4f8j_ligand
   19    19     1     0     0
SMALL
GAST_HUCK


@<TRIPOS>ATOM
      1 C1         13.4750   45.3500   29.5800 C.2       1 HC4         0.0476
      2 O1         13.8040   46.4980   29.9150 O.co2     1 HC4        -0.5654
      3 O2         13.8430   44.3370   30.2400 O.co2     1 HC4        -0.5654
      4 C2         12.6480   45.0620   28.3760 C.2       1 HC4        -0.0342
      5 C3         13.0750   44.1160   27.5410 C.2       1 HC4        -0.0536
      6 C1'        12.4460   43.8470   26.2110 C.ar      1 HC4        -0.0283
      7 C2'        11.0730   44.0140   25.9430 C.ar      1 HC4        -0.0587
      8 C3'        10.5820   43.8080   24.6630 C.ar      1 HC4        -0.0286
      9 C4'        11.3870   43.4170   23.6100 C.ar      1 HC4         0.0925
     10 C5'        12.7410   43.2410   23.8700 C.ar      1 HC4        -0.0286
     11 C6'        13.2250   43.4610   25.1470 C.ar      1 HC4        -0.0587
     12 O4'        10.9230   43.1820   22.3380 O.3       1 HC4        -0.3299
     13 H1         11.7247   45.6066   28.1843 H         1 HC4         0.0576
     14 H2         13.9260   43.5070   27.8424 H         1 HC4         0.0681
     15 H3         10.3983   44.3045   26.7402 H         1 HC4         0.0620
     16 H4          9.5242   43.9597   24.4808 H         1 HC4         0.0557
     17 H5         13.4133   42.9334   23.0772 H         1 HC4         0.0557
     18 H6         14.2859   43.3200   25.3192 H         1 HC4         0.0620
     19 H7         11.3632   43.7633   21.7291 H         1 HC4         0.2502
@<TRIPOS>BOND
     1    1    2 ar 
     2    1    3 ar 
     3    1    4 1  
     4    4    5 2  
     5    5    6 1  
     6    6    7 ar 
     7    6   11 ar 
     8    7    8 ar 
     9    8    9 ar 
    10    9   10 ar 
    11    9   12 1  
    12   10   11 ar 
    13    4   13 1  
    14    5   14 1  
    15    7   15 1  
    16    8   16 1  
    17   10   17 1  
    18   11   18 1  
    19   12   19 1  
@<TRIPOS>SUBSTRUCTURE
     1 HC4         1

