### 
### Created by X-TOOL on Mon Sep 10 21:13:09 2018
### 

@<TRIPOS>MOLECULE
4f9u_ligand
   42    43     1     0     0
SMALL
GAST_HUCK


@<TRIPOS>ATOM
      1 CAA       -56.1110   17.3550  -33.2130 C.3       1 PBD         0.0546
      2 CAB       -53.7000   18.4270  -38.2180 C.3       1 PBD         0.0567
      3 SAC       -53.4900   25.2120  -36.2130 S.3       1 PBD        -0.0461
      4 CAD       -48.0070   22.0530  -30.2420 C.2       1 PBD        -0.0236
      5 CAE       -55.3370   21.2470  -34.3410 C.ar      1 PBD        -0.0566
      6 CAF       -55.5800   19.9170  -33.9900 C.ar      1 PBD        -0.0498
      7 CAG       -48.4610   22.7620  -31.2980 C.2       1 PBD         0.0363
      8 CAH       -49.7690   23.1480  -29.6010 C.2       1 PBD         0.0974
      9 CAI       -54.4440   20.4820  -36.4590 C.ar      1 PBD        -0.0166
     10 CAJ       -51.3320   23.5750  -32.5710 C.3       1 PBD        -0.0211
     11 CAK       -52.3190   24.4320  -33.3850 C.3       1 PBD        -0.0205
     12 CAL       -50.3670   24.3660  -31.6690 C.3       1 PBD         0.0586
     13 NAM       -48.8170   22.3170  -29.2200 N.2       1 PBD        -0.3302
     14 NAN       -53.2000   23.4810  -34.1210 N.2       1 PBD        -0.3604
     15 NAO       -54.4960   22.7730  -35.9920 N.pl3     1 PBD        -0.2411
     16 OAP       -55.4980   17.5480  -34.5180 O.3       1 PBD        -0.3319
     17 OAQ       -54.3740   18.1000  -36.9830 O.3       1 PBD        -0.3274
     18 CAR       -53.7070   23.6750  -35.3540 C.2       1 PBD         0.1706
     19 CAS       -54.7610   21.5290  -35.5820 C.ar      1 PBD         0.0511
     20 CAT       -55.2590   18.8600  -34.8670 C.ar      1 PBD         0.1083
     21 CAU       -54.6840   19.1410  -36.1250 C.ar      1 PBD         0.1113
     22 NAV       -49.5300   23.4440  -30.8740 N.pl3     1 PBD        -0.2521
     23 H1        -56.2582   16.2800  -33.0325 H         1 PBD         0.0569
     24 H2        -57.0836   17.8680  -33.1853 H         1 PBD         0.0569
     25 H3        -55.4547   17.7710  -32.4344 H         1 PBD         0.0569
     26 H4        -53.5203   17.5063  -38.7925 H         1 PBD         0.0573
     27 H5        -52.7388   18.9127  -37.9937 H         1 PBD         0.0573
     28 H6        -54.3275   19.1109  -38.8083 H         1 PBD         0.0573
     29 H7        -53.9397   25.1586  -37.1136 H         1 PBD         0.1373
     30 H8        -47.1423   21.3911  -30.2294 H         1 PBD         0.0444
     31 H9        -55.5921   22.0501  -33.6591 H         1 PBD         0.0422
     32 H10       -56.0232   19.6932  -33.0264 H         1 PBD         0.0484
     33 H11       -48.0380   22.7756  -32.3014 H         1 PBD         0.0860
     34 H12       -50.5909   23.5190  -28.9904 H         1 PBD         0.1215
     35 H13       -54.0016   20.7151  -37.4208 H         1 PBD         0.0434
     36 H14       -50.7304   22.9848  -33.2779 H         1 PBD         0.0295
     37 H15       -51.9167   22.8970  -31.9319 H         1 PBD         0.0295
     38 H16       -51.7722   25.0700  -34.0948 H         1 PBD         0.0305
     39 H17       -52.9190   25.0624  -32.7123 H         1 PBD         0.0305
     40 H18       -50.9490   25.0048  -30.9884 H         1 PBD         0.0625
     41 H19       -49.7179   24.9945  -32.2964 H         1 PBD         0.0625
     42 H20       -54.9312   23.0760  -36.8750 H         1 PBD         0.2220
@<TRIPOS>BOND
     1   16    1 1  
     2   17    2 1  
     3   18    3 1  
     4    7    4 2  
     5   13    4 1  
     6    5    6 ar 
     7   19    5 ar 
     8    6   20 ar 
     9   22    7 1  
    10    8   13 2  
    11   22    8 1  
    12    9   19 ar 
    13   21    9 ar 
    14   11   10 1  
    15   10   12 1  
    16   14   11 1  
    17   12   22 1  
    18   18   14 2  
    19   15   18 1  
    20   19   15 1  
    21   20   16 1  
    22   17   21 1  
    23   20   21 ar 
    24    1   23 1  
    25    1   24 1  
    26    1   25 1  
    27    2   26 1  
    28    2   27 1  
    29    2   28 1  
    30    3   29 1  
    31    4   30 1  
    32    5   31 1  
    33    6   32 1  
    34    7   33 1  
    35    8   34 1  
    36    9   35 1  
    37   10   36 1  
    38   10   37 1  
    39   11   38 1  
    40   11   39 1  
    41   12   40 1  
    42   12   41 1  
    43   15   42 1  
@<TRIPOS>SUBSTRUCTURE
     1 PBD         1

