### 
### Created by X-TOOL on Mon Sep 10 21:13:09 2018
### 

@<TRIPOS>MOLECULE
4f9v_ligand
   42    43     1     0     0
SMALL
GAST_HUCK


@<TRIPOS>ATOM
      1 CAA        10.6100  138.7110  -18.9940 C.3       1 PBD         0.0539
      2 CAB        15.7020  136.9410  -18.3690 C.3       1 PBD         0.0566
      3 SAC        14.6340  136.8130  -11.3040 S.2       1 PBD        -0.2989
      4 CAD         8.0210  131.5800  -14.1040 C.2       1 PBD        -0.0236
      5 CAE        12.2100  138.4820  -15.0550 C.ar      1 PBD        -0.0582
      6 CAF        11.6730  138.5980  -16.3500 C.ar      1 PBD        -0.0530
      7 CAG         9.2110  131.9000  -13.5210 C.2       1 PBD         0.0363
      8 CAH         7.7020  133.2020  -12.6720 C.2       1 PBD         0.0974
      9 CAI        14.2280  137.5480  -16.0430 C.ar      1 PBD        -0.0184
     10 CAJ        10.8980  134.4090  -12.7100 C.3       1 PBD        -0.0025
     11 CAK        11.7890  135.3760  -11.9200 C.3       1 PBD         0.0394
     12 CAL        10.0340  133.5180  -11.8160 C.3       1 PBD         0.0604
     13 NAM         7.0860  132.4030  -13.5640 N.2       1 PBD        -0.3302
     14 NAN        12.4700  136.2820  -12.8650 N.am      1 PBD        -0.2790
     15 NAO        14.1200  137.7560  -13.6840 N.am      1 PBD        -0.2403
     16 OAP        11.9750  138.2940  -18.7630 O.3       1 PBD        -0.3339
     17 OAQ        14.3320  137.3420  -18.4550 O.3       1 PBD        -0.3282
     18 CAR        13.6530  136.9510  -12.7090 C.2       1 PBD         0.1596
     19 CAS        13.4950  137.9490  -14.9220 C.ar      1 PBD         0.0531
     20 CAT        12.4260  138.1980  -17.4610 C.ar      1 PBD         0.1050
     21 CAU        13.6770  137.6810  -17.3080 C.ar      1 PBD         0.1081
     22 NAV         8.9970  132.8810  -12.6340 N.pl3     1 PBD        -0.2521
     23 H1         10.4123  138.7357  -20.0758 H         1 PBD         0.0568
     24 H2         10.4564  139.7144  -18.5702 H         1 PBD         0.0568
     25 H3          9.9228  138.0002  -18.5118 H         1 PBD         0.0568
     26 H4         16.0783  136.7032  -19.3749 H         1 PBD         0.0573
     27 H5         15.7841  136.0515  -17.7271 H         1 PBD         0.0573
     28 H6         16.2974  137.7598  -17.9389 H         1 PBD         0.0573
     29 H7          7.8528  130.8121  -14.8577 H         1 PBD         0.0444
     30 H8         11.6438  138.7968  -14.1859 H         1 PBD         0.0395
     31 H9         10.6749  138.9976  -16.4882 H         1 PBD         0.0477
     32 H10        10.1722  131.4369  -13.7392 H         1 PBD         0.0860
     33 H11         7.2231  133.9806  -12.0801 H         1 PBD         0.1215
     34 H12        15.2230  137.1348  -15.9234 H         1 PBD         0.0406
     35 H13        11.5420  133.7652  -13.3271 H         1 PBD         0.0314
     36 H14        10.2355  134.9974  -13.3617 H         1 PBD         0.0314
     37 H15        12.5380  134.8060  -11.3508 H         1 PBD         0.0543
     38 H16        11.1705  135.9640  -11.2260 H         1 PBD         0.0543
     39 H17         9.5618  134.1291  -11.0327 H         1 PBD         0.0626
     40 H18        10.6619  132.7448  -11.3492 H         1 PBD         0.0626
     41 H19        12.0035  136.4265  -13.7376 H         1 PBD         0.1977
     42 H20        14.9722  138.2498  -13.5112 H         1 PBD         0.2321
@<TRIPOS>BOND
     1   16    1 1  
     2   17    2 1  
     3   18    3 2  
     4    7    4 2  
     5   13    4 1  
     6    5    6 ar 
     7   19    5 ar 
     8    6   20 ar 
     9   22    7 1  
    10    8   13 2  
    11   22    8 1  
    12    9   19 ar 
    13   21    9 ar 
    14   11   10 1  
    15   10   12 1  
    16   14   11 1  
    17   12   22 1  
    18   18   14 am 
    19   15   18 am 
    20   19   15 1  
    21   20   16 1  
    22   17   21 1  
    23   20   21 ar 
    24    1   23 1  
    25    1   24 1  
    26    1   25 1  
    27    2   26 1  
    28    2   27 1  
    29    2   28 1  
    30    4   29 1  
    31    5   30 1  
    32    6   31 1  
    33    7   32 1  
    34    8   33 1  
    35    9   34 1  
    36   10   35 1  
    37   10   36 1  
    38   11   37 1  
    39   11   38 1  
    40   12   39 1  
    41   12   40 1  
    42   14   41 1  
    43   15   42 1  
@<TRIPOS>SUBSTRUCTURE
     1 PBD         1

