### 
### Created by X-TOOL on Mon Sep 10 21:13:13 2018
### 

@<TRIPOS>MOLECULE
4f9w_ligand
   43    46     1     0     0
SMALL
GAST_HUCK


@<TRIPOS>ATOM
      1 C3          0.9190    4.6690   22.6420 C.3       1 LM4         0.0229
      2 N2          0.4040    3.3730   23.0710 N.pl3     1 LM4        -0.2891
      3 C1          1.0060    2.6990   24.2240 C.3       1 LM4         0.0229
      4 C4         -0.6160    2.7590   22.3120 C.ar      1 LM4         0.1272
      5 N9         -1.0820    3.4070   21.2270 N.ar      1 LM4        -0.2680
      6 N8         -2.0740    2.8890   20.4090 N.ar      1 LM4        -0.2675
      7 C7         -2.6060    1.6870   20.6480 C.ar      1 LM4         0.0778
      8 C6         -2.1490    0.9380   21.7640 C.ar      1 LM4         0.0507
      9 C10        -2.6050   -0.4600   22.0800 C.ar      1 LM4         0.0195
     10 C21        -2.6390   -1.4080   21.0580 C.ar      1 LM4        -0.0219
     11 C20        -2.9900   -2.7250   21.3360 C.ar      1 LM4         0.0136
     12 N19        -3.2780   -3.0900   22.6000 N.ar      1 LM4        -0.2954
     13 C18        -3.2110   -2.2140   23.6120 C.ar      1 LM4         0.0136
     14 C17        -2.8520   -0.8950   23.3940 C.ar      1 LM4        -0.0219
     15 C5         -1.1400    1.4870   22.5860 C.ar      1 LM4         0.0265
     16 C11        -3.6250    1.1960   19.7170 C.ar      1 LM4         0.0161
     17 C16        -3.3100    1.1380   18.3760 C.ar      1 LM4        -0.0343
     18 C15        -4.2310    0.6630   17.4700 C.ar      1 LM4        -0.0098
     19 C25        -3.9060    0.6010   16.1300 C.ar      1 LM4        -0.0508
     20 C24        -4.8290    0.1180   15.2100 C.ar      1 LM4        -0.0589
     21 C23        -6.0840   -0.3240   15.6300 C.ar      1 LM4        -0.0591
     22 C22        -6.3930   -0.2340   16.9820 C.ar      1 LM4        -0.0516
     23 C14        -5.4850    0.2560   17.8950 C.ar      1 LM4        -0.0142
     24 C13        -5.8030    0.2970   19.2370 C.ar      1 LM4        -0.0504
     25 C12        -4.8760    0.7590   20.1540 C.ar      1 LM4        -0.0459
     26 H1          1.7021    5.0014   23.3393 H         1 LM4         0.0495
     27 H2          0.1006    5.4039   22.6325 H         1 LM4         0.0495
     28 H3          1.3426    4.5788   21.6309 H         1 LM4         0.0495
     29 H4          0.4925    1.7420   24.3985 H         1 LM4         0.0495
     30 H5          0.9059    3.3365   25.1148 H         1 LM4         0.0495
     31 H6          2.0715    2.5124   24.0245 H         1 LM4         0.0495
     32 H7         -2.3911   -1.1177   20.0434 H         1 LM4         0.0740
     33 H8         -3.0316   -3.4562   20.5368 H         1 LM4         0.0828
     34 H9         -3.4419   -2.5440   24.6184 H         1 LM4         0.0828
     35 H10        -2.7624   -0.2060   24.2261 H         1 LM4         0.0740
     36 H11        -0.7685    0.9222   23.4334 H         1 LM4         0.0856
     37 H12        -2.3352    1.4671   18.0345 H         1 LM4         0.0711
     38 H13        -2.9290    0.9296   15.7945 H         1 LM4         0.0642
     39 H14        -4.5718    0.0844   14.1575 H         1 LM4         0.0624
     40 H15        -6.7985   -0.7266   14.9211 H         1 LM4         0.0635
     41 H16        -7.3693   -0.5562   17.3255 H         1 LM4         0.0629
     42 H17        -6.7795   -0.0329   19.5728 H         1 LM4         0.0629
     43 H18        -5.1209    0.7815   21.2097 H         1 LM4         0.0652
@<TRIPOS>BOND
     1    1    2 1  
     2    2    3 1  
     3    2    4 1  
     4    4    5 ar 
     5    4   15 ar 
     6    5    6 ar 
     7    6    7 ar 
     8    7    8 ar 
     9    7   16 1  
    10    8    9 1  
    11    8   15 ar 
    12    9   10 ar 
    13    9   14 ar 
    14   10   11 ar 
    15   11   12 ar 
    16   12   13 ar 
    17   13   14 ar 
    18   16   17 ar 
    19   16   25 ar 
    20   17   18 ar 
    21   18   19 ar 
    22   18   23 ar 
    23   19   20 ar 
    24   20   21 ar 
    25   21   22 ar 
    26   22   23 ar 
    27   23   24 ar 
    28   24   25 ar 
    29    1   26 1  
    30    1   27 1  
    31    1   28 1  
    32    3   29 1  
    33    3   30 1  
    34    3   31 1  
    35   10   32 1  
    36   11   33 1  
    37   13   34 1  
    38   14   35 1  
    39   15   36 1  
    40   17   37 1  
    41   19   38 1  
    42   20   39 1  
    43   21   40 1  
    44   22   41 1  
    45   24   42 1  
    46   25   43 1  
@<TRIPOS>SUBSTRUCTURE
     1 LM4         1

