### 
### Created by X-TOOL on Mon Sep 10 21:13:13 2018
### 

@<TRIPOS>MOLECULE
4f9y_ligand
   43    46     1     0     0
SMALL
GAST_HUCK


@<TRIPOS>ATOM
      1 C3          0.2430    5.3280   21.5170 C.3       1 LM3         0.0229
      2 N2         -0.2050    4.0720   22.1340 N.pl3     1 LM3        -0.2891
      3 C1          0.5200    3.7940   23.3790 C.3       1 LM3         0.0229
      4 C4         -1.2160    3.2600   21.5550 C.ar      1 LM3         0.1266
      5 N9         -1.9120    3.8000   20.5110 N.ar      1 LM3        -0.2703
      6 N8         -2.8610    3.1610   19.9150 N.ar      1 LM3        -0.2716
      7 C7         -3.2060    1.8740   20.2530 C.ar      1 LM3         0.0754
      8 C6         -2.5790    1.2630   21.3350 C.ar      1 LM3         0.0497
      9 C10        -2.8760   -0.1360   21.7570 C.ar      1 LM3         0.0194
     10 C21        -3.1130   -0.4700   23.0750 C.ar      1 LM3        -0.0219
     11 C20        -3.3350   -1.8000   23.4020 C.ar      1 LM3         0.0136
     12 N19        -3.3100   -2.7890   22.4330 N.ar      1 LM3        -0.2954
     13 C18        -3.0640   -2.4590   21.1040 C.ar      1 LM3         0.0136
     14 C17        -2.8380   -1.1330   20.7870 C.ar      1 LM3        -0.0219
     15 C5         -1.5530    1.9650   21.9730 C.ar      1 LM3         0.0261
     16 C11        -4.3310    1.3010   19.4890 C.ar      1 LM3         0.0216
     17 C16        -4.3270    1.1010   18.1350 C.ar      1 LM3        -0.0024
     18 C25        -3.2290    1.3990   17.3530 C.ar      1 LM3        -0.0511
     19 C24        -3.2770    1.1420   15.9890 C.ar      1 LM3        -0.0594
     20 C23        -4.4140    0.6240   15.4120 C.ar      1 LM3        -0.0592
     21 C22        -5.5320    0.3300   16.1770 C.ar      1 LM3        -0.0512
     22 C15        -5.4780    0.5770   17.5360 C.ar      1 LM3        -0.0104
     23 C14        -6.5810    0.2790   18.2800 C.ar      1 LM3        -0.0461
     24 C13        -6.5930    0.5070   19.6260 C.ar      1 LM3        -0.0514
     25 C12        -5.4720    1.0100   20.2180 C.ar      1 LM3        -0.0418
     26 H1          1.0284    5.7823   22.1389 H         1 LM3         0.0495
     27 H2         -0.6076    6.0209   21.4366 H         1 LM3         0.0495
     28 H3          0.6436    5.1212   20.5136 H         1 LM3         0.0495
     29 H4          0.1586    2.8489   23.8105 H         1 LM3         0.0495
     30 H5          0.3488    4.6125   24.0936 H         1 LM3         0.0495
     31 H6          1.5961    3.7120   23.1662 H         1 LM3         0.0495
     32 H7         -3.1255    0.2950   23.8429 H         1 LM3         0.0740
     33 H8         -3.5313   -2.0695   24.4335 H         1 LM3         0.0828
     34 H9         -3.0499   -3.2236   20.3357 H         1 LM3         0.0828
     35 H10        -2.6262   -0.8633   19.7587 H         1 LM3         0.0740
     36 H11        -1.0152    1.5062   22.7948 H         1 LM3         0.0853
     37 H12        -2.3392    1.8288   17.7987 H         1 LM3         0.0626
     38 H13        -2.4102    1.3515   15.3727 H         1 LM3         0.0634
     39 H14        -4.4356    0.4432   14.3434 H         1 LM3         0.0622
     40 H15        -6.4249   -0.0827   15.7216 H         1 LM3         0.0640
     41 H16        -7.4560   -0.1426   17.7986 H         1 LM3         0.0694
     42 H17        -7.4780    0.2920   20.2139 H         1 LM3         0.0640
     43 H18        -5.4742    1.1867   21.2875 H         1 LM3         0.0702
@<TRIPOS>BOND
     1    1    2 1  
     2    2    3 1  
     3    2    4 1  
     4    4    5 ar 
     5    4   15 ar 
     6    5    6 ar 
     7    6    7 ar 
     8    7    8 ar 
     9    7   16 1  
    10    8    9 1  
    11    8   15 ar 
    12    9   10 ar 
    13    9   14 ar 
    14   10   11 ar 
    15   11   12 ar 
    16   12   13 ar 
    17   13   14 ar 
    18   16   17 ar 
    19   16   25 ar 
    20   17   18 ar 
    21   17   22 ar 
    22   18   19 ar 
    23   19   20 ar 
    24   20   21 ar 
    25   21   22 ar 
    26   22   23 ar 
    27   23   24 ar 
    28   24   25 ar 
    29    1   26 1  
    30    1   27 1  
    31    1   28 1  
    32    3   29 1  
    33    3   30 1  
    34    3   31 1  
    35   10   32 1  
    36   11   33 1  
    37   13   34 1  
    38   14   35 1  
    39   15   36 1  
    40   18   37 1  
    41   19   38 1  
    42   20   39 1  
    43   21   40 1  
    44   23   41 1  
    45   24   42 1  
    46   25   43 1  
@<TRIPOS>SUBSTRUCTURE
     1 LM3         1

