### 
### Created by X-TOOL on Mon Sep 10 21:12:44 2018
### 

@<TRIPOS>MOLECULE
4fab_ligand
   38    41     1     0     0
SMALL
GAST_HUCK


@<TRIPOS>ATOM
      1 C1         27.0670  -13.2280   22.3790 C.ar      1 FLU         0.0733
      2 O1         27.6360  -12.8000   23.5350 O.3       1 FLU        -0.3398
      3 C2         26.4740  -12.2630   21.6200 C.ar      1 FLU        -0.0061
      4 C3         25.8540  -12.6400   20.4480 C.ar      1 FLU         0.1126
      5 O2         25.2630  -11.6650   19.7100 O.3       1 FLU        -0.2683
      6 C4         24.6290  -11.9710   18.5270 C.ar      1 FLU         0.1126
      7 C5         24.0370  -10.9440   17.8220 C.ar      1 FLU        -0.0061
      8 C6         23.4150  -11.2430   16.6430 C.ar      1 FLU         0.0733
      9 O3         22.8830  -10.1550   16.0270 O.3       1 FLU        -0.3398
     10 C7         23.3820  -12.5890   16.1740 C.ar      1 FLU        -0.0500
     11 C8         23.9800  -13.6070   16.9060 C.ar      1 FLU        -0.0722
     12 C9         24.6000  -13.2920   18.0710 C.ar      1 FLU         0.0030
     13 C10        25.2020  -14.2860   18.7780 C.3       1 FLU         0.0490
     14 C11        25.8250  -13.9730   20.0110 C.ar      1 FLU         0.0030
     15 C12        26.4100  -14.9440   20.7500 C.ar      1 FLU        -0.0722
     16 C13        27.0350  -14.5860   21.9450 C.ar      1 FLU        -0.0500
     17 C14        25.0930  -15.5810   18.3250 C.ar      1 FLU        -0.0104
     18 C15        23.8440  -16.1090   18.4530 C.ar      1 FLU        -0.0538
     19 C16        23.6420  -17.3960   17.9610 C.ar      1 FLU        -0.0658
     20 C17        24.6940  -18.1930   17.3610 C.ar      1 FLU        -0.0651
     21 C18        25.9290  -17.6610   17.2470 C.ar      1 FLU        -0.0541
     22 C19        26.1200  -16.3230   17.7100 C.ar      1 FLU         0.0143
     23 C20        27.3480  -15.7820   17.5840 C.2       1 FLU         0.0588
     24 O4         28.3840  -16.5040   18.0780 O.co2     1 FLU        -0.5629
     25 O5         27.6730  -14.7020   16.9940 O.co2     1 FLU        -0.5629
     26 H1         28.0202  -13.5399   23.9905 H         1 FLU         0.2459
     27 H2         26.4897  -11.2246   21.9306 H         1 FLU         0.0455
     28 H3         24.0645   -9.9261   18.1937 H         1 FLU         0.0455
     29 H4         23.5735   -9.5306   15.8373 H         1 FLU         0.2459
     30 H5         22.8860  -12.8200   15.2382 H         1 FLU         0.0437
     31 H6         23.9519  -14.6318   16.5537 H         1 FLU         0.0506
     32 H7         26.1493  -14.1487   18.2360 H         1 FLU         0.0698
     33 H8         26.3934  -15.9767   20.4210 H         1 FLU         0.0506
     34 H9         27.5033  -15.3518   22.5527 H         1 FLU         0.0437
     35 H10        23.0402  -15.5503   18.9187 H         1 FLU         0.0567
     36 H11        22.6482  -17.8234   18.0301 H         1 FLU         0.0620
     37 H12        24.4921  -19.1986   17.0101 H         1 FLU         0.0566
     38 H13        26.7473  -18.2289   16.8192 H         1 FLU         0.0633
@<TRIPOS>BOND
     1    1    2 1  
     2    1    3 ar 
     3    1   16 ar 
     4    3    4 ar 
     5    4    5 1  
     6    4   14 ar 
     7    5    6 1  
     8    6    7 ar 
     9    6   12 ar 
    10    7    8 ar 
    11    8    9 1  
    12    8   10 ar 
    13   10   11 ar 
    14   11   12 ar 
    15   12   13 1  
    16   13   14 1  
    17   13   17 1  
    18   14   15 ar 
    19   15   16 ar 
    20   17   18 ar 
    21   17   22 ar 
    22   18   19 ar 
    23   19   20 ar 
    24   20   21 ar 
    25   21   22 ar 
    26   22   23 1  
    27   23   24 ar 
    28   23   25 ar 
    29    2   26 1  
    30    3   27 1  
    31    7   28 1  
    32    9   29 1  
    33   10   30 1  
    34   11   31 1  
    35   13   32 1  
    36   15   33 1  
    37   16   34 1  
    38   18   35 1  
    39   19   36 1  
    40   20   37 1  
    41   21   38 1  
@<TRIPOS>SUBSTRUCTURE
     1 FLU         1

