### 
### Created by X-TOOL on Mon Sep 10 21:13:09 2018
### 

@<TRIPOS>MOLECULE
4fai_ligand
   42    43     1     0     0
SMALL
GAST_HUCK


@<TRIPOS>ATOM
      1 CAA       -34.7200   -5.6950   44.3660 C.3       1 PBD         0.0539
      2 CAB       -31.6240   -8.4640   40.5860 C.3       1 PBD         0.0566
      3 SAC       -30.4340   -2.0740   37.7490 S.2       1 PBD        -0.2989
      4 CAD       -26.9410   -0.9490   45.7900 C.2       1 PBD        -0.0236
      5 CAE       -33.1000   -3.7220   41.2240 C.ar      1 PBD        -0.0582
      6 CAF       -33.5560   -4.4080   42.3320 C.ar      1 PBD        -0.0530
      7 CAG       -26.9320   -1.1990   44.4710 C.2       1 PBD         0.0363
      8 CAH       -28.3730    0.3960   44.8330 C.2       1 PBD         0.0974
      9 CAI       -32.1700   -5.7550   40.3660 C.ar      1 PBD        -0.0184
     10 CAJ       -28.9590   -1.4940   42.0160 C.3       1 PBD        -0.0025
     11 CAK       -29.3340   -1.5310   40.5200 C.3       1 PBD         0.0394
     12 CAL       -28.1260   -0.2880   42.4230 C.3       1 PBD         0.0604
     13 NAM       -27.8400    0.0530   46.0170 N.2       1 PBD        -0.3302
     14 NAN       -30.3760   -2.5360   40.3740 N.am      1 PBD        -0.2790
     15 NAO       -31.9320   -3.7580   39.1530 N.am      1 PBD        -0.2403
     16 OAP       -33.8050   -6.4900   43.5420 O.3       1 PBD        -0.3339
     17 OAQ       -32.4270   -7.8090   41.6080 O.3       1 PBD        -0.3282
     18 CAR       -30.9600   -2.8380   39.2050 C.2       1 PBD         0.1596
     19 CAS       -32.3850   -4.3940   40.2400 C.ar      1 PBD         0.0531
     20 CAT       -33.3360   -5.7840   42.4600 C.ar      1 PBD         0.1050
     21 CAU       -32.6390   -6.4590   41.4630 C.ar      1 PBD         0.1081
     22 NAV       -27.8180   -0.3600   43.8870 N.pl3     1 PBD        -0.2521
     23 H1        -35.0674   -6.3002   45.2163 H         1 PBD         0.0568
     24 H2        -35.5837   -5.3846   43.7597 H         1 PBD         0.0568
     25 H3        -34.1956   -4.8036   44.7405 H         1 PBD         0.0568
     26 H4        -31.5331   -9.5346   40.8215 H         1 PBD         0.0573
     27 H5        -30.6232   -8.0085   40.5582 H         1 PBD         0.0573
     28 H6        -32.1089   -8.3440   39.6059 H         1 PBD         0.0573
     29 H7        -26.3392   -1.4547   46.5436 H         1 PBD         0.0444
     30 H8        -33.2993   -2.6614   41.1219 H         1 PBD         0.0395
     31 H9        -34.0898   -3.8753   43.1107 H         1 PBD         0.0477
     32 H10       -26.3212   -1.9435   43.9625 H         1 PBD         0.0860
     33 H11       -29.1303    1.1621   44.6734 H         1 PBD         0.1215
     34 H12       -31.6239   -6.2807   39.5911 H         1 PBD         0.0406
     35 H13       -28.3859   -2.4033   42.2501 H         1 PBD         0.0314
     36 H14       -29.8886   -1.4848   42.6040 H         1 PBD         0.0314
     37 H15       -28.4564   -1.8046   39.9160 H         1 PBD         0.0543
     38 H16       -29.7082   -0.5478   40.1987 H         1 PBD         0.0543
     39 H17       -28.6888    0.6334   42.2124 H         1 PBD         0.0626
     40 H18       -27.1863   -0.2825   41.8513 H         1 PBD         0.0626
     41 H19       -30.6735   -3.0294   41.1914 H         1 PBD         0.1977
     42 H20       -32.3360   -3.9788   38.2653 H         1 PBD         0.2321
@<TRIPOS>BOND
     1   16    1 1  
     2   17    2 1  
     3   18    3 2  
     4    7    4 2  
     5   13    4 1  
     6    5    6 ar 
     7   19    5 ar 
     8    6   20 ar 
     9   22    7 1  
    10    8   13 2  
    11   22    8 1  
    12    9   19 ar 
    13   21    9 ar 
    14   11   10 1  
    15   10   12 1  
    16   14   11 1  
    17   12   22 1  
    18   18   14 am 
    19   15   18 am 
    20   19   15 1  
    21   20   16 1  
    22   17   21 1  
    23   20   21 ar 
    24    1   23 1  
    25    1   24 1  
    26    1   25 1  
    27    2   26 1  
    28    2   27 1  
    29    2   28 1  
    30    4   29 1  
    31    5   30 1  
    32    6   31 1  
    33    7   32 1  
    34    8   33 1  
    35    9   34 1  
    36   10   35 1  
    37   10   36 1  
    38   11   37 1  
    39   11   38 1  
    40   12   39 1  
    41   12   40 1  
    42   14   41 1  
    43   15   42 1  
@<TRIPOS>SUBSTRUCTURE
     1 PBD         1

