### 
### Created by X-TOOL on Mon Sep 10 21:13:10 2018
### 

@<TRIPOS>MOLECULE
4fak_ligand
   50    52     1     0     0
SMALL
GAST_HUCK


@<TRIPOS>ATOM
      1 N          -3.6230   -7.0800   -0.9520 N.4       1 SAM         0.2328
      2 CA         -4.7070   -7.6800   -0.1000 C.3       1 SAM         0.0327
      3 C          -5.3940   -6.5460    0.7550 C.2       1 SAM         0.0846
      4 O          -4.8220   -5.4040    0.4910 O.co2     1 SAM        -0.5643
      5 OXT        -6.4470   -6.8420    1.6280 O.co2     1 SAM        -0.5643
      6 CB         -4.1110   -8.8180    0.8110 C.3       1 SAM         0.0473
      7 CG         -5.1280   -9.5420    1.7270 C.3       1 SAM         0.1163
      8 SD         -4.6490  -10.8920    2.9110 S.3       1 SAM        -0.0103
      9 CE         -3.3020  -11.8830    2.1000 C.3       1 SAM         0.0995
     10 C5'        -6.0770  -11.9940    3.1110 C.3       1 SAM         0.1381
     11 C4'        -7.0570  -11.5480    4.1980 C.3       1 SAM         0.1350
     12 O4'        -6.4950  -11.6980    5.4570 O.3       1 SAM        -0.3344
     13 C3'        -7.4270  -10.0700    4.1090 C.3       1 SAM         0.1168
     14 O3'        -8.5250   -9.9530    3.2840 O.3       1 SAM        -0.3863
     15 C2'        -7.7260   -9.7030    5.5660 C.3       1 SAM         0.1386
     16 O2'        -9.0500   -9.9480    5.8840 O.3       1 SAM        -0.3836
     17 C1'        -6.8140  -10.6490    6.3460 C.3       1 SAM         0.2011
     18 N9         -5.5700   -9.9140    6.8370 N.pl3     1 SAM        -0.1919
     19 C8         -4.2630  -10.1720    6.4760 C.2       1 SAM         0.1123
     20 N7         -3.4510   -9.3540    7.1060 N.2       1 SAM        -0.2958
     21 C5         -4.1990   -8.5610    7.8900 C.ar      1 SAM         0.1045
     22 C6         -3.9220   -7.5140    8.8010 C.ar      1 SAM         0.1298
     23 N6         -2.6680   -7.0740    9.0770 N.pl3     1 SAM        -0.3152
     24 N1         -4.9810   -6.9040    9.4630 N.ar      1 SAM        -0.2698
     25 C2         -6.2680   -7.2560    9.2560 C.ar      1 SAM         0.0533
     26 N3         -6.5310   -8.2410    8.3730 N.ar      1 SAM        -0.2714
     27 C4         -5.5370   -8.9020    7.6950 C.ar      1 SAM         0.1613
     28 H1         -3.1846   -7.8052   -1.4979 H         1 SAM         0.2010
     29 H2         -2.9343   -6.6420   -0.3604 H         1 SAM         0.2010
     30 H3         -4.0233   -6.3906   -1.5689 H         1 SAM         0.2010
     31 H4         -5.4667   -8.1271   -0.7580 H         1 SAM         0.1026
     32 H5         -3.3381   -8.3687    1.4519 H         1 SAM         0.0385
     33 H6         -3.6507   -9.5711    0.1545 H         1 SAM         0.0385
     34 H7         -5.8798   -9.9820    1.0553 H         1 SAM         0.0843
     35 H8         -5.5969   -8.7566    2.3380 H         1 SAM         0.0843
     36 H9         -2.9895  -12.6958    2.7721 H         1 SAM         0.0803
     37 H10        -2.4421  -11.2300    1.8898 H         1 SAM         0.0803
     38 H11        -3.6771  -12.3099    1.1582 H         1 SAM         0.0803
     39 H12        -5.7068  -12.9972    3.3690 H         1 SAM         0.0867
     40 H13        -6.6176  -12.0375    2.1540 H         1 SAM         0.0867
     41 H14        -7.9673  -12.1600    4.1161 H         1 SAM         0.0671
     42 H15        -6.5985   -9.4630    3.7153 H         1 SAM         0.0649
     43 H16        -8.7719   -9.0382    3.2152 H         1 SAM         0.2100
     44 H17        -7.4828   -8.6498    5.7698 H         1 SAM         0.0676
     45 H18        -9.6113   -9.4293    5.3196 H         1 SAM         0.2101
     46 H19        -7.3507  -11.0534    7.2168 H         1 SAM         0.0996
     47 H20        -3.9506  -10.9415    5.7716 H         1 SAM         0.1349
     48 H21        -2.5278   -6.3071    9.7502 H         1 SAM         0.1820
     49 H22        -1.8566   -7.5070    8.6133 H         1 SAM         0.1820
     50 H23        -7.0713   -6.7584    9.7872 H         1 SAM         0.0996
@<TRIPOS>BOND
     1    1    2 1  
     2    2    3 1  
     3    2    6 1  
     4    3    4 ar 
     5    3    5 ar 
     6    6    7 1  
     7    7    8 1  
     8    8    9 1  
     9    8   10 1  
    10   10   11 1  
    11   11   12 1  
    12   11   13 1  
    13   12   17 1  
    14   13   14 1  
    15   13   15 1  
    16   15   16 1  
    17   15   17 1  
    18   17   18 1  
    19   18   19 1  
    20   18   27 1  
    21   19   20 2  
    22   20   21 1  
    23   21   22 ar 
    24   21   27 ar 
    25   22   23 1  
    26   22   24 ar 
    27   24   25 ar 
    28   25   26 ar 
    29   26   27 ar 
    30    1   28 1  
    31    1   29 1  
    32    1   30 1  
    33    2   31 1  
    34    6   32 1  
    35    6   33 1  
    36    7   34 1  
    37    7   35 1  
    38    9   36 1  
    39    9   37 1  
    40    9   38 1  
    41   10   39 1  
    42   10   40 1  
    43   11   41 1  
    44   13   42 1  
    45   14   43 1  
    46   15   44 1  
    47   16   45 1  
    48   17   46 1  
    49   19   47 1  
    50   23   48 1  
    51   23   49 1  
    52   25   50 1  
@<TRIPOS>SUBSTRUCTURE
     1 SAM         1

