### 
### Created by X-TOOL on Mon Sep 10 21:13:09 2018
### 

@<TRIPOS>MOLECULE
4fbe_ligand
   42    43     1     0     0
SMALL
GAST_HUCK


@<TRIPOS>ATOM
      1 CAA        27.4800   50.2950   43.9510 C.3       1 PBD         0.0546
      2 CAB        27.9350   50.5480   49.3480 C.3       1 PBD         0.0567
      3 SAC        22.2610   46.1500   49.6850 S.3       1 PBD        -0.0461
      4 CAD        28.7020   41.1730   46.6110 C.2       1 PBD        -0.0236
      5 CAE        24.7910   48.2000   46.3530 C.ar      1 PBD        -0.0566
      6 CAF        25.8070   48.6550   45.5250 C.ar      1 PBD        -0.0498
      7 CAG        27.8570   41.7470   47.4670 C.2       1 PBD         0.0363
      8 CAH        26.6960   41.0220   45.7790 C.2       1 PBD         0.0974
      9 CAI        25.8640   49.2000   48.2610 C.ar      1 PBD        -0.0166
     10 CAJ        25.6050   43.5860   48.0300 C.3       1 PBD        -0.0211
     11 CAK        24.2970   44.3000   48.4070 C.3       1 PBD        -0.0205
     12 CAL        25.3700   42.1360   47.5660 C.3       1 PBD         0.0586
     13 NAM        27.9820   40.7080   45.5690 N.2       1 PBD        -0.3302
     14 NAN        24.4690   45.7590   48.1980 N.2       1 PBD        -0.3604
     15 NAO        23.8160   47.9880   48.4750 N.pl3     1 PBD        -0.2411
     16 OAP        27.8670   49.8400   45.2420 O.3       1 PBD        -0.3319
     17 OAQ        27.9470   50.3890   47.9020 O.3       1 PBD        -0.3274
     18 CAR        23.6250   46.6720   48.6940 C.2       1 PBD         0.1706
     19 CAS        24.8090   48.4610   47.7210 C.ar      1 PBD         0.0511
     20 CAT        26.8550   49.3980   46.0490 C.ar      1 PBD         0.1083
     21 CAU        26.8890   49.6730   47.4230 C.ar      1 PBD         0.1113
     22 NAV        26.6200   41.6180   46.9530 N.pl3     1 PBD        -0.2521
     23 H1         28.3709   50.6236   43.3958 H         1 PBD         0.0569
     24 H2         26.7805   51.1377   44.0536 H         1 PBD         0.0569
     25 H3         26.9894   49.4756   43.4052 H         1 PBD         0.0569
     26 H4         28.8132   51.1324   49.6599 H         1 PBD         0.0573
     27 H5         27.9650   49.5578   49.8261 H         1 PBD         0.0573
     28 H6         27.0179   51.0741   49.6515 H         1 PBD         0.0573
     29 H7         21.7300   46.9562   49.9751 H         1 PBD         0.1373
     30 H8         29.7814   41.0935   46.7312 H         1 PBD         0.0444
     31 H9         23.9706   47.6326   45.9287 H         1 PBD         0.0422
     32 H10        25.7819   48.4292   44.4651 H         1 PBD         0.0484
     33 H11        28.1188   42.2303   48.4071 H         1 PBD         0.0860
     34 H12        25.8656   40.8216   45.1036 H         1 PBD         0.1215
     35 H13        25.8925   49.4085   49.3244 H         1 PBD         0.0434
     36 H14        26.2663   43.5728   48.9089 H         1 PBD         0.0295
     37 H15        26.0895   44.1435   47.2149 H         1 PBD         0.0295
     38 H16        24.0601   44.1036   49.4631 H         1 PBD         0.0305
     39 H17        23.4781   43.9301   47.7725 H         1 PBD         0.0305
     40 H18        24.5580   42.1127   46.8243 H         1 PBD         0.0625
     41 H19        25.0961   41.5119   48.4294 H         1 PBD         0.0625
     42 H20        23.1659   48.6585   48.9095 H         1 PBD         0.2220
@<TRIPOS>BOND
     1   16    1 1  
     2   17    2 1  
     3   18    3 1  
     4    7    4 2  
     5   13    4 1  
     6    5    6 ar 
     7   19    5 ar 
     8    6   20 ar 
     9   22    7 1  
    10    8   13 2  
    11   22    8 1  
    12    9   19 ar 
    13   21    9 ar 
    14   11   10 1  
    15   10   12 1  
    16   14   11 1  
    17   12   22 1  
    18   18   14 2  
    19   15   18 1  
    20   19   15 1  
    21   20   16 1  
    22   17   21 1  
    23   20   21 ar 
    24    1   23 1  
    25    1   24 1  
    26    1   25 1  
    27    2   26 1  
    28    2   27 1  
    29    2   28 1  
    30    3   29 1  
    31    4   30 1  
    32    5   31 1  
    33    6   32 1  
    34    7   33 1  
    35    8   34 1  
    36    9   35 1  
    37   10   36 1  
    38   10   37 1  
    39   11   38 1  
    40   11   39 1  
    41   12   40 1  
    42   12   41 1  
    43   15   42 1  
@<TRIPOS>SUBSTRUCTURE
     1 PBD         1

