### 
### Created by X-TOOL on Mon Sep 10 21:13:10 2018
### 

@<TRIPOS>MOLECULE
4fbx_ligand
   22    23     1     0     0
SMALL
GAST_HUCK


@<TRIPOS>ATOM
      1 BR1        16.3200   -6.2860   17.5920 Br        1 0TJ        -0.0498
      2 CAM        17.5620   -4.8680   18.1130 C.ar      1 0TJ         0.0282
      3 CAK        17.8830   -4.6590   19.4480 C.ar      1 0TJ         0.0205
      4 BR2        17.1210   -5.7640   20.8490 Br        1 0TJ        -0.0535
      5 CAL        18.7790   -3.6290   19.7930 C.ar      1 0TJ         0.0225
      6 BR3        19.2310   -3.3350   21.6460 Br        1 0TJ        -0.0512
      7 CAN        19.3510   -2.8100   18.8050 C.ar      1 0TJ         0.0501
      8 BR4        20.5750   -1.4210   19.4010 Br        1 0TJ        -0.0504
      9 CAP        19.0220   -3.0190   17.4380 C.ar      1 0TJ         0.1054
     10 CAO        18.1340   -4.0420   17.1010 C.ar      1 0TJ         0.0505
     11 NAI        17.9850   -4.0360   15.7300 N.2       1 0TJ        -0.3006
     12 CAG        18.7540   -3.0460   15.2320 C.2       1 0TJ         0.1116
     13 N          19.3970   -2.4240   16.2410 N.pl3     1 0TJ        -0.2127
     14 CA         20.2970   -1.2820   16.0630 C.3       1 0TJ         0.1470
     15 C          19.5670    0.0240   16.1060 C.2       1 0TJ         0.2039
     16 O          18.7960    0.3080   15.2030 O.2       1 0TJ        -0.3943
     17 NAA        19.7370    0.9160   17.1990 N.am      1 0TJ        -0.2986
     18 H1         18.8420   -2.7887   14.1775 H         1 0TJ         0.1375
     19 H2         20.7995   -1.3752   15.0890 H         1 0TJ         0.0855
     20 H3         21.0486   -1.2945   16.8661 H         1 0TJ         0.0855
     21 H4         19.2436    1.7856   17.2161 H         1 0TJ         0.1815
     22 H5         20.3500    0.6741   17.9511 H         1 0TJ         0.1815
@<TRIPOS>BOND
     1    1    2 1  
     2    2    3 ar 
     3    2   10 ar 
     4    3    4 1  
     5    3    5 ar 
     6    5    6 1  
     7    5    7 ar 
     8    7    8 1  
     9    7    9 ar 
    10    9   10 ar 
    11    9   13 1  
    12   10   11 1  
    13   11   12 2  
    14   12   13 1  
    15   13   14 1  
    16   14   15 1  
    17   15   16 2  
    18   15   17 am 
    19   12   18 1  
    20   14   19 1  
    21   14   20 1  
    22   17   21 1  
    23   17   22 1  
@<TRIPOS>SUBSTRUCTURE
     1 0TJ         1

