### 
### Created by X-TOOL on Mon Sep 10 21:13:19 2018
### 

@<TRIPOS>MOLECULE
4fc0_ligand
   64    68     1     0     0
SMALL
GAST_HUCK


@<TRIPOS>ATOM
      1 C1         45.6050  -37.9940    9.5760 C.3       1 0T2         0.0340
      2 N2         44.9200  -36.7000    9.6130 N.pl3     1 0T2        -0.2600
      3 C3         45.7550  -35.5860    9.5570 C.ar      1 0T2         0.0446
      4 C4         45.8910  -34.7970   10.6880 C.ar      1 0T2        -0.0559
      5 C5         46.7310  -33.7040   10.6740 C.ar      1 0T2        -0.0510
      6 C6         47.4480  -33.4110    9.5300 C.ar      1 0T2         0.1387
      7 F7         48.2670  -32.3430    9.5290 F         1 0T2        -0.2033
      8 C8         47.3300  -34.1950    8.3810 C.ar      1 0T2         0.0896
      9 N9         48.1150  -33.8550    7.2630 N.am      1 0T2        -0.2352
     10 C10        47.8800  -34.1490    5.9670 C.2       1 0T2         0.2290
     11 O11        46.8880  -34.7520    5.6190 O.2       1 0T2        -0.3736
     12 C12        48.8760  -33.7110    4.9620 C.ar      1 0T2         0.0608
     13 C13        50.2070  -34.1130    5.1080 C.ar      1 0T2        -0.0522
     14 C14        51.1610  -33.7240    4.1890 C.ar      1 0T2        -0.0648
     15 C15        50.8040  -32.9260    3.1130 C.ar      1 0T2        -0.0280
     16 C16        49.4810  -32.5240    2.9390 C.ar      1 0T2         0.1141
     17 O17        49.1300  -31.7280    1.8800 O.3       1 0T2        -0.2838
     18 C18        48.7670  -32.2290    0.5750 C.3       1 0T2         0.2070
     19 C19        49.6580  -33.3710    0.0640 C.3       1 0T2        -0.0067
     20 C20        48.8920  -31.0830   -0.4260 C.3       1 0T2        -0.0067
     21 C21        47.3520  -32.6380    0.5800 C.1       1 0T2         0.1300
     22 N22        46.2530  -32.9320    0.5620 N.1       1 0T2        -0.3000
     23 C23        48.5240  -32.9100    3.8700 C.ar      1 0T2         0.0883
     24 CL2        46.8840  -32.4100    3.6550 Cl        1 0T2        -0.0730
     25 C25        46.4900  -35.3050    8.4090 C.ar      1 0T2        -0.0210
     26 C26        43.5270  -36.6840    9.7620 C.ar      1 0T2         0.1182
     27 C27        42.7070  -35.5660    9.5720 C.ar      1 0T2        -0.0247
     28 C28        41.3490  -35.6720    9.7440 C.ar      1 0T2        -0.0537
     29 C29        40.7920  -36.9170   10.1350 C.ar      1 0T2         0.0218
     30 N30        39.5080  -37.2900   10.3840 N.2       1 0T2        -0.3099
     31 C31        39.2680  -38.5260   10.7160 C.2       1 0T2         0.2118
     32 N32        38.0450  -39.1070   11.0830 N.am      1 0T2        -0.1899
     33 C33        37.9420  -40.4280   11.3840 C.2       1 0T2         0.2205
     34 O34        38.9080  -41.1430   11.2820 O.2       1 0T2        -0.3785
     35 C35        36.6830  -41.1020   11.8810 C.3       1 0T2         0.0574
     36 C36        35.2970  -40.7690   11.3430 C.3       1 0T2        -0.0301
     37 C37        35.9800  -42.0890   10.9610 C.3       1 0T2        -0.0301
     38 S38        40.7930  -39.3830   10.7870 S.3       1 0T2         0.0437
     39 C39        41.6870  -37.9670   10.3070 C.ar      1 0T2         0.1037
     40 N40        42.9820  -37.8240   10.1170 N.ar      1 0T2        -0.2773
     41 H          46.6865  -37.8330    9.4554 H         1 0T2         0.0529
     42 H          45.2258  -38.5856    8.7297 H         1 0T2         0.0529
     43 H          45.4173  -38.5352   10.5151 H         1 0T2         0.0529
     44 H          45.3352  -35.0400   11.5864 H         1 0T2         0.0399
     45 H          46.8282  -33.0789   11.5543 H         1 0T2         0.0535
     46 H          48.9467  -33.3329    7.4518 H         1 0T2         0.2240
     47 H          50.4921  -34.7347    5.9490 H         1 0T2         0.0575
     48 H          52.1901  -34.0428    4.3088 H         1 0T2         0.0602
     49 H          51.5595  -32.6124    2.4017 H         1 0T2         0.0577
     50 H          49.3119  -33.6892   -0.9305 H         1 0T2         0.0283
     51 H          49.6014  -34.2202    0.7609 H         1 0T2         0.0283
     52 H          50.6988  -33.0215   -0.0045 H         1 0T2         0.0283
     53 H          48.6199  -31.4416   -1.4297 H         1 0T2         0.0283
     54 H          49.9291  -30.7166   -0.4363 H         1 0T2         0.0283
     55 H          48.2170  -30.2652   -0.1333 H         1 0T2         0.0283
     56 H          46.4088  -35.9479    7.5400 H         1 0T2         0.0399
     57 H          43.1444  -34.6155    9.2888 H         1 0T2         0.0558
     58 H          40.7084  -34.8126    9.5826 H         1 0T2         0.0626
     59 H          37.2269  -38.5334   11.1242 H         1 0T2         0.2442
     60 H          36.7961  -41.3267   12.9518 H         1 0T2         0.0546
     61 H          35.1738  -39.9750   10.5918 H         1 0T2         0.0294
     62 H          34.4284  -40.7733   12.0179 H         1 0T2         0.0294
     63 H          35.6011  -43.0409   11.3613 H         1 0T2         0.0294
     64 H          36.3464  -42.2425    9.9353 H         1 0T2         0.0294
@<TRIPOS>BOND
     1    1    2 1  
     2    2    3 1  
     3    2   26 1  
     4    3    4 ar 
     5    3   25 ar 
     6    4    5 ar 
     7    5    6 ar 
     8    6    7 1  
     9    6    8 ar 
    10    8    9 1  
    11    8   25 ar 
    12    9   10 am 
    13   10   11 2  
    14   10   12 1  
    15   12   13 ar 
    16   12   23 ar 
    17   13   14 ar 
    18   14   15 ar 
    19   15   16 ar 
    20   16   17 1  
    21   16   23 ar 
    22   17   18 1  
    23   18   19 1  
    24   18   20 1  
    25   18   21 1  
    26   21   22 3  
    27   23   24 1  
    28   26   27 ar 
    29   26   40 ar 
    30   27   28 ar 
    31   28   29 ar 
    32   29   30 1  
    33   29   39 ar 
    34   30   31 2  
    35   31   32 1  
    36   31   38 1  
    37   32   33 am 
    38   33   34 2  
    39   33   35 1  
    40   35   36 1  
    41   35   37 1  
    42   36   37 1  
    43   38   39 1  
    44   39   40 ar 
    45    1   41 1  
    46    1   42 1  
    47    1   43 1  
    48    4   44 1  
    49    5   45 1  
    50    9   46 1  
    51   13   47 1  
    52   14   48 1  
    53   15   49 1  
    54   19   50 1  
    55   19   51 1  
    56   19   52 1  
    57   20   53 1  
    58   20   54 1  
    59   20   55 1  
    60   25   56 1  
    61   27   57 1  
    62   28   58 1  
    63   32   59 1  
    64   35   60 1  
    65   36   61 1  
    66   36   62 1  
    67   37   63 1  
    68   37   64 1  
@<TRIPOS>SUBSTRUCTURE
     1 0T2         1

