### 
### Created by X-TOOL on Mon Sep 10 21:13:11 2018
### 

@<TRIPOS>MOLECULE
4fcb_ligand
   54    58     1     0     0
SMALL
GAST_HUCK


@<TRIPOS>ATOM
      1 C1         17.2610   -9.6020  -36.2400 C.3       1 0T7        -0.0630
      2 C2         17.6580  -10.2310  -34.9150 C.3       1 0T7        -0.0399
      3 C3         19.1130   -9.9130  -34.5660 C.3       1 0T7         0.0265
      4 C4         19.7040  -11.0500  -33.8050 C.2       1 0T7         0.1326
      5 N1         19.6640  -11.0670  -32.4880 N.2       1 0T7        -0.3129
      6 C5         20.2700  -12.2240  -32.0810 C.2       1 0T7         0.0132
      7 C6         20.6970  -12.9540  -33.1750 C.2       1 0T7         0.1198
      8 N2         20.3290  -12.1910  -34.2940 N.pl3     1 0T7        -0.2017
      9 C7         20.6270  -12.6660  -35.6070 C.ar      1 0T7         0.1012
     10 C8         20.3140  -12.0020  -36.7960 C.ar      1 0T7        -0.0370
     11 C9         20.6630  -12.5640  -38.0340 C.ar      1 0T7        -0.0409
     12 C10        21.3250  -13.7990  -38.1050 C.ar      1 0T7         0.0828
     13 C11        21.6360  -14.4640  -36.9170 C.ar      1 0T7        -0.0278
     14 C12        21.2980  -13.9090  -35.6710 C.ar      1 0T7         0.0361
     15 N3         21.6670  -14.6620  -34.5320 N.2       1 0T7        -0.3223
     16 C13        21.3890  -14.2230  -33.3460 C.2       1 0T7         0.0435
     17 C14        21.8260  -15.1040  -32.2090 C.3       1 0T7        -0.0079
     18 O1         21.6040  -14.2540  -39.3680 O.3       1 0T7        -0.3073
     19 C15        22.6720  -15.2010  -39.4860 C.3       1 0T7         0.1197
     20 C16        22.4320  -16.0350  -40.7110 C.ar      1 0T7         0.0570
     21 C17        22.8950  -15.5890  -41.9450 C.ar      1 0T7        -0.0251
     22 C18        22.6580  -16.3800  -43.0680 C.ar      1 0T7        -0.0375
     23 C19        21.9670  -17.5950  -42.9380 C.ar      1 0T7         0.0021
     24 C20        21.7130  -18.4200  -44.0520 C.ar      1 0T7        -0.0488
     25 C21        21.0250  -19.6240  -43.8890 C.ar      1 0T7        -0.0581
     26 C22        20.5920  -20.0080  -42.6240 C.ar      1 0T7        -0.0585
     27 C23        20.8490  -19.1880  -41.5160 C.ar      1 0T7        -0.0435
     28 C24        21.5300  -17.9790  -41.6420 C.ar      1 0T7         0.0363
     29 N4         21.7590  -17.2090  -40.5530 N.ar      1 0T7        -0.2978
     30 C25        20.3680  -12.4840  -30.6310 C.3       1 0T7        -0.0310
     31 H1         16.2123   -9.8479  -36.4629 H         1 0T7         0.0232
     32 H2         17.9072   -9.9929  -37.0397 H         1 0T7         0.0232
     33 H3         17.3760   -8.5099  -36.1765 H         1 0T7         0.0232
     34 H4         17.5359  -11.3220  -34.9848 H         1 0T7         0.0290
     35 H5         17.0048   -9.8389  -34.1216 H         1 0T7         0.0290
     36 H6         19.1514   -9.0017  -33.9512 H         1 0T7         0.0503
     37 H7         19.6856   -9.7551  -35.4919 H         1 0T7         0.0503
     38 H8         19.7993  -11.0486  -36.7622 H         1 0T7         0.0544
     39 H9         20.4175  -12.0362  -38.9484 H         1 0T7         0.0493
     40 H10        22.1446  -15.4205  -36.9565 H         1 0T7         0.0463
     41 H11        22.3239  -15.9994  -32.6094 H         1 0T7         0.0464
     42 H12        20.9472  -15.4056  -31.6201 H         1 0T7         0.0464
     43 H13        22.5266  -14.5517  -31.5655 H         1 0T7         0.0464
     44 H14        22.6961  -15.8467  -38.5958 H         1 0T7         0.0821
     45 H15        23.6308  -14.6700  -39.5800 H         1 0T7         0.0821
     46 H16        23.4274  -14.6487  -42.0310 H         1 0T7         0.0661
     47 H17        23.0074  -16.0568  -44.0419 H         1 0T7         0.0764
     48 H18        22.0522  -18.1194  -45.0367 H         1 0T7         0.0649
     49 H19        20.8287  -20.2580  -44.7461 H         1 0T7         0.0622
     50 H20        20.0559  -20.9412  -42.4948 H         1 0T7         0.0645
     51 H21        20.5091  -19.5028  -40.5360 H         1 0T7         0.0623
     52 H22        20.8763  -13.4452  -30.4644 H         1 0T7         0.0373
     53 H23        19.3583  -12.5230  -30.1964 H         1 0T7         0.0373
     54 H24        20.9425  -11.6776  -30.1519 H         1 0T7         0.0373
@<TRIPOS>BOND
     1    1    2 1  
     2    2    3 1  
     3    3    4 1  
     4    4    5 2  
     5    4    8 1  
     6    5    6 1  
     7    6    7 2  
     8    6   30 1  
     9    7    8 1  
    10    7   16 1  
    11    8    9 1  
    12    9   10 ar 
    13    9   14 ar 
    14   10   11 ar 
    15   11   12 ar 
    16   12   13 ar 
    17   12   18 1  
    18   13   14 ar 
    19   14   15 1  
    20   15   16 2  
    21   16   17 1  
    22   18   19 1  
    23   19   20 1  
    24   20   21 ar 
    25   20   29 ar 
    26   21   22 ar 
    27   22   23 ar 
    28   23   24 ar 
    29   23   28 ar 
    30   24   25 ar 
    31   25   26 ar 
    32   26   27 ar 
    33   27   28 ar 
    34   28   29 ar 
    35    1   31 1  
    36    1   32 1  
    37    1   33 1  
    38    2   34 1  
    39    2   35 1  
    40    3   36 1  
    41    3   37 1  
    42   10   38 1  
    43   11   39 1  
    44   13   40 1  
    45   17   41 1  
    46   17   42 1  
    47   17   43 1  
    48   19   44 1  
    49   19   45 1  
    50   21   46 1  
    51   22   47 1  
    52   24   48 1  
    53   25   49 1  
    54   26   50 1  
    55   27   51 1  
    56   30   52 1  
    57   30   53 1  
    58   30   54 1  
@<TRIPOS>SUBSTRUCTURE
     1 0T7         1

