### 
### Created by X-TOOL on Mon Sep 10 21:13:12 2018
### 

@<TRIPOS>MOLECULE
4fcd_ligand
   40    43     1     0     0
SMALL
GAST_HUCK


@<TRIPOS>ATOM
      1 C1         21.2100  -12.7090  -30.8710 C.3       1 0T6        -0.0301
      2 C2         20.9560  -12.0520  -32.1650 C.2       1 0T6         0.0333
      3 C3         21.3450  -12.4640  -33.4220 C.2       1 0T6         0.1902
      4 N1         22.0390  -13.5480  -33.8570 N.2       1 0T6        -0.1727
      5 N2         22.2950  -13.7470  -35.0730 N.2       1 0T6        -0.1990
      6 C4         21.8440  -12.8130  -36.0430 C.ar      1 0T6         0.1316
      7 C5         21.1110  -11.6600  -35.6720 C.ar      1 0T6         0.1183
      8 N3         20.8670  -11.5040  -34.2900 N.pl3     1 0T6        -0.1833
      9 C6         20.2100  -10.5450  -33.5220 C.2       1 0T6         0.1547
     10 N4         20.2600  -10.8740  -32.2410 N.2       1 0T6        -0.3085
     11 C7         19.5330   -9.3360  -33.9910 C.ar      1 0T6         0.0389
     12 C8         20.0210   -8.0580  -33.6560 C.ar      1 0T6        -0.0500
     13 C9         19.3590   -6.9090  -34.1100 C.ar      1 0T6        -0.0614
     14 C10        18.2040   -7.0200  -34.8930 C.ar      1 0T6        -0.0617
     15 C11        17.7040   -8.2840  -35.2250 C.ar      1 0T6        -0.0476
     16 C12        18.3680   -9.4360  -34.7710 C.ar      1 0T6         0.0519
     17 CL1        17.7450  -10.9990  -35.1970 Cl        1 0T6        -0.0692
     18 C13        20.6810  -10.7560  -36.6380 C.ar      1 0T6        -0.0018
     19 C14        20.9660  -10.9680  -37.9870 C.ar      1 0T6         0.0839
     20 C15        21.6890  -12.1130  -38.3750 C.ar      1 0T6        -0.0031
     21 C16        22.1360  -13.0410  -37.4070 C.ar      1 0T6         0.1146
     22 O1         22.8560  -14.1960  -37.6620 O.3       1 0T6        -0.3181
     23 C17        23.5150  -14.3730  -38.9160 C.3       1 0T6         0.0609
     24 O2         20.4520   -9.9620  -38.7680 O.3       1 0T6        -0.3221
     25 C18        20.7630   -9.9050  -40.1540 C.3       1 0T6         0.0604
     26 H          20.7686  -13.7056  -30.8781 H         1 0T6         0.0362
     27 H          22.2851  -12.7876  -30.7097 H         1 0T6         0.0362
     28 H          20.7635  -12.1182  -30.0712 H         1 0T6         0.0362
     29 H          20.9163   -7.9622  -33.0417 H         1 0T6         0.0624
     30 H          19.7458   -5.9232  -33.8518 H         1 0T6         0.0617
     31 H          17.6945   -6.1225  -35.2438 H         1 0T6         0.0614
     32 H          16.8038   -8.3745  -35.8329 H         1 0T6         0.0622
     33 H          20.1159   -9.8735  -36.3379 H         1 0T6         0.0420
     34 H          21.9053  -12.2846  -39.4294 H         1 0T6         0.0432
     35 H          22.7790  -14.3419  -39.7194 H         1 0T6         0.0581
     36 H          24.2436  -13.5749  -39.0579 H         1 0T6         0.0581
     37 H          24.0238  -15.3369  -38.9248 H         1 0T6         0.0581
     38 H          21.8416   -9.8102  -40.2794 H         1 0T6         0.0580
     39 H          20.4182  -10.8176  -40.6403 H         1 0T6         0.0580
     40 H          20.2668   -9.0437  -40.6013 H         1 0T6         0.0580
@<TRIPOS>BOND
     1    1    2 1  
     2    2    3 2  
     3    2   10 1  
     4    3    4 1  
     5    3    8 1  
     6    4    5 2  
     7    5    6 1  
     8    6    7 ar 
     9    6   21 ar 
    10    7    8 1  
    11    7   18 ar 
    12    8    9 1  
    13    9   10 2  
    14    9   11 1  
    15   11   12 ar 
    16   11   16 ar 
    17   12   13 ar 
    18   13   14 ar 
    19   14   15 ar 
    20   15   16 ar 
    21   16   17 1  
    22   18   19 ar 
    23   19   20 ar 
    24   19   24 1  
    25   20   21 ar 
    26   21   22 1  
    27   22   23 1  
    28   24   25 1  
    29    1   26 1  
    30    1   27 1  
    31    1   28 1  
    32   12   29 1  
    33   13   30 1  
    34   14   31 1  
    35   15   32 1  
    36   18   33 1  
    37   20   34 1  
    38   23   35 1  
    39   23   36 1  
    40   23   37 1  
    41   25   38 1  
    42   25   39 1  
    43   25   40 1  
@<TRIPOS>SUBSTRUCTURE
     1 0T6         1

