### 
### Created by X-TOOL on Fri Sep 26 17:34:53 2014
### 

@<TRIPOS>MOLECULE
4fcf_ligand
   79    81     1     0     0
SMALL
GAST_HUCK


@<TRIPOS>ATOM
      1 C1         35.7500   25.2970    2.2420 C.3       1 MA4         0.1884
      2 C2         36.2950   24.6490    0.9940 C.3       1 MA4         0.1341
      3 C3         36.0170   23.1560    0.9360 C.3       1 MA4         0.1141
      4 C4         36.3770   22.4510    2.2240 C.3       1 MA4         0.1119
      5 C5         35.8360   23.1920    3.4420 C.3       1 MA4         0.1130
      6 C6         36.3300   22.5910    4.7570 C.3       1 MA4         0.0730
      7 O2         35.7180   25.3060   -0.1050 O.3       1 MA4        -0.3841
      8 O3         36.7390   22.6180   -0.1800 O.3       1 MA4        -0.3864
      9 O5         36.1910   24.5820    3.3940 O.3       1 MA4        -0.3405
     10 O6         37.7640   22.5890    4.7500 O.3       1 MA4        -0.3924
     11 O1         34.3250   25.2540    2.2030 O.3       1 MA4        -0.3401
     12 O4         35.8450   21.1480    2.2500 O.3       1 MA4        -0.3865
     13 C10        31.0590   27.6620    2.7180 C.3       1 MA4         0.1879
     14 C20        31.8770   27.9800    1.4810 C.3       1 MA4         0.1341
     15 C30        32.7680   26.7760    1.2120 C.3       1 MA4         0.1144
     16 C40        33.6300   26.4970    2.4350 C.3       1 MA4         0.1184
     17 C50        32.8120   26.3170    3.6940 C.3       1 MA4         0.1134
     18 C60        33.6510   26.2600    4.9310 C.3       1 MA4         0.0730
     19 O10        30.2850   28.7870    3.0290 O.3       1 MA4        -0.3487
     20 O20        31.0360   28.2530    0.3720 O.3       1 MA4        -0.3841
     21 O30        33.5890   27.0980    0.1200 O.3       1 MA4        -0.3864
     22 O50        31.9700   27.4900    3.8280 O.3       1 MA4        -0.3405
     23 O60        34.4730   27.4390    4.9560 O.3       1 MA4        -0.3924
     24 C11        29.2930   28.4900    4.0560 C.3       1 MA4         0.0508
     25 C21        28.0020   28.2210    3.3690 C.3       1 MA4        -0.0294
     26 C31        26.9230   27.7940    4.3630 C.3       1 MA4        -0.0510
     27 C41        25.4980   28.1550    3.8540 C.3       1 MA4        -0.0530
     28 C51        24.3470   27.4510    4.5190 C.3       1 MA4        -0.0528
     29 C61        24.4270   27.3760    6.0360 C.3       1 MA4        -0.0502
     30 C12        23.1180   27.0760    6.7280 C.3       1 MA4        -0.0410
     31 C22        23.0700   28.0390    7.9400 C.3       1 MA4        -0.0502
     32 C32        22.4570   27.5260    9.2370 C.3       1 MA4        -0.0528
     33 C42        21.6140   26.3010    9.0040 C.3       1 MA4        -0.0530
     34 C52        22.5180   25.2380    8.4390 C.3       1 MA4        -0.0528
     35 C62        23.1190   25.5940    7.1140 C.3       1 MA4        -0.0502
     36 H1         36.0931   26.3406    2.2975 H         1 MA4         0.0938
     37 H2         37.3851   24.7937    0.9685 H         1 MA4         0.0671
     38 H3         34.9408   23.0083    0.7627 H         1 MA4         0.0648
     39 H4         37.4733   22.3958    2.2947 H         1 MA4         0.0647
     40 H5         34.7390   23.1136    3.4221 H         1 MA4         0.0647
     41 H6         35.9587   21.5603    4.8558 H         1 MA4         0.0584
     42 H7         35.9646   23.1949    5.6007 H         1 MA4         0.0584
     43 H8         34.7781   25.1682   -0.0972 H         1 MA4         0.2101
     44 H9         36.4897   23.0822   -0.9705 H         1 MA4         0.2100
     45 H10        38.0804   23.4805    4.6625 H         1 MA4         0.2095
     46 H11        36.1660   20.6611    1.5001 H         1 MA4         0.2100
     47 H12        30.4346   26.7697    2.5634 H         1 MA4         0.0937
     48 H13        32.5038   28.8633    1.6731 H         1 MA4         0.0671
     49 H14        32.1547   25.8930    0.9793 H         1 MA4         0.0648
     50 H15        34.3456   27.3206    2.5749 H         1 MA4         0.0651
     51 H16        32.2049   25.4033    3.6129 H         1 MA4         0.0647
     52 H17        34.2852   25.3614    4.9125 H         1 MA4         0.0584
     53 H18        33.0051   26.2347    5.8210 H         1 MA4         0.0584
     54 H19        31.5704   28.4352   -0.3920 H         1 MA4         0.2101
     55 H20        34.1708   26.3696   -0.0630 H         1 MA4         0.2100
     56 H21        33.9184   28.2102    4.9675 H         1 MA4         0.2095
     57 H22        29.1854   29.3499    4.7335 H         1 MA4         0.0561
     58 H23        29.6027   27.6057    4.6322 H         1 MA4         0.0561
     59 H24        28.1487   27.4175    2.6322 H         1 MA4         0.0287
     60 H25        27.6729   29.1354    2.8537 H         1 MA4         0.0287
     61 H26        27.0991   28.3040    5.3216 H         1 MA4         0.0266
     62 H27        26.9841   26.7056    4.5100 H         1 MA4         0.0266
     63 H28        25.4576   27.9198    2.7802 H         1 MA4         0.0265
     64 H29        25.3561   29.2362    3.9981 H         1 MA4         0.0265
     65 H30        24.3045   26.4235    4.1287 H         1 MA4         0.0265
     66 H31        23.4219   27.9831    4.2524 H         1 MA4         0.0265
     67 H32        24.7956   28.3437    6.4070 H         1 MA4         0.0268
     68 H33        25.1432   26.5845    6.3017 H         1 MA4         0.0268
     69 H34        22.2660   27.2755    6.0615 H         1 MA4         0.0301
     70 H35        22.4925   28.9233    7.6326 H         1 MA4         0.0268
     71 H36        24.1053   28.3364    8.1627 H         1 MA4         0.0268
     72 H37        21.8266   28.3160    9.6710 H         1 MA4         0.0265
     73 H38        23.2655   27.2748    9.9393 H         1 MA4         0.0265
     74 H39        20.8082   26.5284    8.2905 H         1 MA4         0.0265
     75 H40        21.1771   25.9582    9.9535 H         1 MA4         0.0265
     76 H41        21.9328   24.3146    8.3170 H         1 MA4         0.0265
     77 H42        23.3353   25.0624    9.1540 H         1 MA4         0.0265
     78 H43        24.1649   25.2533    7.1213 H         1 MA4         0.0268
     79 H44        22.5610   25.0484    6.3388 H         1 MA4         0.0268
@<TRIPOS>BOND
     1    1    2 1  
     2    1    9 1  
     3   11    1 1  
     4    2    3 1  
     5    2    7 1  
     6    3    4 1  
     7    3    8 1  
     8    5    4 1  
     9    4   12 1  
    10    5    6 1  
    11    9    5 1  
    12    6   10 1  
    13   16   11 1  
    14   14   13 1  
    15   13   19 1  
    16   13   22 1  
    17   15   14 1  
    18   14   20 1  
    19   15   16 1  
    20   15   21 1  
    21   16   17 1  
    22   17   18 1  
    23   17   22 1  
    24   18   23 1  
    25   19   24 1  
    26   24   25 1  
    27   25   26 1  
    28   26   27 1  
    29   27   28 1  
    30   28   29 1  
    31   29   30 1  
    32   30   31 1  
    33   30   35 1  
    34   31   32 1  
    35   32   33 1  
    36   33   34 1  
    37   34   35 1  
    38    1   36 1  
    39    2   37 1  
    40    3   38 1  
    41    4   39 1  
    42    5   40 1  
    43    6   41 1  
    44    6   42 1  
    45    7   43 1  
    46    8   44 1  
    47   10   45 1  
    48   12   46 1  
    49   13   47 1  
    50   14   48 1  
    51   15   49 1  
    52   16   50 1  
    53   17   51 1  
    54   18   52 1  
    55   18   53 1  
    56   20   54 1  
    57   21   55 1  
    58   23   56 1  
    59   24   57 1  
    60   24   58 1  
    61   25   59 1  
    62   25   60 1  
    63   26   61 1  
    64   26   62 1  
    65   27   63 1  
    66   27   64 1  
    67   28   65 1  
    68   28   66 1  
    69   29   67 1  
    70   29   68 1  
    71   30   69 1  
    72   31   70 1  
    73   31   71 1  
    74   32   72 1  
    75   32   73 1  
    76   33   74 1  
    77   33   75 1  
    78   34   76 1  
    79   34   77 1  
    80   35   78 1  
    81   35   79 1  
@<TRIPOS>SUBSTRUCTURE
     1 MA4         1

