### 
### Created by X-TOOL on Mon Sep 10 21:13:12 2018
### 

@<TRIPOS>MOLECULE
4fci_ligand
   21    20     1     0     0
SMALL
GAST_HUCK


@<TRIPOS>ATOM
      1 N          20.6610  -18.1170    4.1310 N.4       1 GPA         0.2352
      2 CA         21.1210  -17.7990    5.5160 C.3       1 GPA         0.0619
      3 C          20.3240  -16.6100    5.9870 C.2       1 GPA         0.0879
      4 OA1        20.0570  -16.2100    7.1270 O.co2     1 GPA        -0.5642
      5 OA2        19.8450  -15.8960    4.7900 O.co2     1 GPA        -0.5642
      6 CD         22.6340  -17.4680    5.4430 C.3       1 GPA         0.1172
      7 NE         23.0110  -16.1050    4.9910 N.pl3     1 GPA        -0.2656
      8 CZ         24.0470  -15.3560    5.5630 C.cat     1 GPA         0.2885
      9 NH1        24.8470  -15.8090    6.5290 N.pl3     1 GPA        -0.2849
     10 NH2        24.2500  -14.0500    5.0850 N.pl3     1 GPA        -0.2849
     11 H          19.6657  -18.3396    4.1473 H         1 GPA         0.2011
     12 H          20.8203  -17.3103    3.5275 H         1 GPA         0.2011
     13 H          21.1839  -18.9175    3.7757 H         1 GPA         0.2011
     14 H          20.9753  -18.6269    6.2099 H         1 GPA         0.1060
     15 H          23.0502  -18.1505    4.7020 H         1 GPA         0.0766
     16 H          23.0046  -17.5535    6.4645 H         1 GPA         0.0766
     17 H          22.4861  -15.6909    4.2207 H         1 GPA         0.2645
     18 H          25.5843  -15.2114    6.9027 H         1 GPA         0.2615
     19 H          24.7216  -16.7531    6.8942 H         1 GPA         0.2615
     20 H          24.9949  -13.4736    5.4765 H         1 GPA         0.2615
     21 H          23.6524  -13.6785    4.3466 H         1 GPA         0.2615
@<TRIPOS>BOND
     1    1    2 1  
     2    2    3 1  
     3    2    6 1  
     4    3    4 ar 
     5    3    5 ar 
     6    6    7 1  
     7    7    8 ar 
     8    8    9 ar 
     9    8   10 ar 
    10    1   11 1  
    11    1   12 1  
    12    1   13 1  
    13    2   14 1  
    14    6   15 1  
    15    6   16 1  
    16    7   17 1  
    17    9   18 1  
    18    9   19 1  
    19   10   20 1  
    20   10   21 1  
@<TRIPOS>SUBSTRUCTURE
     1 GPA         1

