### 
### Created by X-TOOL on Mon Sep 10 21:13:12 2018
### 

@<TRIPOS>MOLECULE
4fck_ligand
   21    20     1     0     0
SMALL
GAST_HUCK


@<TRIPOS>ATOM
      1 N          25.8790   -9.2960   -3.9350 N.4       1 GPA         0.2352
      2 CA         25.6360   -9.3620   -5.3640 C.3       1 GPA         0.0619
      3 C          24.1500   -9.2060   -5.6600 C.2       1 GPA         0.0879
      4 OA1        23.2320   -9.0550   -4.8560 O.co2     1 GPA        -0.5642
      5 OA2        23.9030   -9.2250   -6.9860 O.co2     1 GPA        -0.5642
      6 CD         26.1190  -10.7150   -5.9690 C.3       1 GPA         0.1172
      7 NE         25.4250  -11.8170   -5.3020 N.pl3     1 GPA        -0.2656
      8 CZ         25.4660  -13.0920   -5.9130 C.cat     1 GPA         0.2885
      9 NH1        24.5950  -14.0060   -5.3170 N.pl3     1 GPA        -0.2849
     10 NH2        26.1830  -13.5100   -6.9200 N.pl3     1 GPA        -0.2849
     11 H          25.5508   -8.3992   -3.5766 H         1 GPA         0.2011
     12 H          25.3775  -10.0532   -3.4707 H         1 GPA         0.2011
     13 H          26.8790   -9.3893   -3.7567 H         1 GPA         0.2011
     14 H          26.1996   -8.5475   -5.8191 H         1 GPA         0.1060
     15 H          27.1941  -10.8179   -5.8217 H         1 GPA         0.0766
     16 H          25.8986  -10.7372   -7.0363 H         1 GPA         0.0766
     17 H          24.9272  -11.6703   -4.4239 H         1 GPA         0.2645
     18 H          24.5368  -14.9607   -5.6714 H         1 GPA         0.2615
     19 H          24.0169  -13.7191   -4.5272 H         1 GPA         0.2615
     20 H          26.0949  -14.4732   -7.2438 H         1 GPA         0.2615
     21 H          26.8316  -12.8735   -7.3833 H         1 GPA         0.2615
@<TRIPOS>BOND
     1    1    2 1  
     2    2    3 1  
     3    2    6 1  
     4    3    4 ar 
     5    3    5 ar 
     6    6    7 1  
     7    7    8 ar 
     8    8    9 ar 
     9    8   10 ar 
    10    1   11 1  
    11    1   12 1  
    12    1   13 1  
    13    2   14 1  
    14    6   15 1  
    15    6   16 1  
    16    7   17 1  
    17    9   18 1  
    18    9   19 1  
    19   10   20 1  
    20   10   21 1  
@<TRIPOS>SUBSTRUCTURE
     1 GPA         1

