### 
### Created by X-TOOL on Mon Sep 10 21:13:15 2018
### 

@<TRIPOS>MOLECULE
4fcm_ligand
   72    73     1     0     0
SMALL
GAST_HUCK


@<TRIPOS>ATOM
      1 N         -17.4010   11.6710  -11.8220 N.4       1 SER         0.2396
      2 CA        -16.7500   12.2730  -10.6640 C.3       1 SER         0.0884
      3 C         -15.2990   12.6470  -10.9590 C.2       1 SER         0.2288
      4 O         -14.5450   11.8560  -11.5260 O.2       1 SER        -0.3906
      5 CB        -16.8220   11.3330   -9.4590 C.3       1 SER         0.1041
      6 OG        -15.9860   11.7850   -8.4070 O.3       1 SER        -0.3870
      7 N         -14.9200   13.8600  -10.5690 N.am      1 GLY        -0.2636
      8 CA        -13.5720   14.3550  -10.7790 C.3       1 GLY         0.1202
      9 C         -13.3880   15.7320  -10.1700 C.2       1 GLY         0.2009
     10 O         -14.1080   16.1090   -9.2460 O.2       1 GLY        -0.3947
     11 N         -12.4220   16.4870  -10.6830 N.am      1 PHE        -0.2622
     12 CA        -12.2030   17.8510  -10.2140 C.3       1 PHE         0.1404
     13 C         -12.9300   18.8330  -11.1280 C.2       1 PHE         0.2060
     14 O         -13.1670   18.5410  -12.3010 O.2       1 PHE        -0.3942
     15 CB        -10.7060   18.1680  -10.1290 C.3       1 PHE         0.0214
     16 CG        -10.1460   18.8210  -11.3610 C.ar      1 PHE        -0.0386
     17 CD1        -9.8310   20.1700  -11.3600 C.ar      1 PHE        -0.0601
     18 CD2        -9.9300   18.0880  -12.5150 C.ar      1 PHE        -0.0601
     19 CE1        -9.3140   20.7760  -12.4880 C.ar      1 PHE        -0.0686
     20 CE2        -9.4140   18.6900  -13.6470 C.ar      1 PHE        -0.0686
     21 CZ         -9.1060   20.0360  -13.6330 C.ar      1 PHE        -0.0687
     22 N         -13.2850   19.9940  -10.5900 N.am      1 SER        -0.2614
     23 CA        -14.1470   20.9270  -11.3070 C.3       1 SER         0.1539
     24 C         -13.4480   22.2220  -11.7140 C.2       1 SER         0.2058
     25 O         -12.3660   22.5420  -11.2210 O.2       1 SER        -0.3943
     26 CB        -15.3870   21.2450  -10.4680 C.3       1 SER         0.0843
     27 OG        -16.1250   20.0680  -10.1890 O.3       1 SER        -0.3903
     28 N         -14.0830   22.9610  -12.6190 N.am      1 PHE        -0.2676
     29 CA        -13.5550   24.2380  -13.0830 C.3       1 PHE         0.1039
     30 C         -14.6820   25.2100  -13.4160 C.2       1 PHE         0.0621
     31 O         -14.4804   26.4537  -13.4303 O.co2     1 PHE        -0.5664
     32 CB        -12.6590   24.0360  -14.3050 C.3       1 PHE         0.0159
     33 CG        -11.3020   24.6590  -14.1670 C.ar      1 PHE        -0.0392
     34 CD1       -10.2580   23.9490  -13.6030 C.ar      1 PHE        -0.0602
     35 CD2       -11.0720   25.9570  -14.5930 C.ar      1 PHE        -0.0602
     36 CE1        -9.0110   24.5170  -13.4700 C.ar      1 PHE        -0.0686
     37 CE2        -9.8220   26.5320  -14.4620 C.ar      1 PHE        -0.0686
     38 CZ         -8.7910   25.8110  -13.8990 C.ar      1 PHE        -0.0687
     39 O         -15.8302   24.7635  -13.6804 O.co2     1 PHE        -0.5664
     40 H1        -18.3537   11.4387  -11.5888 H         1 SER         0.2016
     41 H2        -16.9066   10.8338  -12.0880 H         1 SER         0.2016
     42 H3        -17.3927   12.3244  -12.5895 H         1 SER         0.2016
     43 H4        -17.2933   13.1958  -10.4126 H         1 SER         0.1122
     44 H5        -16.4988   10.3280   -9.7678 H         1 SER         0.0640
     45 H6        -17.8605   11.2897   -9.0989 H         1 SER         0.0640
     46 H7        -15.0869   11.8205   -8.7115 H         1 SER         0.2099
     47 H8        -15.5865   14.4516  -10.1154 H         1 GLY         0.1882
     48 H9        -13.3759   14.4124  -11.8598 H         1 GLY         0.0763
     49 H10       -12.8585   13.6593  -10.3133 H         1 GLY         0.0763
     50 H11       -11.8357   16.1141  -11.4022 H         1 PHE         0.1885
     51 H12       -12.6277   17.9420   -9.2034 H         1 PHE         0.0823
     52 H13       -10.1627   17.2267   -9.9598 H         1 PHE         0.0474
     53 H14       -10.5438   18.8434   -9.2761 H         1 PHE         0.0474
     54 H15        -9.9923   20.7569  -10.4630 H         1 PHE         0.0557
     55 H16       -10.1681   17.0306  -12.5311 H         1 PHE         0.0557
     56 H17        -9.0718   21.8325  -12.4735 H         1 PHE         0.0599
     57 H18        -9.2511   18.1058  -14.5455 H         1 PHE         0.0599
     58 H19        -8.7016   20.5099  -14.5201 H         1 PHE         0.0559
     59 H20       -12.9554   20.2330   -9.6766 H         1 SER         0.1884
     60 H21       -14.4767   20.4271  -12.2297 H         1 SER         0.0823
     61 H22       -16.0263   21.9478  -11.0224 H         1 SER         0.0606
     62 H23       -15.0719   21.7055   -9.5200 H         1 SER         0.0606
     63 H24       -16.8881   20.2900   -9.6684 H         1 SER         0.2097
     64 H25       -14.9496   22.6304  -12.9928 H         1 PHE         0.1877
     65 H26       -12.9490   24.6741  -12.2752 H         1 PHE         0.0749
     66 H27       -13.1579   24.4805  -15.1788 H         1 PHE         0.0467
     67 H28       -12.5303   22.9556  -14.4665 H         1 PHE         0.0467
     68 H29       -10.4234   22.9335  -13.2617 H         1 PHE         0.0557
     69 H30       -11.8812   26.5279  -15.0339 H         1 PHE         0.0557
     70 H31        -8.2011   23.9479  -13.0281 H         1 PHE         0.0599
     71 H32        -9.6529   27.5476  -14.8012 H         1 PHE         0.0599
     72 H33        -7.8095   26.2588  -13.7932 H         1 PHE         0.0559
@<TRIPOS>BOND
     1    1    2 1  
     2    2    3 1  
     3    2    5 1  
     4    3    4 2  
     5    3    7 am 
     6    5    6 1  
     7    7    8 1  
     8    8    9 1  
     9    9   10 2  
    10    9   11 am 
    11   11   12 1  
    12   12   13 1  
    13   12   15 1  
    14   13   14 2  
    15   13   22 am 
    16   15   16 1  
    17   16   17 ar 
    18   16   18 ar 
    19   17   19 ar 
    20   18   20 ar 
    21   19   21 ar 
    22   20   21 ar 
    23   22   23 1  
    24   23   24 1  
    25   23   26 1  
    26   24   25 2  
    27   24   28 am 
    28   26   27 1  
    29   28   29 1  
    30   29   30 1  
    31   29   32 1  
    32   30   31 ar 
    33   32   33 1  
    34   33   34 ar 
    35   33   35 ar 
    36   34   36 ar 
    37   35   37 ar 
    38   36   38 ar 
    39   37   38 ar 
    40   30   39 ar 
    41    1   40 1  
    42    1   41 1  
    43    1   42 1  
    44    2   43 1  
    45    5   44 1  
    46    5   45 1  
    47    6   46 1  
    48    7   47 1  
    49    8   48 1  
    50    8   49 1  
    51   11   50 1  
    52   12   51 1  
    53   15   52 1  
    54   15   53 1  
    55   17   54 1  
    56   18   55 1  
    57   19   56 1  
    58   20   57 1  
    59   21   58 1  
    60   22   59 1  
    61   23   60 1  
    62   26   61 1  
    63   26   62 1  
    64   27   63 1  
    65   28   64 1  
    66   29   65 1  
    67   32   66 1  
    68   32   67 1  
    69   34   68 1  
    70   35   69 1  
    71   36   70 1  
    72   37   71 1  
    73   38   72 1  
@<TRIPOS>SUBSTRUCTURE
     1 SER         1

