### 
### Created by X-TOOL on Mon Sep 10 21:13:10 2018
### 

@<TRIPOS>MOLECULE
4fcq_ligand
   35    37     1     0     0
SMALL
GAST_HUCK


@<TRIPOS>ATOM
      1 C19        32.8040   13.4700   24.3610 C.3       1 2N6        -0.0292
      2 C17        33.5560   12.1200   24.1830 C.ar      1 2N6        -0.0372
      3 C16        34.9050   12.2220   23.8690 C.ar      1 2N6        -0.0540
      4 C15        35.6920   11.0880   23.6760 C.ar      1 2N6        -0.0483
      5 C18        37.1840   11.2220   23.2850 C.3       1 2N6        -0.0306
      6 C14        35.1260    9.8340   23.8150 C.ar      1 2N6        -0.0622
      7 C13        33.8090    9.7080   24.1660 C.ar      1 2N6        -0.0604
      8 C5         32.9980   10.8350   24.3190 C.ar      1 2N6        -0.0018
      9 C4         31.6890   10.6050   24.7470 C.ar      1 2N6         0.0457
     10 C8         30.5210   10.9430   24.0760 C.ar      1 2N6         0.0534
     11 N1         31.5500   10.0500   25.9750 N.ar      1 2N6        -0.2738
     12 C2         30.3250    9.8160   26.5520 C.ar      1 2N6         0.1411
     13 S6         30.1770    9.0140   28.1200 S.3       1 2N6        -0.0681
     14 C7         31.3040    7.5960   27.9840 C.3       1 2N6         0.0005
     15 N3         29.2090   10.1460   25.9140 N.ar      1 2N6        -0.2494
     16 C9         29.2950   10.6750   24.6810 C.ar      1 2N6         0.1501
     17 N10        28.3600   11.0710   23.8550 N.pl3     1 2N6        -0.2429
     18 C11        28.9140   11.5820   22.7500 C.2       1 2N6         0.0787
     19 C12        30.2340   11.5330   22.8490 C.2       1 2N6         0.1077
     20 C20        31.2310   11.9690   21.9060 C.1       1 2N6         0.0624
     21 N21        32.0500   12.2700   21.1850 N.1       1 2N6        -0.3632
     22 H1         33.5018   14.3034   24.1922 H         1 2N6         0.0404
     23 H2         32.3987   13.5322   25.3817 H         1 2N6         0.0404
     24 H3         31.9798   13.5292   23.6349 H         1 2N6         0.0404
     25 H4         35.3549   13.2034   23.7721 H         1 2N6         0.0506
     26 H5         37.6270   10.2206   23.1804 H         1 2N6         0.0400
     27 H6         37.7194   11.7798   24.0674 H         1 2N6         0.0400
     28 H7         37.2657   11.7607   22.3294 H         1 2N6         0.0400
     29 H8         35.7272    8.9480   23.6455 H         1 2N6         0.0516
     30 H9         33.3901    8.7213   24.3273 H         1 2N6         0.0621
     31 H10        31.2859    7.0220   28.9222 H         1 2N6         0.0372
     32 H11        32.3258    7.9565   27.7944 H         1 2N6         0.0372
     33 H12        30.9828    6.9507   27.1531 H         1 2N6         0.0372
     34 H13        27.3475   10.9997   24.0300 H         1 2N6         0.2426
     35 H14        28.3633   11.9782   21.8981 H         1 2N6         0.1222
@<TRIPOS>BOND
     1    1    2 1  
     2    2    3 ar 
     3    2    8 ar 
     4    3    4 ar 
     5    4    5 1  
     6    4    6 ar 
     7    6    7 ar 
     8    7    8 ar 
     9    8    9 1  
    10    9   10 ar 
    11    9   11 ar 
    12   10   16 ar 
    13   10   19 1  
    14   11   12 ar 
    15   12   13 1  
    16   12   15 ar 
    17   13   14 1  
    18   15   16 ar 
    19   16   17 1  
    20   17   18 1  
    21   18   19 2  
    22   19   20 1  
    23   20   21 3  
    24    1   22 1  
    25    1   23 1  
    26    1   24 1  
    27    3   25 1  
    28    5   26 1  
    29    5   27 1  
    30    5   28 1  
    31    6   29 1  
    32    7   30 1  
    33   14   31 1  
    34   14   32 1  
    35   14   33 1  
    36   17   34 1  
    37   18   35 1  
@<TRIPOS>SUBSTRUCTURE
     1 2N6         1

