### 
### Created by X-TOOL on Mon Sep 10 21:13:09 2018
### 

@<TRIPOS>MOLECULE
4fcr_ligand
   47    49     1     0     0
SMALL
GAST_HUCK


@<TRIPOS>ATOM
      1 C14        33.7080    6.8120   23.3140 C.3       1 0TM         0.0571
      2 O1         34.5290    8.0390   23.4290 O.3       1 0TM        -0.3235
      3 C5         33.9090    9.2400   23.6870 C.ar      1 0TM         0.1249
      4 C4         32.5500    9.3130   24.1570 C.ar      1 0TM        -0.0272
      5 C6         34.6450   10.3860   23.5940 C.ar      1 0TM         0.1260
      6 O2         35.9770   10.2050   23.1870 O.3       1 0TM        -0.3210
      7 C17        36.8800   11.3040   23.5660 C.3       1 0TM         0.0584
      8 C1         34.0560   11.6540   23.8290 C.ar      1 0TM        -0.0213
      9 C2         32.7260   11.7650   24.2920 C.ar      1 0TM         0.0351
     10 CL         32.0790   13.3370   24.5680 Cl        1 0TM        -0.0781
     11 C3         31.9540   10.5820   24.3950 C.ar      1 0TM        -0.0037
     12 C7         30.6010   10.6430   24.8550 C.ar      1 0TM         0.0441
     13 N1         30.3680   10.0530   26.0640 N.ar      1 0TM        -0.2730
     14 C9         29.4930   11.2190   24.1580 C.ar      1 0TM         0.0539
     15 C12        29.2700   11.8060   22.9640 C.2       1 0TM         0.1080
     16 C13        30.2750   12.1150   21.9420 C.1       1 0TM         0.0625
     17 N4         31.0660   12.3440   21.1290 N.1       1 0TM        -0.3632
     18 C11        27.9580   12.1200   22.8970 C.2       1 0TM         0.0789
     19 N3         27.2600   11.7010   23.9620 N.pl3     1 0TM        -0.2427
     20 C10        28.2070   11.1480   24.7550 C.ar      1 0TM         0.1507
     21 N2         28.0580   10.5280   25.8990 N.ar      1 0TM        -0.2485
     22 C8         29.1330   10.0330   26.6150 C.ar      1 0TM         0.1444
     23 S          28.6680    9.3340   28.1170 S.3       1 0TM        -0.0427
     24 C15        30.1300    8.3530   28.6000 C.3       1 0TM         0.1017
     25 C16        30.4430    7.1670   27.6730 C.2       1 0TM         0.1908
     26 O3         29.6090    6.8190   26.8410 O.2       1 0TM        -0.3958
     27 N5         31.6430    6.5510   27.8330 N.am      1 0TM        -0.2785
     28 C18        32.6120    6.9750   28.8670 C.3       1 0TM         0.0223
     29 C19        31.9860    5.4220   26.9630 C.3       1 0TM         0.0223
     30 H          33.1719    6.6462   24.2485 H         1 0TM         0.0573
     31 H          32.9932    6.9296   22.4995 H         1 0TM         0.0573
     32 H          34.3567    5.9602   23.1097 H         1 0TM         0.0573
     33 H          31.9806    8.3997   24.3296 H         1 0TM         0.0542
     34 H          36.5306   12.2321   23.1136 H         1 0TM         0.0576
     35 H          36.8884   11.4079   24.6510 H         1 0TM         0.0576
     36 H          37.8873   11.0830   23.2131 H         1 0TM         0.0576
     37 H          34.6386   12.5576   23.6496 H         1 0TM         0.0532
     38 H          27.5119   12.6595   22.0615 H         1 0TM         0.1224
     39 H          26.2576   11.7799   24.1333 H         1 0TM         0.2426
     40 H          29.9220    7.9383   29.5864 H         1 0TM         0.0648
     41 H          30.9890    9.0228   28.5592 H         1 0TM         0.0648
     42 H          32.8929    8.0141   28.6956 H         1 0TM         0.0486
     43 H          32.1557    6.8784   29.8522 H         1 0TM         0.0486
     44 H          33.4990    6.3438   28.8125 H         1 0TM         0.0486
     45 H          31.2513    4.6275   27.0942 H         1 0TM         0.0486
     46 H          31.9846    5.7520   25.9241 H         1 0TM         0.0486
     47 H          32.9762    5.0500   27.2260 H         1 0TM         0.0486
@<TRIPOS>BOND
     1    1    2 1  
     2    2    3 1  
     3    3    4 ar 
     4    3    5 ar 
     5    4   11 ar 
     6    5    6 1  
     7    5    8 ar 
     8    6    7 1  
     9    8    9 ar 
    10    9   10 1  
    11    9   11 ar 
    12   11   12 1  
    13   12   13 ar 
    14   12   14 ar 
    15   13   22 ar 
    16   14   15 1  
    17   14   20 ar 
    18   15   16 1  
    19   15   18 2  
    20   16   17 3  
    21   18   19 1  
    22   19   20 1  
    23   20   21 ar 
    24   21   22 ar 
    25   22   23 1  
    26   23   24 1  
    27   24   25 1  
    28   25   26 2  
    29   25   27 am 
    30   27   28 1  
    31   27   29 1  
    32    1   30 1  
    33    1   31 1  
    34    1   32 1  
    35    4   33 1  
    36    7   34 1  
    37    7   35 1  
    38    7   36 1  
    39    8   37 1  
    40   18   38 1  
    41   19   39 1  
    42   24   40 1  
    43   24   41 1  
    44   28   42 1  
    45   28   43 1  
    46   28   44 1  
    47   29   45 1  
    48   29   46 1  
    49   29   47 1  
@<TRIPOS>SUBSTRUCTURE
     1 0TM         1

