### 
### Created by X-TOOL on Mon Sep 10 21:13:09 2018
### 

@<TRIPOS>MOLECULE
4fe6_ligand
   87    91     1     0     0
SMALL
GAST_HUCK


@<TRIPOS>ATOM
      1 O8        -11.4070   15.5120   36.8020 O.2       1 0TQ        -0.3829
      2 C34       -10.8220   15.6720   35.6970 C.2       1 0TQ         0.2333
      3 N3         -9.9170   16.5870   35.3920 N.am      1 0TQ        -0.2319
      4 C35       -11.1260   14.7520   34.6240 C.3       1 0TQ         0.1449
      5 C36       -12.0890   13.6220   34.7800 C.2       1 0TQ         0.0389
      6 C37       -12.4030   12.6850   33.6840 C.3       1 0TQ         0.0036
      7 N4        -12.6910   13.4760   35.9780 N.2       1 0TQ        -0.3675
      8 C38       -13.1650   12.2090   36.4840 C.3       1 0TQ        -0.0255
      9 C32       -10.2570   15.2450   33.5390 C.ar      1 0TQ         0.0234
     10 C31        -9.5990   16.3610   34.0910 C.ar      1 0TQ         0.0759
     11 C30        -8.7060   17.0400   33.2970 C.ar      1 0TQ        -0.0441
     12 C29        -8.4840   16.6700   31.9960 C.ar      1 0TQ        -0.0547
     13 C33       -10.0450   14.8570   32.2290 C.ar      1 0TQ        -0.0407
     14 C28        -9.1240   15.5780   31.4760 C.ar      1 0TQ         0.0878
     15 S1         -8.8690   15.2020   29.9700 S.o2      1 0TQ         0.0627
     16 O4         -7.6600   15.8170   29.4660 O.2       1 0TQ        -0.1521
     17 O5         -8.7840   13.7920   29.9080 O.2       1 0TQ        -0.1521
     18 N2        -10.1490   15.7850   29.3010 N.am      1 0TQ        -0.2329
     19 C15       -11.4120   15.0170   29.2940 C.3       1 0TQ         0.0319
     20 C16       -12.0790   15.1070   27.9270 C.3       1 0TQ        -0.0296
     21 C24       -13.5430   14.7940   28.1570 C.3       1 0TQ        -0.0612
     22 C23       -11.4630   13.9860   27.1060 C.3       1 0TQ        -0.0612
     23 C14       -10.2100   17.2160   28.9180 C.3       1 0TQ         0.0577
     24 C6        -10.0490   17.5370   27.4530 C.3       1 0TQ         0.0967
     25 O3        -10.3050   18.9250   27.3020 O.3       1 0TQ        -0.3877
     26 C5         -8.6490   17.3350   26.9140 C.3       1 0TQ         0.0807
     27 C7         -7.5690   18.3300   27.4090 C.3       1 0TQ         0.0064
     28 C8         -6.2250   18.0070   26.7830 C.ar      1 0TQ        -0.0408
     29 C10        -5.6560   16.7500   26.9940 C.ar      1 0TQ        -0.0603
     30 C12        -4.4440   16.4700   26.3910 C.ar      1 0TQ        -0.0686
     31 C13        -3.7500   17.3720   25.5620 C.ar      1 0TQ        -0.0687
     32 C11        -4.3390   18.6220   25.3700 C.ar      1 0TQ        -0.0686
     33 C9         -5.5490   18.9380   25.9730 C.ar      1 0TQ        -0.0603
     34 N1         -8.8860   17.4770   25.5100 N.am      1 0TQ        -0.2550
     35 C3         -8.4390   16.5570   24.6360 C.2       1 0TQ         0.3203
     36 O2         -8.1100   15.4200   24.9340 O.2       1 0TQ        -0.3775
     37 O1         -8.3780   17.0240   23.2740 O.3       1 0TQ        -0.2578
     38 C4         -8.1570   16.1150   22.2030 C.3       1 0TQ         0.1189
     39 C2         -6.8350   16.5560   21.6130 C.3       1 0TQ         0.0449
     40 C26        -5.9130   17.1860   22.6560 C.3       1 0TQ        -0.0191
     41 C27        -5.7740   18.6220   22.2090 C.3       1 0TQ         0.0512
     42 O7         -6.9420   18.8620   21.4350 O.3       1 0TQ        -0.3509
     43 C25        -7.2020   17.6710   20.6690 C.3       1 0TQ         0.1648
     44 O6         -8.5800   17.4390   20.2860 O.3       1 0TQ        -0.3480
     45 C1         -9.1910   16.4720   21.1450 C.3       1 0TQ         0.0815
     46 H1         -9.5455   17.2953   35.9922 H         1 0TQ         0.2257
     47 H2        -11.9696   15.3504   34.2495 H         1 0TQ         0.0952
     48 H3        -13.1344   11.9421   34.0350 H         1 0TQ         0.0513
     49 H4        -11.4836   12.1721   33.3653 H         1 0TQ         0.0513
     50 H5        -12.8252   13.2423   32.8348 H         1 0TQ         0.0513
     51 H6        -13.6151   12.3560   37.4769 H         1 0TQ         0.0300
     52 H7        -12.3216   11.5074   36.5640 H         1 0TQ         0.0300
     53 H8        -13.9194   11.7987   35.7966 H         1 0TQ         0.0300
     54 H9         -8.1662   17.8854   33.7080 H         1 0TQ         0.0487
     55 H10        -7.8012   17.2427   31.3788 H         1 0TQ         0.0547
     56 H11       -10.5801   14.0167   31.8018 H         1 0TQ         0.0546
     57 H12       -12.0904   15.4276   30.0563 H         1 0TQ         0.0480
     58 H13       -11.1969   13.9630   29.5239 H         1 0TQ         0.0480
     59 H14       -11.9396   16.0897   27.4528 H         1 0TQ         0.0311
     60 H15       -14.0832   14.8432   27.2000 H         1 0TQ         0.0233
     61 H16       -13.9693   15.5278   28.8568 H         1 0TQ         0.0233
     62 H17       -13.6397   13.7837   28.5811 H         1 0TQ         0.0233
     63 H18       -10.3985   14.2015   26.9318 H         1 0TQ         0.0233
     64 H19       -11.9844   13.9094   26.1405 H         1 0TQ         0.0233
     65 H20       -11.5602   13.0358   27.6516 H         1 0TQ         0.0233
     66 H21        -9.4112   17.7404   29.4629 H         1 0TQ         0.0504
     67 H22       -11.1882   17.6044   29.2379 H         1 0TQ         0.0504
     68 H23       -10.7606   16.9350   26.8690 H         1 0TQ         0.0634
     69 H24        -9.6843   19.4191   27.8247 H         1 0TQ         0.2100
     70 H25        -8.3017   16.3186   27.1515 H         1 0TQ         0.0604
     71 H26        -7.4853   18.2591   28.5035 H         1 0TQ         0.0449
     72 H27        -7.8627   19.3524   27.1291 H         1 0TQ         0.0449
     73 H28        -6.1517   16.0124   27.6147 H         1 0TQ         0.0557
     74 H29        -4.0008   15.4965   26.5671 H         1 0TQ         0.0599
     75 H30        -2.8068   17.1088   25.0970 H         1 0TQ         0.0559
     76 H31        -3.8459   19.3555   24.7424 H         1 0TQ         0.0599
     77 H32        -5.9809   19.9199   25.8169 H         1 0TQ         0.0557
     78 H33        -9.3913   18.2717   25.1735 H         1 0TQ         0.1873
     79 H34        -8.1813   15.0577   22.5055 H         1 0TQ         0.0675
     80 H35        -6.3329   15.7214   21.1018 H         1 0TQ         0.0380
     81 H36        -4.9343   16.6840   22.6655 H         1 0TQ         0.0293
     82 H37        -6.3629   17.1313   23.6583 H         1 0TQ         0.0293
     83 H38        -4.8681   18.7547   21.5992 H         1 0TQ         0.0561
     84 H39        -5.7349   19.2982   23.0757 H         1 0TQ         0.0561
     85 H40        -6.5716   17.6664   19.7676 H         1 0TQ         0.0913
     86 H41       -10.0875   16.8982   21.6190 H         1 0TQ         0.0590
     87 H42        -9.4706   15.5768   20.5702 H         1 0TQ         0.0590
@<TRIPOS>BOND
     1    1    2 2  
     2    2    3 am 
     3    2    4 1  
     4    3   10 1  
     5    4    5 1  
     6    4    9 1  
     7    5    6 1  
     8    5    7 2  
     9    7    8 1  
    10    9   10 ar 
    11    9   13 ar 
    12   10   11 ar 
    13   11   12 ar 
    14   12   14 ar 
    15   13   14 ar 
    16   14   15 1  
    17   15   16 2  
    18   15   17 2  
    19   15   18 am 
    20   18   19 1  
    21   18   23 1  
    22   19   20 1  
    23   20   21 1  
    24   20   22 1  
    25   23   24 1  
    26   24   25 1  
    27   24   26 1  
    28   26   27 1  
    29   26   34 1  
    30   27   28 1  
    31   28   29 ar 
    32   28   33 ar 
    33   29   30 ar 
    34   30   31 ar 
    35   31   32 ar 
    36   32   33 ar 
    37   34   35 am 
    38   35   36 2  
    39   35   37 1  
    40   37   38 1  
    41   38   39 1  
    42   38   45 1  
    43   39   40 1  
    44   39   43 1  
    45   40   41 1  
    46   41   42 1  
    47   42   43 1  
    48   43   44 1  
    49   44   45 1  
    50    3   46 1  
    51    4   47 1  
    52    6   48 1  
    53    6   49 1  
    54    6   50 1  
    55    8   51 1  
    56    8   52 1  
    57    8   53 1  
    58   11   54 1  
    59   12   55 1  
    60   13   56 1  
    61   19   57 1  
    62   19   58 1  
    63   20   59 1  
    64   21   60 1  
    65   21   61 1  
    66   21   62 1  
    67   22   63 1  
    68   22   64 1  
    69   22   65 1  
    70   23   66 1  
    71   23   67 1  
    72   24   68 1  
    73   25   69 1  
    74   26   70 1  
    75   27   71 1  
    76   27   72 1  
    77   29   73 1  
    78   30   74 1  
    79   31   75 1  
    80   32   76 1  
    81   33   77 1  
    82   34   78 1  
    83   38   79 1  
    84   39   80 1  
    85   40   81 1  
    86   40   82 1  
    87   41   83 1  
    88   41   84 1  
    89   43   85 1  
    90   45   86 1  
    91   45   87 1  
@<TRIPOS>SUBSTRUCTURE
     1 0TQ         1

