### 
### Created by X-TOOL on Mon Sep 10 21:13:10 2018
### 

@<TRIPOS>MOLECULE
4fe9_ligand
   87    90     1     0     0
SMALL
GAST_HUCK


@<TRIPOS>ATOM
      1 O14       -14.2490   88.5190   32.8940 O.3       1 MTT        -0.3865
      2 C14       -14.0850   89.8320   33.4580 C.3       1 MTT         0.1119
      3 C13       -14.7660   90.8610   32.5810 C.3       1 MTT         0.1141
      4 O13       -14.2910   90.7790   31.2360 O.3       1 MTT        -0.3864
      5 C12       -14.5520   92.2540   33.1830 C.3       1 MTT         0.1341
      6 O12       -15.2490   93.2060   32.3790 O.3       1 MTT        -0.3841
      7 C11       -15.0970   92.2970   34.6190 C.3       1 MTT         0.1884
      8 C15       -14.7370   89.9430   34.8320 C.3       1 MTT         0.1130
      9 O15       -14.4500   91.2510   35.3790 O.3       1 MTT        -0.3405
     10 C16       -14.3710   88.7980   35.7850 C.3       1 MTT         0.0730
     11 O16       -12.9660   88.8200   36.0490 O.3       1 MTT        -0.3924
     12 O24       -16.5260   92.0390   34.5590 O.3       1 MTT        -0.3401
     13 C24       -17.3430   92.8130   35.4550 C.3       1 MTT         0.1184
     14 C23       -18.2360   93.7240   34.6400 C.3       1 MTT         0.1144
     15 O23       -17.4380   94.6310   33.8770 O.3       1 MTT        -0.3864
     16 C22       -19.1970   94.5100   35.5480 C.3       1 MTT         0.1341
     17 O22       -20.1420   95.1690   34.7180 O.3       1 MTT        -0.3841
     18 C21       -19.9830   93.5740   36.4380 C.3       1 MTT         0.1884
     19 C25       -18.2400   91.8930   36.2790 C.3       1 MTT         0.1134
     20 O25       -19.1000   92.6670   37.1140 O.3       1 MTT        -0.3405
     21 C26       -17.4180   90.9890   37.1900 C.3       1 MTT         0.0730
     22 O26       -18.2770   89.9710   37.7010 O.3       1 MTT        -0.3924
     23 O34       -20.9090   92.8650   35.6320 O.3       1 MTT        -0.3401
     24 C34       -22.2070   92.8270   36.1670 C.3       1 MTT         0.1184
     25 C33       -23.1610   93.5240   35.2160 C.3       1 MTT         0.1144
     26 O33       -22.8410   94.9190   35.1440 O.3       1 MTT        -0.3864
     27 C32       -24.5870   93.3170   35.6760 C.3       1 MTT         0.1341
     28 O32       -25.4630   93.8680   34.7090 O.3       1 MTT        -0.3841
     29 C31       -24.9030   91.8350   35.8410 C.3       1 MTT         0.1884
     30 C35       -22.5910   91.3770   36.3070 C.3       1 MTT         0.1134
     31 O35       -23.9540   91.2450   36.7290 O.3       1 MTT        -0.3405
     32 C36       -21.6840   90.6690   37.3080 C.3       1 MTT         0.0730
     33 O36       -22.1000   89.3060   37.3780 O.3       1 MTT        -0.3924
     34 O44       -24.8410   91.1780   34.5800 O.3       1 MTT        -0.3401
     35 C44       -26.0100   90.4180   34.2630 C.3       1 MTT         0.1184
     36 C43       -26.6740   91.0460   33.0420 C.3       1 MTT         0.1144
     37 O43       -27.2440   92.3120   33.3920 O.3       1 MTT        -0.3864
     38 C42       -27.7540   90.1430   32.4450 C.3       1 MTT         0.1339
     39 O42       -28.1250   90.6640   31.1650 O.3       1 MTT        -0.3841
     40 C41       -27.2840   88.6950   32.2740 C.3       1 MTT         0.1854
     41 O41       -26.3600   88.5960   31.1760 O.3       1 MTT        -0.3649
     42 C45       -25.5790   88.9930   33.9310 C.3       1 MTT         0.1134
     43 O45       -26.6950   88.2110   33.4850 O.3       1 MTT        -0.3407
     44 C46       -24.9840   88.3340   35.1560 C.3       1 MTT         0.0730
     45 O46       -24.1730   87.2450   34.7290 O.3       1 MTT        -0.3924
     46 H1        -13.8613   88.4973   32.0270 H         1 MTT         0.2100
     47 H2        -13.0109   90.0554   33.5379 H         1 MTT         0.0647
     48 H3        -15.8459   90.6518   32.5717 H         1 MTT         0.0648
     49 H4        -14.4726   89.9133   30.8894 H         1 MTT         0.2100
     50 H5        -13.4780   92.4914   33.1924 H         1 MTT         0.0671
     51 H6        -16.1750   92.9943   32.3707 H         1 MTT         0.2101
     52 H7        -14.9036   93.2777   35.0781 H         1 MTT         0.0938
     53 H8        -15.8249   89.8833   34.6808 H         1 MTT         0.0647
     54 H9        -14.6409   87.8371   35.3225 H         1 MTT         0.0584
     55 H10       -14.9222   88.9181   36.7293 H         1 MTT         0.0584
     56 H11       -12.7330   89.6496   36.4490 H         1 MTT         0.2095
     57 H12       -16.7017   93.4074   36.1224 H         1 MTT         0.0651
     58 H13       -18.8306   93.1072   33.9500 H         1 MTT         0.0648
     59 H14       -16.8734   94.1394   33.2921 H         1 MTT         0.2100
     60 H15       -18.6350   95.2342   36.1560 H         1 MTT         0.0671
     61 H16       -20.6214   94.5238   34.2117 H         1 MTT         0.2101
     62 H17       -20.5316   94.1614   37.1890 H         1 MTT         0.0938
     63 H18       -18.8421   91.2759   35.5960 H         1 MTT         0.0647
     64 H19       -17.0022   91.5771   38.0214 H         1 MTT         0.0584
     65 H20       -16.5974   90.5312   36.6182 H         1 MTT         0.0584
     66 H21       -18.9851   90.3723   38.1911 H         1 MTT         0.2095
     67 H22       -22.2306   93.3228   37.1486 H         1 MTT         0.0651
     68 H23       -23.0481   93.0853   34.2136 H         1 MTT         0.0648
     69 H24       -21.9507   95.0227   34.8290 H         1 MTT         0.2100
     70 H25       -24.7331   93.8265   36.6399 H         1 MTT         0.0671
     71 H26       -25.3267   93.4330   33.8755 H         1 MTT         0.2101
     72 H27       -25.9142   91.7235   36.2593 H         1 MTT         0.0938
     73 H28       -22.4781   90.8929   35.3257 H         1 MTT         0.0647
     74 H29       -21.7769   91.1408   38.2973 H         1 MTT         0.0584
     75 H30       -20.6382   90.7251   36.9717 H         1 MTT         0.0584
     76 H31       -23.0049   89.2666   37.6647 H         1 MTT         0.2095
     77 H32       -26.7073   90.4146   35.1137 H         1 MTT         0.0651
     78 H33       -25.9004   91.2083   32.2770 H         1 MTT         0.0648
     79 H34       -26.5593   92.8898   33.7081 H         1 MTT         0.2100
     80 H35       -28.6290   90.1517   33.1116 H         1 MTT         0.0671
     81 H36       -27.3634   90.6783   30.5973 H         1 MTT         0.2101
     82 H37       -28.1604   88.0711   32.0446 H         1 MTT         0.0935
     83 H38       -26.7733   88.9226   30.3854 H         1 MTT         0.2126
     84 H39       -24.8222   89.0276   33.1335 H         1 MTT         0.0647
     85 H40       -25.7894   87.9646   35.8077 H         1 MTT         0.0584
     86 H41       -24.3699   89.0608   35.7080 H         1 MTT         0.0584
     87 H42       -23.7911   86.8195   35.4877 H         1 MTT         0.2095
@<TRIPOS>BOND
     1    1    2 1  
     2    2    3 1  
     3    2    8 1  
     4    3    4 1  
     5    3    5 1  
     6    5    6 1  
     7    5    7 1  
     8    7    9 1  
     9    7   12 1  
    10    8    9 1  
    11    8   10 1  
    12   10   11 1  
    13   12   13 1  
    14   13   14 1  
    15   13   19 1  
    16   14   15 1  
    17   14   16 1  
    18   16   17 1  
    19   16   18 1  
    20   18   20 1  
    21   18   23 1  
    22   19   20 1  
    23   19   21 1  
    24   21   22 1  
    25   23   24 1  
    26   24   25 1  
    27   24   30 1  
    28   25   26 1  
    29   25   27 1  
    30   27   28 1  
    31   27   29 1  
    32   29   31 1  
    33   29   34 1  
    34   30   31 1  
    35   30   32 1  
    36   32   33 1  
    37   34   35 1  
    38   35   36 1  
    39   35   42 1  
    40   36   37 1  
    41   36   38 1  
    42   38   39 1  
    43   38   40 1  
    44   40   41 1  
    45   40   43 1  
    46   42   43 1  
    47   42   44 1  
    48   44   45 1  
    49    1   46 1  
    50    2   47 1  
    51    3   48 1  
    52    4   49 1  
    53    5   50 1  
    54    6   51 1  
    55    7   52 1  
    56    8   53 1  
    57   10   54 1  
    58   10   55 1  
    59   11   56 1  
    60   13   57 1  
    61   14   58 1  
    62   15   59 1  
    63   16   60 1  
    64   17   61 1  
    65   18   62 1  
    66   19   63 1  
    67   21   64 1  
    68   21   65 1  
    69   22   66 1  
    70   24   67 1  
    71   25   68 1  
    72   26   69 1  
    73   27   70 1  
    74   28   71 1  
    75   29   72 1  
    76   30   73 1  
    77   32   74 1  
    78   32   75 1  
    79   33   76 1  
    80   35   77 1  
    81   36   78 1  
    82   37   79 1  
    83   38   80 1  
    84   39   81 1  
    85   40   82 1  
    86   41   83 1  
    87   42   84 1  
    88   44   85 1  
    89   44   86 1  
    90   45   87 1  
@<TRIPOS>SUBSTRUCTURE
     1 MTT         1

