### 
### Created by X-TOOL on Mon Sep 10 21:13:16 2018
### 

@<TRIPOS>MOLECULE
4feq_ligand
   66    69     1     0     0
SMALL
GAST_HUCK


@<TRIPOS>ATOM
      1 N1          8.7970  -10.5110   15.1260 N.ar      1 0T8        -0.2356
      2 N3         10.7970  -11.4130   14.3210 N.ar      1 0T8        -0.2658
      3 C4          9.0110  -14.1410   16.1580 C.2       1 0T8         0.2010
      4 C5          9.9580  -10.3630   14.4460 C.ar      1 0T8         0.1786
      5 C6          6.3190  -10.6840   16.2460 C.3       1 0T8         0.0416
      6 C7          4.9120  -11.2080   15.9910 C.3       1 0T8        -0.0294
      7 C8          6.2640   -9.9300   17.5610 C.3       1 0T8        -0.0294
      8 C10         9.7480   -7.9190   14.4580 C.3       1 0T8         0.0428
      9 C13         9.6320  -16.4100   18.3200 C.3       1 0T8        -0.0124
     10 C15         9.2990  -17.8700   18.6580 C.3       1 0T8         0.0357
     11 C20         9.9370  -19.5080   20.3960 C.2       1 0T8         0.1785
     12 C21        10.5110  -17.2360   20.7870 C.3       1 0T8         0.0359
     13 C22         6.7190   -4.1480   14.3590 C.ar      1 0T8         0.0031
     14 C24        10.5070  -19.5720   21.7990 C.3       1 0T8         0.0392
     15 C26        11.0320  -18.0580   22.0480 C.3       1 0T8        -0.0156
     16 O25         9.5430  -20.5120   19.8020 O.2       1 0T8        -0.3969
     17 N6          9.9080  -18.2600   19.9390 N.am      1 0T8        -0.2730
     18 C9         10.1110  -16.3360   16.8790 C.3       1 0T8         0.0318
     19 N4         10.0460  -14.9700   16.3700 N.am      1 0T8        -0.2884
     20 O1          7.8570  -14.4400   16.4350 O.2       1 0T8        -0.3930
     21 C2          9.3090  -12.7850   15.5710 C.ar      1 0T8         0.1039
     22 C1          8.4480  -11.6940   15.6930 C.ar      1 0T8         0.1345
     23 N2          7.2760  -11.7760   16.3530 N.pl3     1 0T8        -0.2965
     24 C12         5.0630  -10.4700   18.3230 C.3       1 0T8        -0.0508
     25 C11         4.1390  -11.1120   17.2980 C.3       1 0T8        -0.0508
     26 C3         10.4900  -12.6030   14.8570 C.ar      1 0T8         0.0203
     27 N5         10.2880   -9.1690   13.9110 N.pl3     1 0T8        -0.2876
     28 C14         8.6330   -7.3560   13.5780 C.3       1 0T8         0.0089
     29 C16         7.7060   -6.3600   14.2680 C.ar      1 0T8        -0.0212
     30 C19         6.9420   -6.7120   15.3800 C.ar      1 0T8        -0.0324
     31 C23         6.0970   -5.7610   15.9520 C.ar      1 0T8         0.0031
     32 N7          6.0060   -4.5230   15.4340 N.ar      1 0T8        -0.3066
     33 C18         7.5750   -5.0680   13.7550 C.ar      1 0T8        -0.0324
     34 H1          6.6230  -10.0104   15.4312 H         1 0T8         0.0562
     35 H2          4.9568  -12.2555   15.6583 H         1 0T8         0.0288
     36 H3          4.4195  -10.5988   15.2188 H         1 0T8         0.0288
     37 H4          6.1425   -8.8526   17.3757 H         1 0T8         0.0288
     38 H5          7.1862  -10.1016   18.1356 H         1 0T8         0.0288
     39 H6         10.5588   -7.1786   14.5243 H         1 0T8         0.0552
     40 H7          9.3458   -8.1134   15.4632 H         1 0T8         0.0552
     41 H8         10.4238  -16.0467   18.9916 H         1 0T8         0.0304
     42 H9          8.7331  -15.7881   18.4428 H         1 0T8         0.0304
     43 H10         9.6858  -18.5222   17.8611 H         1 0T8         0.0523
     44 H11         8.2072  -17.9843   18.7278 H         1 0T8         0.0523
     45 H12        11.3447  -16.7383   20.2701 H         1 0T8         0.0524
     46 H13         9.7654  -16.4852   21.0876 H         1 0T8         0.0524
     47 H14         6.6299   -3.1418   13.9657 H         1 0T8         0.0803
     48 H15        11.3362  -20.2925   21.8565 H         1 0T8         0.0503
     49 H16         9.7312  -19.8466   22.5289 H         1 0T8         0.0503
     50 H17        10.6105  -17.6495   22.9783 H         1 0T8         0.0309
     51 H18        12.1304  -18.0323   22.1008 H         1 0T8         0.0309
     52 H19         9.4746  -16.9815   16.2559 H         1 0T8         0.0519
     53 H20        11.1518  -16.6884   16.8284 H         1 0T8         0.0519
     54 H21        10.9362  -14.5792   16.1359 H         1 0T8         0.1838
     55 H22         7.0594  -12.6030   16.9275 H         1 0T8         0.1869
     56 H23         4.5429   -9.6497   18.8392 H         1 0T8         0.0266
     57 H24         5.3885  -11.2190   19.0599 H         1 0T8         0.0266
     58 H25         3.8427  -12.1163   17.6350 H         1 0T8         0.0266
     59 H26         3.2411  -10.4918   17.1598 H         1 0T8         0.0266
     60 H27        11.1720  -13.4363   14.7324 H         1 0T8         0.0904
     61 H28        10.9293   -9.1344   13.1057 H         1 0T8         0.1879
     62 H29         8.0227   -8.1984   13.2203 H         1 0T8         0.0472
     63 H30         9.0988   -6.8500   12.7195 H         1 0T8         0.0472
     64 H31         7.0039   -7.7117   15.7946 H         1 0T8         0.0651
     65 H32         5.5074   -6.0224   16.8232 H         1 0T8         0.0803
     66 H33         8.1440   -4.7776   12.8792 H         1 0T8         0.0651
@<TRIPOS>BOND
     1    4    1 ar 
     2    1   22 ar 
     3    4    2 ar 
     4    2   26 ar 
     5    3   19 am 
     6    3   20 2  
     7   21    3 1  
     8   27    4 1  
     9    5    6 1  
    10    5    7 1  
    11   23    5 1  
    12    6   25 1  
    13    7   24 1  
    14    8   27 1  
    15   28    8 1  
    16    9   10 1  
    17   18    9 1  
    18   10   17 1  
    19   11   14 1  
    20   11   16 2  
    21   17   11 am 
    22   12   15 1  
    23   17   12 1  
    24   13   32 ar 
    25   33   13 ar 
    26   15   14 1  
    27   19   18 1  
    28   22   21 ar 
    29   26   21 ar 
    30   22   23 1  
    31   24   25 1  
    32   29   28 1  
    33   29   30 ar 
    34   29   33 ar 
    35   30   31 ar 
    36   31   32 ar 
    37    5   34 1  
    38    6   35 1  
    39    6   36 1  
    40    7   37 1  
    41    7   38 1  
    42    8   39 1  
    43    8   40 1  
    44    9   41 1  
    45    9   42 1  
    46   10   43 1  
    47   10   44 1  
    48   12   45 1  
    49   12   46 1  
    50   13   47 1  
    51   14   48 1  
    52   14   49 1  
    53   15   50 1  
    54   15   51 1  
    55   18   52 1  
    56   18   53 1  
    57   19   54 1  
    58   23   55 1  
    59   24   56 1  
    60   24   57 1  
    61   25   58 1  
    62   25   59 1  
    63   26   60 1  
    64   27   61 1  
    65   28   62 1  
    66   28   63 1  
    67   30   64 1  
    68   31   65 1  
    69   33   66 1  
@<TRIPOS>SUBSTRUCTURE
     1 0T8         1

