### 
### Created by X-TOOL on Mon Sep 10 21:13:08 2018
### 

@<TRIPOS>MOLECULE
4fev_ligand
   40    42     1     0     0
SMALL
GAST_HUCK


@<TRIPOS>ATOM
      1 N1        -21.0340  -27.1620  -17.7210 N.pl3     1 PP1        -0.1790
      2 C2        -21.8970  -25.1380  -20.5680 C.ar      1 PP1         0.0565
      3 N3        -21.5400  -25.3810  -19.3220 N.ar      1 PP1        -0.2676
      4 C4        -21.3720  -26.6490  -18.9010 C.ar      1 PP1         0.1634
      5 C5        -21.5620  -27.7160  -19.7680 C.ar      1 PP1         0.0864
      6 C6        -21.9370  -27.4060  -21.0840 C.ar      1 PP1         0.1273
      7 N7        -22.0890  -26.1270  -21.4220 N.ar      1 PP1        -0.2657
      8 N8        -20.9910  -28.3990  -17.7430 N.2       1 PP1        -0.1955
      9 C9        -21.2720  -28.8410  -18.9770 C.2       1 PP1         0.0685
     10 N10       -22.1590  -28.2980  -22.0510 N.pl3     1 PP1        -0.3126
     11 C11       -21.3590  -30.1980  -19.3170 C.ar      1 PP1        -0.0138
     12 C12       -21.5500  -30.6650  -20.6120 C.ar      1 PP1        -0.0599
     13 C13       -21.6220  -32.0240  -20.8940 C.ar      1 PP1        -0.0596
     14 C14       -21.4940  -32.9430  -19.8660 C.ar      1 PP1        -0.0455
     15 C15       -21.2920  -32.4970  -18.5630 C.ar      1 PP1        -0.0596
     16 C16       -21.2110  -31.1330  -18.2960 C.ar      1 PP1        -0.0599
     17 C24       -21.5720  -34.4390  -20.1740 C.3       1 PP1        -0.0308
     18 C28       -20.7230  -26.3530  -16.5060 C.3       1 PP1         0.0831
     19 C29       -20.3370  -27.3330  -15.3970 C.3       1 PP1        -0.0312
     20 C33       -19.5340  -25.4270  -16.8210 C.3       1 PP1        -0.0312
     21 C37       -21.9560  -25.5330  -16.1060 C.3       1 PP1        -0.0312
     22 H1        -22.0346  -24.1138  -20.8954 H         1 PP1         0.1030
     23 H2        -22.4317  -27.9803  -22.9920 H         1 PP1         0.1842
     24 H3        -22.0576  -29.3044  -21.8565 H         1 PP1         0.1842
     25 H4        -21.6452  -29.9514  -21.4224 H         1 PP1         0.0605
     26 H5        -21.7773  -32.3624  -21.9120 H         1 PP1         0.0559
     27 H6        -21.1976  -33.2130  -17.7546 H         1 PP1         0.0559
     28 H7        -21.0307  -30.7952  -17.2819 H         1 PP1         0.0605
     29 H8        -21.7343  -34.5833  -21.2523 H         1 PP1         0.0393
     30 H9        -22.4072  -34.8855  -19.6146 H         1 PP1         0.0393
     31 H10       -20.6306  -34.9242  -19.8767 H         1 PP1         0.0393
     32 H11       -20.0992  -26.7739  -14.4800 H         1 PP1         0.0262
     33 H12       -19.4571  -27.9138  -15.7108 H         1 PP1         0.0262
     34 H13       -21.1770  -28.0160  -15.2025 H         1 PP1         0.0262
     35 H14       -19.2936  -24.8240  -15.9330 H         1 PP1         0.0262
     36 H15       -19.7988  -24.7612  -17.6556 H         1 PP1         0.0262
     37 H16       -18.6601  -26.0342  -17.0994 H         1 PP1         0.0262
     38 H17       -21.7254  -24.9373  -15.2105 H         1 PP1         0.0262
     39 H18       -22.7935  -26.2123  -15.8888 H         1 PP1         0.0262
     40 H19       -22.2333  -24.8613  -16.9318 H         1 PP1         0.0262
@<TRIPOS>BOND
     1    4    1 1  
     2    1    8 1  
     3    1   18 1  
     4    3    2 ar 
     5    2    7 ar 
     6    3    4 ar 
     7    4    5 ar 
     8    5    6 ar 
     9    5    9 1  
    10    6    7 ar 
    11    6   10 1  
    12    8    9 2  
    13    9   11 1  
    14   11   12 ar 
    15   11   16 ar 
    16   12   13 ar 
    17   13   14 ar 
    18   14   15 ar 
    19   14   17 1  
    20   15   16 ar 
    21   18   19 1  
    22   18   20 1  
    23   18   21 1  
    24    2   22 1  
    25   10   23 1  
    26   10   24 1  
    27   12   25 1  
    28   13   26 1  
    29   15   27 1  
    30   16   28 1  
    31   17   29 1  
    32   17   30 1  
    33   17   31 1  
    34   19   32 1  
    35   19   33 1  
    36   19   34 1  
    37   20   35 1  
    38   20   36 1  
    39   20   37 1  
    40   21   38 1  
    41   21   39 1  
    42   21   40 1  
@<TRIPOS>SUBSTRUCTURE
     1 PP1         1

