### 
### Created by X-TOOL on Mon Sep 10 21:13:08 2018
### 

@<TRIPOS>MOLECULE
4few_ligand
   37    39     1     0     0
SMALL
GAST_HUCK


@<TRIPOS>ATOM
      1 C1        -21.3120  -27.3190  -17.9070 C.ar      1 PP2         0.1643
      2 N2        -21.4630  -26.0450  -18.3030 N.ar      1 PP2        -0.2674
      3 C3        -21.7980  -25.7750  -19.5440 C.ar      1 PP2         0.0566
      4 N4        -21.9830  -26.7390  -20.4280 N.ar      1 PP2        -0.2655
      5 C5        -21.8410  -28.0290  -20.1120 C.ar      1 PP2         0.1276
      6 C6        -21.4900  -28.3660  -18.8030 C.ar      1 PP2         0.0877
      7 C8        -21.2480  -29.5130  -18.0280 C.2       1 PP2         0.0736
      8 N9        -20.9500  -29.1030  -16.7960 N.2       1 PP2        -0.1914
      9 N10       -20.9900  -27.8700  -16.7340 N.pl3     1 PP2        -0.1771
     10 C11       -21.2940  -30.8560  -18.3990 C.ar      1 PP2        -0.0075
     11 C12       -21.6080  -31.2860  -19.6790 C.ar      1 PP2        -0.0537
     12 C13       -21.6520  -32.6310  -20.0010 C.ar      1 PP2        -0.0479
     13 C14       -21.3820  -33.5730  -19.0210 C.ar      1 PP2         0.0399
     14 C15       -21.0710  -33.1640  -17.7290 C.ar      1 PP2        -0.0479
     15 C16       -21.0320  -31.8090  -17.4200 C.ar      1 PP2        -0.0537
     16 C22       -20.6860  -27.1140  -15.4890 C.3       1 PP2         0.0837
     17 C23       -21.9360  -26.3730  -15.0330 C.3       1 PP2        -0.0311
     18 C24       -20.2340  -28.1320  -14.4450 C.3       1 PP2        -0.0311
     19 C25       -19.5410  -26.1240  -15.7610 C.3       1 PP2        -0.0311
     20 N25       -22.0540  -28.9110  -21.0800 N.pl3     1 PP2        -0.3125
     21 CL        -21.4320  -35.2520  -19.4220 Cl        1 PP2        -0.0708
     22 H1        -21.9250  -24.7424  -19.8483 H         1 PP2         0.1030
     23 H2        -21.8242  -30.5510  -20.4459 H         1 PP2         0.0618
     24 H3        -21.8952  -32.9447  -21.0097 H         1 PP2         0.0622
     25 H4        -20.8591  -33.9012  -16.9630 H         1 PP2         0.0622
     26 H5        -20.7960  -31.4933  -16.4102 H         1 PP2         0.0618
     27 H6        -21.7148  -25.8128  -14.1125 H         1 PP2         0.0262
     28 H7        -22.7406  -27.0971  -14.8372 H         1 PP2         0.0262
     29 H8        -22.2554  -25.6738  -15.8199 H         1 PP2         0.0262
     30 H9        -19.9982  -27.6126  -13.5045 H         1 PP2         0.0262
     31 H10       -19.3383  -28.6569  -14.8085 H         1 PP2         0.0262
     32 H11       -21.0398  -28.8599  -14.2697 H         1 PP2         0.0262
     33 H12       -19.3145  -25.5639  -14.8418 H         1 PP2         0.0262
     34 H13       -19.8430  -25.4226  -16.5527 H         1 PP2         0.0262
     35 H14       -18.6465  -26.6774  -16.0829 H         1 PP2         0.0262
     36 H15       -21.9577  -29.9185  -20.8890 H         1 PP2         0.1842
     37 H16       -22.3156  -28.5882  -22.0225 H         1 PP2         0.1842
@<TRIPOS>BOND
     1    1    2 ar 
     2    1    6 ar 
     3    1    9 1  
     4    2    3 ar 
     5    3    4 ar 
     6    4    5 ar 
     7    5    6 ar 
     8    5   20 1  
     9    6    7 1  
    10    7    8 2  
    11    7   10 1  
    12    8    9 1  
    13    9   16 1  
    14   10   11 ar 
    15   10   15 ar 
    16   11   12 ar 
    17   12   13 ar 
    18   13   14 ar 
    19   13   21 1  
    20   14   15 ar 
    21   16   17 1  
    22   16   18 1  
    23   16   19 1  
    24    3   22 1  
    25   11   23 1  
    26   12   24 1  
    27   14   25 1  
    28   15   26 1  
    29   17   27 1  
    30   17   28 1  
    31   17   29 1  
    32   18   30 1  
    33   18   31 1  
    34   18   32 1  
    35   19   33 1  
    36   19   34 1  
    37   19   35 1  
    38   20   36 1  
    39   20   37 1  
@<TRIPOS>SUBSTRUCTURE
     1 PP2         1

