### 
### Created by X-TOOL on Mon Sep 10 21:13:16 2018
### 

@<TRIPOS>MOLECULE
4ff8_ligand
   68    71     1     0     0
SMALL
GAST_HUCK


@<TRIPOS>ATOM
      1 O33        35.8690    9.1900   20.3290 O.2       1 14S        -0.3969
      2 C28        34.7980    9.6000   20.7550 C.2       1 14S         0.1785
      3 C32        34.4990    9.7590   22.2260 C.3       1 14S         0.0392
      4 C34        33.0160   10.2070   22.2400 C.3       1 14S        -0.0156
      5 C29        32.6200   10.5440   20.7790 C.3       1 14S         0.0359
      6 N24        33.7420    9.9760   20.0350 N.am      1 14S        -0.2730
      7 C21        33.6080    9.8540   18.5830 C.3       1 14S         0.0357
      8 C19        34.3110   11.0750   17.9900 C.3       1 14S        -0.0124
      9 C15        34.7320   10.8580   16.5400 C.3       1 14S         0.0318
     10 N10        34.8870   12.1140   15.8290 N.am      1 14S        -0.2884
     11 C6         33.8640   12.8130   15.3380 C.2       1 14S         0.2010
     12 O11        32.7120   12.4430   15.4660 O.2       1 14S        -0.3930
     13 C2         34.1400   14.1030   14.6220 C.ar      1 14S         0.1039
     14 C1         33.1970   15.1250   14.5370 C.ar      1 14S         0.1345
     15 N4         31.9770   14.9720   15.1130 N.pl3     1 14S        -0.2965
     16 C8         30.9140   15.9690   15.0740 C.3       1 14S         0.0416
     17 C14        31.0800   17.0280   16.1550 C.3       1 14S        -0.0294
     18 C18        29.9590   16.8790   17.1730 C.3       1 14S        -0.0508
     19 C17        29.1130   15.6880   16.7480 C.3       1 14S        -0.0508
     20 C13        29.5780   15.2850   15.3510 C.3       1 14S        -0.0294
     21 C5         35.3770   14.2890   14.0270 C.ar      1 14S         0.0203
     22 N9         35.6540   15.4280   13.3900 N.ar      1 14S        -0.2657
     23 C7         34.7450   16.4170   13.3050 C.ar      1 14S         0.1801
     24 N3         33.5260   16.2670   13.8770 N.ar      1 14S        -0.2355
     25 N12        35.0860   17.5510   12.6510 N.pl3     1 14S        -0.2803
     26 C16        34.1420   18.6450   12.5110 C.3       1 14S         0.0634
     27 C20        34.5600   19.8950   13.2490 C.ar      1 14S         0.0088
     28 C23        35.9100   20.1630   13.4810 C.ar      1 14S        -0.0668
     29 C27        36.2890   21.3210   14.1530 C.ar      1 14S        -0.0797
     30 C30        35.3130   22.2100   14.5930 C.ar      1 14S        -0.0776
     31 C25        33.9650   21.9460   14.3640 C.ar      1 14S        -0.0396
     32 C22        33.5840   20.7830   13.6960 C.ar      1 14S         0.0944
     33 O26        32.2530   20.5320   13.4600 O.3       1 14S        -0.3249
     34 C31        31.3210   20.3950   14.5290 C.3       1 14S         0.0578
     35 H1         35.1463   10.5240   22.6796 H         1 14S         0.0503
     36 H2         34.6281    8.8060   22.7599 H         1 14S         0.0503
     37 H3         32.8978   11.0965   22.8763 H         1 14S         0.0309
     38 H4         32.3813    9.3946   22.6237 H         1 14S         0.0309
     39 H5         32.5436   11.6303   20.6237 H         1 14S         0.0524
     40 H6         31.6695   10.0659   20.4998 H         1 14S         0.0524
     41 H7         32.5460    9.8481   18.2965 H         1 14S         0.0523
     42 H8         34.0879    8.9287   18.2314 H         1 14S         0.0523
     43 H9         35.2076   11.2918   18.5892 H         1 14S         0.0304
     44 H10        33.6245   11.9334   18.0335 H         1 14S         0.0304
     45 H11        33.9646   10.2545   16.0331 H         1 14S         0.0519
     46 H12        35.6912   10.3197   16.5246 H         1 14S         0.0519
     47 H13        35.8110   12.4741   15.7007 H         1 14S         0.1838
     48 H14        31.7896   14.0906   15.6120 H         1 14S         0.1869
     49 H15        30.9022   16.4469   14.0833 H         1 14S         0.0562
     50 H16        31.0345   18.0287   15.7006 H         1 14S         0.0288
     51 H17        32.0512   16.8958   16.6544 H         1 14S         0.0288
     52 H18        29.3433   17.7903   17.1902 H         1 14S         0.0266
     53 H19        30.3808   16.7025   18.1735 H         1 14S         0.0266
     54 H20        28.0497   15.9689   16.7256 H         1 14S         0.0266
     55 H21        29.2570   14.8530   17.4494 H         1 14S         0.0266
     56 H22        29.7018   14.1931   15.3009 H         1 14S         0.0288
     57 H23        28.8351   15.6044   14.6053 H         1 14S         0.0288
     58 H24        36.1238   13.5050   14.0792 H         1 14S         0.0904
     59 H25        36.0291   17.6395   12.2465 H         1 14S         0.1900
     60 H26        33.1679   18.3176   12.9033 H         1 14S         0.0666
     61 H27        34.0444   18.8870   11.4424 H         1 14S         0.0666
     62 H28        36.6659   19.4666   13.1365 H         1 14S         0.0526
     63 H29        37.3376   21.5292   14.3326 H         1 14S         0.0505
     64 H30        35.6037   23.1133   15.1171 H         1 14S         0.0531
     65 H31        33.2108   22.6457   14.7056 H         1 14S         0.0521
     66 H32        30.3192   20.1988   14.1192 H         1 14S         0.0574
     67 H33        31.3005   21.3233   15.1188 H         1 14S         0.0574
     68 H34        31.6237   19.5572   15.1743 H         1 14S         0.0574
@<TRIPOS>BOND
     1    1    2 2  
     2    2    3 1  
     3    2    6 am 
     4    3    4 1  
     5    4    5 1  
     6    5    6 1  
     7    6    7 1  
     8    7    8 1  
     9    8    9 1  
    10    9   10 1  
    11   10   11 am 
    12   11   12 2  
    13   11   13 1  
    14   13   14 ar 
    15   13   21 ar 
    16   14   15 1  
    17   14   24 ar 
    18   15   16 1  
    19   16   17 1  
    20   16   20 1  
    21   17   18 1  
    22   18   19 1  
    23   19   20 1  
    24   21   22 ar 
    25   22   23 ar 
    26   23   24 ar 
    27   23   25 1  
    28   25   26 1  
    29   26   27 1  
    30   27   28 ar 
    31   27   32 ar 
    32   28   29 ar 
    33   29   30 ar 
    34   30   31 ar 
    35   31   32 ar 
    36   32   33 1  
    37   33   34 1  
    38    3   35 1  
    39    3   36 1  
    40    4   37 1  
    41    4   38 1  
    42    5   39 1  
    43    5   40 1  
    44    7   41 1  
    45    7   42 1  
    46    8   43 1  
    47    8   44 1  
    48    9   45 1  
    49    9   46 1  
    50   10   47 1  
    51   15   48 1  
    52   16   49 1  
    53   17   50 1  
    54   17   51 1  
    55   18   52 1  
    56   18   53 1  
    57   19   54 1  
    58   19   55 1  
    59   20   56 1  
    60   20   57 1  
    61   21   58 1  
    62   25   59 1  
    63   26   60 1  
    64   26   61 1  
    65   28   62 1  
    66   29   63 1  
    67   30   64 1  
    68   31   65 1  
    69   34   66 1  
    70   34   67 1  
    71   34   68 1  
@<TRIPOS>SUBSTRUCTURE
     1 14S         1

