### 
### Created by X-TOOL on Mon Sep 10 21:13:08 2018
### 

@<TRIPOS>MOLECULE
4ffs_ligand
   49    51     1     0     0
SMALL
GAST_HUCK


@<TRIPOS>ATOM
      1 C2        -37.0930  -48.8680    7.9830 C.ar      1 BIG         0.0439
      2 C5        -35.8960  -50.3090   10.0380 C.ar      1 BIG         0.1304
      3 C4        -35.3800  -49.0400    9.5550 C.ar      1 BIG         0.0483
      4 C8        -34.0790  -49.8340   11.2590 C.2       1 BIG         0.0326
      5 O3'       -34.1020  -43.4680   10.9790 O.3       1 BIG        -0.3860
      6 C3'       -35.1100  -44.4760   10.8480 C.3       1 BIG         0.1032
      7 C4'       -35.2790  -45.2390   12.1550 C.3       1 BIG         0.0391
      8 C5'       -36.5980  -46.0030   12.2470 C.3       1 BIG         0.0039
      9 S5'       -37.9710  -44.9410   12.4930 S.3       1 BIG        -0.1602
     10 C20       -37.9830  -44.7410   14.2550 C.3       1 BIG        -0.0063
     11 C21       -39.0650  -43.7270   14.6220 C.3       1 BIG        -0.0442
     12 C22       -39.3460  -43.6470   16.1130 C.3       1 BIG        -0.0552
     13 C23       -38.1010  -43.3510   16.9000 C.3       1 BIG        -0.0653
     14 C1'       -34.1440  -46.2470   12.1290 C.3       1 BIG        -0.0248
     15 N1'       -33.6470  -46.2480   10.7260 N.4       1 BIG         0.2442
     16 C2'       -34.6180  -45.5370    9.8810 C.3       1 BIG        -0.0040
     17 C10       -33.2640  -47.5500   10.2280 C.3       1 BIG        -0.0117
     18 N7        -35.0930  -50.7390   11.0340 N.pl3     1 BIG        -0.2768
     19 C6        -37.0980  -50.8070    9.3660 C.ar      1 BIG         0.1459
     20 N6        -37.6330  -51.9990    9.7830 N.pl3     1 BIG        -0.3157
     21 N3        -35.9740  -48.3510    8.5570 N.ar      1 BIG        -0.3132
     22 C9        -34.1950  -48.7370   10.3740 C.2       1 BIG         0.0166
     23 N1        -37.6440  -50.0510    8.3820 N.ar      1 BIG        -0.2741
     24 H1        -37.5659  -48.3189    7.1768 H         1 BIG         0.0956
     25 H2        -33.2994  -49.9472   12.0109 H         1 BIG         0.0886
     26 H3        -34.0111  -43.0037   10.1552 H         1 BIG         0.2100
     27 H4        -36.0590  -44.0289   10.5171 H         1 BIG         0.0652
     28 H5        -35.1906  -44.5553   13.0122 H         1 BIG         0.0388
     29 H6        -36.5404  -46.7067   13.0905 H         1 BIG         0.0382
     30 H7        -36.7478  -46.5628   11.3120 H         1 BIG         0.0382
     31 H8        -37.0023  -44.3754   14.5934 H         1 BIG         0.0376
     32 H9        -38.2007  -45.7059   14.7362 H         1 BIG         0.0376
     33 H10       -39.9953  -44.0103   14.1080 H         1 BIG         0.0273
     34 H11       -38.7424  -42.7341   14.2756 H         1 BIG         0.0273
     35 H12       -39.7597  -44.6091   16.4496 H         1 BIG         0.0263
     36 H13       -40.0803  -42.8484   16.2947 H         1 BIG         0.0263
     37 H14       -38.3473  -43.3016   17.9709 H         1 BIG         0.0230
     38 H15       -37.6824  -42.3870   16.5753 H         1 BIG         0.0230
     39 H16       -37.3617  -44.1476   16.7302 H         1 BIG         0.0230
     40 H17       -34.5102  -47.2460   12.4080 H         1 BIG         0.0818
     41 H18       -33.3440  -45.9434   12.8202 H         1 BIG         0.0818
     42 H19       -32.8023  -45.6980   10.7195 H         1 BIG         0.2042
     43 H20       -34.1364  -45.0894    8.9991 H         1 BIG         0.0840
     44 H21       -35.4341  -46.1993    9.5566 H         1 BIG         0.0840
     45 H22       -32.3282  -47.8196   10.7394 H         1 BIG         0.0901
     46 H23       -33.0725  -47.4311    9.1514 H         1 BIG         0.0901
     47 H24       -35.2204  -51.6197   11.5527 H         1 BIG         0.2266
     48 H25       -38.4781  -52.3717    9.3272 H         1 BIG         0.1805
     49 H26       -37.1897  -52.5215   10.5520 H         1 BIG         0.1805
@<TRIPOS>BOND
     1   21    1 ar 
     2    1   23 ar 
     3    3    2 ar 
     4   18    2 1  
     5    2   19 ar 
     6    3   21 ar 
     7   22    3 1  
     8    4   18 1  
     9   22    4 2  
    10    6    5 1  
    11    6    7 1  
    12   16    6 1  
    13    7    8 1  
    14   14    7 1  
    15    8    9 1  
    16    9   10 1  
    17   10   11 1  
    18   11   12 1  
    19   12   13 1  
    20   15   14 1  
    21   15   16 1  
    22   17   15 1  
    23   17   22 1  
    24   19   20 1  
    25   19   23 ar 
    26    1   24 1  
    27    4   25 1  
    28    5   26 1  
    29    6   27 1  
    30    7   28 1  
    31    8   29 1  
    32    8   30 1  
    33   10   31 1  
    34   10   32 1  
    35   11   33 1  
    36   11   34 1  
    37   12   35 1  
    38   12   36 1  
    39   13   37 1  
    40   13   38 1  
    41   13   39 1  
    42   14   40 1  
    43   14   41 1  
    44   15   42 1  
    45   16   43 1  
    46   16   44 1  
    47   17   45 1  
    48   17   46 1  
    49   18   47 1  
    50   20   48 1  
    51   20   49 1  
@<TRIPOS>SUBSTRUCTURE
     1 BIG         1

