### 
### Created by X-TOOL on Mon Sep 10 21:13:14 2018
### 

@<TRIPOS>MOLECULE
4fgt_ligand
   71    71     1     0     0
SMALL
GAST_HUCK


@<TRIPOS>ATOM
      1 N          27.9040  -53.3130    9.5420 N.4       1 CYS         0.2385
      2 CA         28.5760  -52.3450   10.4670 C.3       1 CYS         0.0739
      3 C          28.8290  -52.6450   11.9880 C.2       1 CYS         0.2275
      4 O          29.0690  -51.6640   12.6840 O.2       1 CYS        -0.3907
      5 CB         27.7350  -51.0890   10.5280 C.3       1 CYS         0.0511
      6 SG         27.4590  -50.0620    9.1310 S.3       1 CYS        -0.1701
      7 N          28.8660  -53.8460   12.5990 N.am      1 GLN        -0.2608
      8 CA         28.9930  -55.1650   11.9930 C.3       1 GLN         0.1331
      9 C          28.5320  -56.2700   12.9790 C.2       1 GLN         0.2040
     10 O          28.2680  -55.9870   14.1420 O.2       1 GLN        -0.3944
     11 CB         30.4650  -55.3880   11.6360 C.3       1 GLN         0.0045
     12 CG         31.3390  -55.9430   12.7710 C.3       1 GLN         0.0412
     13 CD         31.6210  -54.9370   13.8560 C.2       1 GLN         0.1737
     14 OE1        31.0450  -53.8510   13.8870 O.2       1 GLN        -0.3973
     15 NE2        32.5300  -55.2910   14.7540 N.am      1 GLN        -0.3009
     16 N          28.5120  -57.5410   12.5440 N.am      1 LEU        -0.2637
     17 CA         28.0250  -58.6660   13.4020 C.3       1 LEU         0.1312
     18 C          28.4760  -58.5580   14.8540 C.2       1 LEU         0.2035
     19 O          29.5830  -58.9950   15.1980 O.2       1 LEU        -0.3944
     20 CB         28.2560  -60.0940   12.7940 C.3       1 LEU        -0.0101
     21 CG         29.3980  -60.6080   11.8970 C.3       1 LEU        -0.0425
     22 CD1        30.6130  -61.0850   12.7010 C.3       1 LEU        -0.0625
     23 CD2        28.8990  -61.7370   10.9860 C.3       1 LEU        -0.0625
     24 N          27.5980  -57.9640   15.6790 N.am      1 TYR        -0.2679
     25 CA         27.9320  -57.4080   17.0140 C.3       1 TYR         0.1025
     26 C          29.1500  -58.0190   17.7130 C.2       1 TYR         0.0619
     27 O          30.2370  -57.4340   17.7190 O.co2     1 TYR        -0.5665
     28 CB         26.7220  -57.4380   17.9520 C.3       1 TYR         0.0108
     29 CG         26.7530  -58.5670   18.9400 C.ar      1 TYR        -0.0499
     30 CD1        26.8180  -58.3180   20.3130 C.ar      1 TYR        -0.0686
     31 CD2        26.7510  -59.9020   18.5010 C.ar      1 TYR        -0.0686
     32 CE1        26.8480  -59.3730   21.2230 C.ar      1 TYR        -0.0398
     33 CE2        26.7860  -60.9550   19.3960 C.ar      1 TYR        -0.0398
     34 CZ         26.8340  -60.6840   20.7480 C.ar      1 TYR         0.0805
     35 OH         26.8690  -61.7430   21.6120 O.3       1 TYR        -0.3376
     36 OXT        29.0710  -59.1100   18.2860 O.co2     1 TYR        -0.5665
     37 H1         27.8488  -52.9124    8.6187 H         1 CYS         0.2015
     38 H2         26.9746  -53.5098    9.8789 H         1 CYS         0.2015
     39 H3         28.4364  -54.1681    9.5059 H         1 CYS         0.2015
     40 H4         29.5544  -52.1250   10.0149 H         1 CYS         0.1106
     41 H5         28.2014  -50.4472   11.2900 H         1 CYS         0.0455
     42 H6         26.7400  -51.4055   10.8742 H         1 CYS         0.0455
     43 H7         26.8740  -49.2853    9.3968 H         1 CYS         0.1020
     44 H8         28.7975  -53.8296   13.5965 H         1 GLN         0.1885
     45 H9         28.3778  -55.2113   11.0823 H         1 GLN         0.0801
     46 H10        30.8886  -54.4226   11.3220 H         1 GLN         0.0337
     47 H11        30.5074  -56.0975   10.7965 H         1 GLN         0.0337
     48 H12        32.2975  -56.2726   12.3436 H         1 GLN         0.0504
     49 H13        30.8222  -56.8041   13.2198 H         1 GLN         0.0504
     50 H14        32.7639  -54.6685   15.5008 H         1 GLN         0.1814
     51 H15        32.9816  -56.1805   14.6844 H         1 GLN         0.1814
     52 H16        28.8325  -57.7414   11.6182 H         1 LEU         0.1883
     53 H17        26.9321  -58.5446   13.4315 H         1 LEU         0.0800
     54 H18        27.3448  -60.2893   12.2095 H         1 LEU         0.0315
     55 H19        28.2798  -60.7596   13.6694 H         1 LEU         0.0315
     56 H20        29.7240  -59.7720   11.2607 H         1 LEU         0.0298
     57 H21        31.3931  -61.4392   12.0111 H         1 LEU         0.0232
     58 H22        30.3121  -61.9069   13.3673 H         1 LEU         0.0232
     59 H23        31.0057  -60.2512   13.3015 H         1 LEU         0.0232
     60 H24        28.0277  -61.3875   10.4127 H         1 LEU         0.0232
     61 H25        28.6106  -62.6031   11.5998 H         1 LEU         0.0232
     62 H26        29.7008  -62.0299   10.2923 H         1 LEU         0.0232
     63 H27        26.6494  -57.8910   15.3710 H         1 TYR         0.1877
     64 H28        28.1792  -56.3498   16.8431 H         1 TYR         0.0747
     65 H29        25.8119  -57.5353   17.3419 H         1 TYR         0.0446
     66 H30        26.6906  -56.4899   18.5089 H         1 TYR         0.0446
     67 H31        26.8453  -57.2960   20.6734 H         1 TYR         0.0530
     68 H32        26.7214  -60.1105   17.4377 H         1 TYR         0.0530
     69 H33        26.8819  -59.1767   22.2885 H         1 TYR         0.0525
     70 H34        26.7759  -61.9791   19.0406 H         1 TYR         0.0525
     71 H35        27.6410  -62.2681   21.4365 H         1 TYR         0.2458
@<TRIPOS>BOND
     1    2    1 1  
     2    2    5 1  
     3    3    2 1  
     4    3    4 2  
     5    5    6 1  
     6    8    7 1  
     7    8   11 1  
     8    9    8 1  
     9    9   10 2  
    10   11   12 1  
    11   12   13 1  
    12   13   15 am 
    13   13   14 2  
    14    7    3 am 
    15   17   16 1  
    16   17   20 1  
    17   18   17 1  
    18   18   19 2  
    19   20   21 1  
    20   21   22 1  
    21   21   23 1  
    22   16    9 am 
    23   24   25 1  
    24   25   28 1  
    25   25   26 1  
    26   26   27 ar 
    27   26   36 ar 
    28   28   29 1  
    29   29   30 ar 
    30   29   31 ar 
    31   31   33 ar 
    32   33   34 ar 
    33   34   35 1  
    34   32   34 ar 
    35   30   32 ar 
    36   18   24 am 
    37    1   37 1  
    38    1   38 1  
    39    1   39 1  
    40    2   40 1  
    41    5   41 1  
    42    5   42 1  
    43    6   43 1  
    44    7   44 1  
    45    8   45 1  
    46   11   46 1  
    47   11   47 1  
    48   12   48 1  
    49   12   49 1  
    50   15   50 1  
    51   15   51 1  
    52   16   52 1  
    53   17   53 1  
    54   20   54 1  
    55   20   55 1  
    56   21   56 1  
    57   22   57 1  
    58   22   58 1  
    59   22   59 1  
    60   23   60 1  
    61   23   61 1  
    62   23   62 1  
    63   24   63 1  
    64   25   64 1  
    65   28   65 1  
    66   28   66 1  
    67   30   67 1  
    68   31   68 1  
    69   32   69 1  
    70   33   70 1  
    71   35   71 1  
@<TRIPOS>SUBSTRUCTURE
     1 CYS         1

