### 
### Created by X-TOOL on Mon Sep 10 21:13:09 2018
### 

@<TRIPOS>MOLECULE
4fgz_ligand
   48    50     1     0     0
SMALL
GAST_HUCK


@<TRIPOS>ATOM
      1 C1         34.8920   33.0530   33.7470 C.ar      1 CQA         0.0429
      2 C2         34.6940   34.3690   33.2220 C.ar      1 CQA        -0.0451
      3 C3         33.9390   34.5470   32.0610 C.ar      1 CQA        -0.0464
      4 C4         33.3960   33.3950   31.4040 C.ar      1 CQA         0.0343
      5 C5         33.6020   32.1170   31.8980 C.ar      1 CQA         0.0321
      6 C6         34.3510   31.9400   33.0920 C.ar      1 CQA        -0.0319
      7 C7         32.6200   33.5560   30.2110 C.ar      1 CQA         0.0890
      8 C8         32.0730   32.4050   29.5670 C.ar      1 CQA        -0.0138
      9 C9         32.2990   31.1280   30.1170 C.ar      1 CQA        -0.0102
     10 N1         33.0530   31.0080   31.2360 N.ar      1 CQA        -0.3207
     11 CL         35.8210   32.8670   35.2060 Cl        1 CQA        -0.0674
     12 N2         32.4120   34.9200   29.6910 N.pl3     1 CQA        -0.2684
     13 C10        31.4130   35.1600   28.6460 C.ar      1 CQA         0.0475
     14 C11        30.0470   34.8890   28.9370 C.ar      1 CQA        -0.0529
     15 C12        29.0820   35.1210   27.9460 C.ar      1 CQA        -0.0482
     16 C13        29.4770   35.6250   26.6860 C.ar      1 CQA         0.0831
     17 C14        30.8260   35.8970   26.4040 C.ar      1 CQA         0.0219
     18 C15        31.8140   35.6660   27.4080 C.ar      1 CQA        -0.0392
     19 O          28.5280   35.8590   25.6890 O.3       1 CQA        -0.3437
     20 C16        31.1970   36.4520   25.0140 C.3       1 CQA        -0.0019
     21 N3         31.3150   37.9300   24.8780 N.4       1 CQA         0.2452
     22 C17        30.3750   38.6930   25.6870 C.3       1 CQA        -0.0336
     23 C18        30.9470   39.3960   26.8730 C.3       1 CQA        -0.0244
     24 C19        31.4210   38.4360   23.4950 C.3       1 CQA        -0.0336
     25 C20        30.9920   39.8530   23.2100 C.3       1 CQA        -0.0244
     26 H1         35.1289   35.2256   33.7242 H         1 CQA         0.0614
     27 H2         33.7664   35.5405   31.6631 H         1 CQA         0.0656
     28 H3         34.5034   30.9454   33.4952 H         1 CQA         0.0618
     29 H4         31.4878   32.5131   28.6610 H         1 CQA         0.0553
     30 H5         31.8729   30.2482   29.6485 H         1 CQA         0.0802
     31 H6         32.9684   35.7035   30.0619 H         1 CQA         0.2143
     32 H7         29.7565   34.5090   29.9098 H         1 CQA         0.0456
     33 H8         28.0368   34.9145   28.1458 H         1 CQA         0.0496
     34 H9         32.8585   35.8799   27.2125 H         1 CQA         0.0452
     35 H10        27.6650   35.6330   26.0155 H         1 CQA         0.2421
     36 H11        30.4243   36.1158   24.3070 H         1 CQA         0.0955
     37 H12        32.1667   36.0159   24.7321 H         1 CQA         0.0955
     38 H13        32.2146   38.1357   25.2835 H         1 CQA         0.2046
     39 H14        29.6024   37.9986   26.0487 H         1 CQA         0.0812
     40 H15        29.9120   39.4512   25.0384 H         1 CQA         0.0812
     41 H16        30.1464   39.9342   27.4015 H         1 CQA         0.0281
     42 H17        31.7128   40.1123   26.5406 H         1 CQA         0.0281
     43 H18        31.4032   38.6596   27.5509 H         1 CQA         0.0281
     44 H19        30.8083   37.7781   22.8612 H         1 CQA         0.0812
     45 H20        32.4769   38.3512   23.1987 H         1 CQA         0.0812
     46 H21        31.1334   40.0709   22.1411 H         1 CQA         0.0281
     47 H22        31.5991   40.5475   23.8092 H         1 CQA         0.0281
     48 H23        29.9305   39.9744   23.4716 H         1 CQA         0.0281
@<TRIPOS>BOND
     1    1    2 ar 
     2    1    6 ar 
     3    1   11 1  
     4    2    3 ar 
     5    3    4 ar 
     6    4    5 ar 
     7    4    7 ar 
     8    5    6 ar 
     9    5   10 ar 
    10    7    8 ar 
    11    7   12 1  
    12    8    9 ar 
    13    9   10 ar 
    14   12   13 1  
    15   13   14 ar 
    16   13   18 ar 
    17   14   15 ar 
    18   15   16 ar 
    19   16   17 ar 
    20   16   19 1  
    21   17   18 ar 
    22   17   20 1  
    23   20   21 1  
    24   21   22 1  
    25   21   24 1  
    26   22   23 1  
    27   24   25 1  
    28    2   26 1  
    29    3   27 1  
    30    6   28 1  
    31    8   29 1  
    32    9   30 1  
    33   12   31 1  
    34   14   32 1  
    35   15   33 1  
    36   18   34 1  
    37   19   35 1  
    38   20   36 1  
    39   20   37 1  
    40   21   38 1  
    41   22   39 1  
    42   22   40 1  
    43   23   41 1  
    44   23   42 1  
    45   23   43 1  
    46   24   44 1  
    47   24   45 1  
    48   25   46 1  
    49   25   47 1  
    50   25   48 1  
@<TRIPOS>SUBSTRUCTURE
     1 CQA         1

