### 
### Created by X-TOOL on Mon Sep 10 21:13:11 2018
### 

@<TRIPOS>MOLECULE
4fhh_ligand
   72    73     1     0     0
SMALL
GAST_HUCK


@<TRIPOS>ATOM
      1 C1          2.4420   37.4690   37.5710 C.ar      1 0U3        -0.0123
      2 C2          1.5220   38.5270   37.8510 C.ar      1 0U3         0.1256
      3 C3          0.1520   38.2090   38.4600 C.ar      1 0U3         0.0081
      4 C4         -0.1620   36.8480   38.7340 C.ar      1 0U3        -0.0589
      5 C5          0.7720   35.7310   38.4550 C.ar      1 0U3        -0.0967
      6 C6          2.0770   36.1060   37.8660 C.ar      1 0U3        -0.0647
      7 C7          0.3310   34.2240   38.8030 C.3       1 0U3        -0.0587
      8 C8          0.8590   32.9690   37.9550 C.ar      1 0U3        -0.0967
      9 C9         -1.2950   34.0020   38.7560 C.3       1 0U3        -0.0958
     10 C10         0.7250   34.0950   40.3900 C.3       1 0U3        -0.0958
     11 C11         2.2050   34.2430   40.9270 C.3       1 0U3        -0.0781
     12 C12        -2.1550   34.0500   37.4330 C.3       1 0U3        -0.0781
     13 C13         1.1940   31.6450   38.6000 C.ar      1 0U3        -0.0589
     14 C14         1.6460   30.5300   37.8420 C.ar      1 0U3         0.0079
     15 C15         1.7740   30.7340   36.3080 C.ar      1 0U3         0.1225
     16 C16         1.9770   29.2150   38.5190 C.3       1 0U3        -0.0271
     17 C17         1.4410   32.0410   35.7270 C.ar      1 0U3        -0.0125
     18 C18         1.0130   33.0830   36.5090 C.ar      1 0U3        -0.0647
     19 O19         1.8540   39.7890   37.5830 O.3       1 0U3        -0.2816
     20 O22         4.9900   42.0940   36.6310 O.3       1 0U3        -0.2716
     21 C20         2.4610   40.4630   38.7050 C.3       1 0U3         0.1662
     22 C21         3.5280   41.4430   38.2240 C.2       1 0U3         0.2308
     23 N23         4.0330   41.2050   37.0390 N.am      1 0U3        -0.1619
     24 O24         3.8990   42.3960   38.9000 O.2       1 0U3        -0.3939
     25 C25         4.6560   29.5660   32.5910 C.3       1 0U3        -0.0091
     26 C26         4.7700   28.1320   32.0150 C.3       1 0U3        -0.0576
     27 C27         3.6030   30.2140   31.6080 C.3       1 0U3        -0.0576
     28 C28         5.9990   30.1910   32.4830 C.3       1 0U3        -0.0576
     29 C29         3.1260   30.1730   34.4570 C.3       1 0U3         0.1024
     30 O30         2.2490   29.5330   35.4950 O.3       1 0U3        -0.2993
     31 C31         4.4440   29.5550   34.1310 C.3       1 0U3         0.0887
     32 O32         4.4090   28.2680   34.7550 O.3       1 0U3        -0.3885
     33 C33        -0.9240   39.2520   38.8070 C.3       1 0U3        -0.0271
     34 H1          3.4108   37.6911   37.1383 H         1 0U3         0.0608
     35 H2         -1.1288   36.6176   39.1667 H         1 0U3         0.0674
     36 H3          2.7906   35.3201   37.6465 H         1 0U3         0.0714
     37 H4         -1.7203   34.7724   39.4160 H         1 0U3         0.0095
     38 H5         -1.4728   33.0075   39.1911 H         1 0U3         0.0095
     39 H6          0.3871   33.0969   40.7055 H         1 0U3         0.0095
     40 H7          0.1357   34.8635   40.9115 H         1 0U3         0.0095
     41 H8          2.2129   34.1167   42.0197 H         1 0U3         0.0217
     42 H9          2.5901   35.2409   40.6705 H         1 0U3         0.0217
     43 H10         2.8415   33.4743   40.4645 H         1 0U3         0.0217
     44 H11        -3.2126   33.8707   37.6765 H         1 0U3         0.0217
     45 H12        -1.8021   33.2739   36.7379 H         1 0U3         0.0217
     46 H13        -2.0496   35.0388   36.9628 H         1 0U3         0.0217
     47 H14         1.0866   31.5416   39.6737 H         1 0U3         0.0674
     48 H15         1.8114   29.3085   39.6024 H         1 0U3         0.0376
     49 H16         3.0302   28.9600   38.3297 H         1 0U3         0.0376
     50 H17         1.3296   28.4221   38.1163 H         1 0U3         0.0376
     51 H18         1.5356   32.1852   34.6568 H         1 0U3         0.0607
     52 H19         0.7799   34.0289   36.0337 H         1 0U3         0.0714
     53 H20         4.6166   42.9669   36.5988 H         1 0U3         0.2490
     54 H21         2.9257   39.7177   39.3673 H         1 0U3         0.0871
     55 H22         1.6866   41.0137   39.2591 H         1 0U3         0.0871
     56 H23         3.7413   40.4323   36.4753 H         1 0U3         0.2217
     57 H24         4.9188   28.1849   30.9264 H         1 0U3         0.0236
     58 H25         3.8466   27.5751   32.2322 H         1 0U3         0.0236
     59 H26         5.6256   27.6180   32.4774 H         1 0U3         0.0236
     60 H27         3.4199   31.2578   31.9030 H         1 0U3         0.0236
     61 H28         2.6605   29.6488   31.6558 H         1 0U3         0.0236
     62 H29         3.9952   30.1868   30.5807 H         1 0U3         0.0236
     63 H30         6.6885   29.7023   33.1871 H         1 0U3         0.0236
     64 H31         5.9258   31.2615   32.7250 H         1 0U3         0.0236
     65 H32         6.3774   30.0720   31.4570 H         1 0U3         0.0236
     66 H33         3.3285   31.1993   34.7970 H         1 0U3         0.0652
     67 H34         2.5465   30.2039   33.5225 H         1 0U3         0.0652
     68 H35         5.2563   30.1421   34.5842 H         1 0U3         0.0626
     69 H36         4.2917   28.3745   35.6917 H         1 0U3         0.2099
     70 H37        -0.5580   40.2565   38.5480 H         1 0U3         0.0376
     71 H38        -1.1434   39.2082   39.8840 H         1 0U3         0.0376
     72 H39        -1.8401   39.0373   38.2371 H         1 0U3         0.0376
@<TRIPOS>BOND
     1    1    2 ar 
     2    6    1 ar 
     3    3    2 ar 
     4    2   19 1  
     5    4    3 ar 
     6    3   33 1  
     7    5    4 ar 
     8    5    6 ar 
     9    7    5 1  
    10    8    7 1  
    11    7    9 1  
    12    7   10 1  
    13   13    8 ar 
    14   18    8 ar 
    15    9   12 1  
    16   10   11 1  
    17   14   13 ar 
    18   15   14 ar 
    19   14   16 1  
    20   15   17 ar 
    21   30   15 1  
    22   17   18 ar 
    23   19   21 1  
    24   23   20 1  
    25   21   22 1  
    26   22   23 am 
    27   22   24 2  
    28   25   26 1  
    29   25   27 1  
    30   25   28 1  
    31   31   25 1  
    32   29   30 1  
    33   29   31 1  
    34   31   32 1  
    35    1   34 1  
    36    4   35 1  
    37    6   36 1  
    38    9   37 1  
    39    9   38 1  
    40   10   39 1  
    41   10   40 1  
    42   11   41 1  
    43   11   42 1  
    44   11   43 1  
    45   12   44 1  
    46   12   45 1  
    47   12   46 1  
    48   13   47 1  
    49   16   48 1  
    50   16   49 1  
    51   16   50 1  
    52   17   51 1  
    53   18   52 1  
    54   20   53 1  
    55   21   54 1  
    56   21   55 1  
    57   23   56 1  
    58   26   57 1  
    59   26   58 1  
    60   26   59 1  
    61   27   60 1  
    62   27   61 1  
    63   27   62 1  
    64   28   63 1  
    65   28   64 1  
    66   28   65 1  
    67   29   66 1  
    68   29   67 1  
    69   31   68 1  
    70   32   69 1  
    71   33   70 1  
    72   33   71 1  
    73   33   72 1  
@<TRIPOS>SUBSTRUCTURE
     1 0U3         1

