### 
### Created by X-TOOL on Mon Sep 10 21:13:11 2018
### 

@<TRIPOS>MOLECULE
4fhi_ligand
   72    73     1     0     0
SMALL
GAST_HUCK


@<TRIPOS>ATOM
      1 C1          2.4200   37.3040   37.9780 C.ar      1 0S4        -0.0123
      2 C2          1.4790   38.3660   38.1490 C.ar      1 0S4         0.1256
      3 C3          0.0520   38.0780   38.5780 C.ar      1 0S4         0.0081
      4 C4         -0.3160   36.7080   38.8060 C.ar      1 0S4        -0.0589
      5 C5          0.6530   35.5850   38.6300 C.ar      1 0S4        -0.0967
      6 C6          2.0210   35.9590   38.2110 C.ar      1 0S4        -0.0647
      7 C7          0.1870   34.0650   38.9090 C.3       1 0S4        -0.0587
      8 C8          0.8700   32.8560   38.0660 C.ar      1 0S4        -0.0967
      9 C9         -1.4280   33.8680   38.7150 C.3       1 0S4        -0.0958
     10 C10         0.4930   33.9080   40.5250 C.3       1 0S4        -0.0958
     11 C11         1.9680   34.0350   41.1440 C.3       1 0S4        -0.0781
     12 C12        -2.1200   33.9640   37.2840 C.3       1 0S4        -0.0781
     13 C13         1.1790   31.5010   38.6730 C.ar      1 0S4        -0.0589
     14 C14         1.7830   30.4460   37.9040 C.ar      1 0S4         0.0079
     15 C15         2.1090   30.7450   36.4170 C.ar      1 0S4         0.1225
     16 C16         2.0930   29.0790   38.5240 C.3       1 0S4        -0.0271
     17 C17         1.7940   32.0730   35.8590 C.ar      1 0S4        -0.0125
     18 C18         1.2140   33.0510   36.6450 C.ar      1 0S4        -0.0647
     19 O19         1.8510   39.6300   37.9320 O.3       1 0S4        -0.2816
     20 O22         4.7580   41.9190   36.5890 O.3       1 0S4        -0.2716
     21 C20         2.5720   40.2850   38.9640 C.3       1 0S4         0.1662
     22 C21         3.6980   41.1550   38.4510 C.2       1 0S4         0.2308
     23 N23         4.0850   40.9080   37.2210 N.am      1 0S4        -0.1619
     24 O24         4.2070   42.0300   39.1410 O.2       1 0S4        -0.3939
     25 C25         4.8400   29.2270   32.5080 C.3       1 0S4        -0.0091
     26 C26         4.0600   30.0400   31.4540 C.3       1 0S4        -0.0576
     27 C27         6.1250   30.0260   32.8060 C.3       1 0S4        -0.0576
     28 C28         5.1980   27.8560   31.9190 C.3       1 0S4        -0.0576
     29 C29         3.4810   30.1570   34.5010 C.3       1 0S4         0.1024
     30 O30         2.6810   29.7770   35.6370 O.3       1 0S4        -0.2993
     31 C31         3.9850   28.9220   33.7700 C.3       1 0S4         0.0887
     32 O32         4.7420   28.1720   34.7600 O.3       1 0S4        -0.3885
     33 C33        -1.0180   39.1640   38.7830 C.3       1 0S4        -0.0271
     34 H1          3.4363   37.5234   37.6712 H         1 0S4         0.0608
     35 H2         -1.3299   36.4820   39.1158 H         1 0S4         0.0674
     36 H3          2.7535   35.1716   38.0752 H         1 0S4         0.0714
     37 H4         -1.9098   34.6321   39.3427 H         1 0S4         0.0095
     38 H5         -1.6663   32.8681   39.1066 H         1 0S4         0.0095
     39 H6          0.1288   32.9095   40.8084 H         1 0S4         0.0095
     40 H7         -0.1147   34.6759   41.0261 H         1 0S4         0.0095
     41 H8          1.9216   33.8943   42.2340 H         1 0S4         0.0217
     42 H9          2.3750   35.0321   40.9201 H         1 0S4         0.0217
     43 H10         2.6185   33.2657   40.7024 H         1 0S4         0.0217
     44 H11        -3.2027   33.8005   37.3886 H         1 0S4         0.0217
     45 H12        -1.6959   33.1969   36.6194 H         1 0S4         0.0217
     46 H13        -1.9395   34.9609   36.8555 H         1 0S4         0.0217
     47 H14         0.9381   31.3226   39.7147 H         1 0S4         0.0674
     48 H15         1.7858   29.0773   39.5802 H         1 0S4         0.0376
     49 H16         3.1731   28.8819   38.4560 H         1 0S4         0.0376
     50 H17         1.5426   28.2967   37.9809 H         1 0S4         0.0376
     51 H18         2.0199   32.2848   34.8202 H         1 0S4         0.0607
     52 H19         1.0005   34.0128   36.1928 H         1 0S4         0.0714
     53 H20         4.9921   41.6417   35.7111 H         1 0S4         0.2490
     54 H21         2.9979   39.5209   39.6310 H         1 0S4         0.0871
     55 H22         1.8728   40.9177   39.5304 H         1 0S4         0.0871
     56 H23         3.8993   40.0337   36.7726 H         1 0S4         0.2217
     57 H24         4.7066   30.2287   30.5844 H         1 0S4         0.0236
     58 H25         3.7439   30.9988   31.8907 H         1 0S4         0.0236
     59 H26         3.1734   29.4722   31.1353 H         1 0S4         0.0236
     60 H27         6.7244   29.4898   33.5564 H         1 0S4         0.0236
     61 H28         5.8572   31.0202   33.1930 H         1 0S4         0.0236
     62 H29         6.7100   30.1378   31.8812 H         1 0S4         0.0236
     63 H30         4.2755   27.2945   31.7102 H         1 0S4         0.0236
     64 H31         5.8126   27.2965   32.6396 H         1 0S4         0.0236
     65 H32         5.7625   27.9942   30.9851 H         1 0S4         0.0236
     66 H33         4.3409   30.7503   34.8455 H         1 0S4         0.0652
     67 H34         2.8705   30.7610   33.8136 H         1 0S4         0.0652
     68 H35         3.1191   28.3256   33.4466 H         1 0S4         0.0626
     69 H36         4.1722   27.9405   35.4840 H         1 0S4         0.2099
     70 H37        -0.5832   40.1518   38.5706 H         1 0S4         0.0376
     71 H38        -1.3741   39.1362   39.8234 H         1 0S4         0.0376
     72 H39        -1.8618   38.9807   38.1016 H         1 0S4         0.0376
@<TRIPOS>BOND
     1    1    2 ar 
     2    6    1 ar 
     3    3    2 ar 
     4    2   19 1  
     5    4    3 ar 
     6    3   33 1  
     7    5    4 ar 
     8    5    6 ar 
     9    7    5 1  
    10    8    7 1  
    11    7    9 1  
    12    7   10 1  
    13   13    8 ar 
    14   18    8 ar 
    15    9   12 1  
    16   10   11 1  
    17   14   13 ar 
    18   15   14 ar 
    19   14   16 1  
    20   15   17 ar 
    21   30   15 1  
    22   17   18 ar 
    23   19   21 1  
    24   23   20 1  
    25   21   22 1  
    26   22   23 am 
    27   22   24 2  
    28   25   26 1  
    29   25   27 1  
    30   25   28 1  
    31   31   25 1  
    32   29   30 1  
    33   29   31 1  
    34   31   32 1  
    35    1   34 1  
    36    4   35 1  
    37    6   36 1  
    38    9   37 1  
    39    9   38 1  
    40   10   39 1  
    41   10   40 1  
    42   11   41 1  
    43   11   42 1  
    44   11   43 1  
    45   12   44 1  
    46   12   45 1  
    47   12   46 1  
    48   13   47 1  
    49   16   48 1  
    50   16   49 1  
    51   16   50 1  
    52   17   51 1  
    53   18   52 1  
    54   20   53 1  
    55   21   54 1  
    56   21   55 1  
    57   23   56 1  
    58   26   57 1  
    59   26   58 1  
    60   26   59 1  
    61   27   60 1  
    62   27   61 1  
    63   27   62 1  
    64   28   63 1  
    65   28   64 1  
    66   28   65 1  
    67   29   66 1  
    68   29   67 1  
    69   31   68 1  
    70   32   69 1  
    71   33   70 1  
    72   33   71 1  
    73   33   72 1  
@<TRIPOS>SUBSTRUCTURE
     1 0S4         1

