### 
### Created by X-TOOL on Mon Sep 10 21:13:14 2018
### 

@<TRIPOS>MOLECULE
4fht_ligand
   16    16     1     0     0
SMALL
GAST_HUCK


@<TRIPOS>ATOM
      1 C1         33.3450   39.6320   23.2620 C.ar      1 DHB        -0.0099
      2 C2         32.3430   40.3070   22.5840 C.ar      1 DHB        -0.0276
      3 C3         32.4970   41.6470   22.2640 C.ar      1 DHB         0.1197
      4 O3         31.5030   42.3090   21.5790 O.3       1 DHB        -0.3362
      5 C4         33.6540   42.3170   22.6270 C.ar      1 DHB         0.1194
      6 O4         33.7970   43.6470   22.3080 O.3       1 DHB        -0.3347
      7 C5         34.6620   41.6470   23.3090 C.ar      1 DHB        -0.0375
      8 C6         34.5080   40.3020   23.6270 C.ar      1 DHB        -0.0674
      9 C          33.1640   38.1910   23.6070 C.2       1 DHB         0.0531
     10 O1         32.3900   37.4690   22.9240 O.co2     1 DHB        -0.5637
     11 O2         33.7180   37.7180   24.6320 O.co2     1 DHB        -0.5637
     12 H1         31.4353   39.7854   22.3027 H         1 DHB         0.0540
     13 H2         31.7630   43.2122   21.4402 H         1 DHB         0.2442
     14 H3         34.6374   43.9584   22.6228 H         1 DHB         0.2455
     15 H4         35.5671   42.1718   23.5928 H         1 DHB         0.0518
     16 H5         35.2931   39.7765   24.1585 H         1 DHB         0.0531
@<TRIPOS>BOND
     1    1    2 ar 
     2    1    8 ar 
     3    1    9 1  
     4    2    3 ar 
     5    3    4 1  
     6    3    5 ar 
     7    5    6 1  
     8    5    7 ar 
     9    7    8 ar 
    10    9   10 ar 
    11    9   11 ar 
    12    2   12 1  
    13    4   13 1  
    14    6   14 1  
    15    7   15 1  
    16    8   16 1  
@<TRIPOS>SUBSTRUCTURE
     1 DHB         1

