### 
### Created by X-TOOL on Mon Sep 10 21:13:14 2018
### 

@<TRIPOS>MOLECULE
4fic_ligand
   25    27     1     0     0
SMALL
GAST_HUCK


@<TRIPOS>ATOM
      1 CAE        13.5420  -38.9770   -0.8960 C.ar      1 0UL        -0.0563
      2 CAC        14.5390  -39.6870   -0.2190 C.ar      1 0UL        -0.0638
      3 CAB        15.8680  -39.2490   -0.2400 C.ar      1 0UL        -0.0641
      4 CAD        16.2000  -38.0890   -0.9440 C.ar      1 0UL        -0.0638
      5 CAF        15.2090  -37.3680   -1.6230 C.ar      1 0UL        -0.0563
      6 CAM        13.8750  -37.8120   -1.6060 C.ar      1 0UL        -0.0071
      7 CAN        12.8810  -37.0830   -2.2740 C.2       1 0UL         0.0863
      8 NAI        11.6090  -37.5390   -2.3400 N.2       1 0UL        -0.2821
      9 CAG        10.6040  -36.8140   -3.0030 C.2       1 0UL         0.0713
     10 CAO        10.9060  -35.6420   -3.5790 C.2       1 0UL         0.1910
     11 NAJ        10.1700  -34.7640   -4.2580 N.2       1 0UL        -0.2775
     12 CAL        11.0050  -33.7770   -4.5730 C.2       1 0UL         0.1485
     13 NAA        10.6340  -32.6910   -5.2560 N.pl3     1 0UL        -0.3206
     14 NAK        12.2370  -34.0360   -4.1130 N.2       1 0UL        -0.1729
     15 NAP        12.1630  -35.1730   -3.5190 N.pl3     1 0UL        -0.1331
     16 CAH        13.1950  -35.8610   -2.8700 C.2       1 0UL         0.1230
     17 H1         12.5156  -39.3249   -0.8727 H         1 0UL         0.0602
     18 H2         14.2794  -40.5862    0.3279 H         1 0UL         0.0611
     19 H3         16.6346  -39.8061    0.2864 H         1 0UL         0.0597
     20 H4         17.2279  -37.7455   -0.9650 H         1 0UL         0.0611
     21 H5         15.4714  -36.4654   -2.1629 H         1 0UL         0.0602
     22 H6          9.5873  -37.2016   -3.0484 H         1 0UL         0.0988
     23 H7          9.6574  -32.5864   -5.5662 H         1 0UL         0.1743
     24 H8         11.3245  -31.9580   -5.4725 H         1 0UL         0.1743
     25 H9         14.2057  -35.4574   -2.8317 H         1 0UL         0.1276
@<TRIPOS>BOND
     1    1    2 ar 
     2    1    6 ar 
     3    2    3 ar 
     4    3    4 ar 
     5    4    5 ar 
     6    5    6 ar 
     7    6    7 1  
     8    7    8 1  
     9    7   16 2  
    10    8    9 2  
    11    9   10 1  
    12   10   11 2  
    13   10   15 1  
    14   11   12 1  
    15   12   13 1  
    16   12   14 2  
    17   14   15 1  
    18   15   16 1  
    19    1   17 1  
    20    2   18 1  
    21    3   19 1  
    22    4   20 1  
    23    5   21 1  
    24    9   22 1  
    25   13   23 1  
    26   13   24 1  
    27   16   25 1  
@<TRIPOS>SUBSTRUCTURE
     1 0UL         1

