### 
### Created by X-TOOL on Mon Sep 10 21:13:11 2018
### 

@<TRIPOS>MOLECULE
4fjz_ligand
   68    74     1     0     0
SMALL
GAST_HUCK


@<TRIPOS>ATOM
      1 C11        22.2990   17.8390   21.5940 C.3       1 4FJ        -0.0275
      2 C13        17.9210   19.7070   22.3140 C.ar      1 4FJ        -0.0402
      3 C14        18.5780   20.9090   22.5530 C.ar      1 4FJ        -0.0327
      4 C16        24.4700   16.1860   18.9580 C.3       1 4FJ         0.0283
      5 C17        25.4250   15.1050   19.4690 C.3       1 4FJ        -0.0162
      6 C19        23.3720   14.9590   20.6190 C.ar      1 4FJ         0.1056
      7 C21        22.9370   13.4690   22.4490 C.ar      1 4FJ         0.0959
      8 C22        22.5010   14.4610   21.5820 C.ar      1 4FJ         0.0287
      9 C23        25.7330   14.0460   18.3930 C.3       1 4FJ        -0.0579
     10 C24        26.8010   14.5500   17.4180 C.3       1 4FJ         0.0376
     11 C25        27.5480   16.2420   18.8420 C.3       1 4FJ         0.0376
     12 C27        22.3300   11.6770   24.0350 C.3       1 4FJ         0.0585
     13 C28        21.0340   10.9050   24.0250 C.3       1 4FJ         0.0690
     14 C30        20.8700   13.7140   23.8170 C.3       1 4FJ         0.0585
     15 O1         27.9490   15.0920   18.0870 O.3       1 4FJ        -0.3819
     16 C26        26.7140   15.7330   20.0130 C.3       1 4FJ        -0.0579
     17 C18        24.6630   14.4280   20.5760 C.ar      1 4FJ         0.0286
     18 N4         25.0590   13.4670   21.4260 N.ar      1 4FJ        -0.2905
     19 C20        24.2430   12.9880   22.3480 C.ar      1 4FJ         0.0560
     20 N5         22.0700   12.9660   23.4080 N.pl3     1 4FJ        -0.2827
     21 O2         20.0510   11.6220   24.7780 O.3       1 4FJ        -0.3756
     22 C29        19.6660   12.7880   24.0490 C.3       1 4FJ         0.0690
     23 N2         23.2140   15.9090   19.6810 N.pl3     1 4FJ        -0.2402
     24 C7         22.0520   16.5460   19.4270 C.ar      1 4FJ         0.1057
     25 C8         21.5320   17.5010   20.3080 C.ar      1 4FJ         0.0184
     26 C1         21.3220   16.2630   18.2680 C.ar      1 4FJ         0.0298
     27 C6         21.7910   15.3240   17.3540 C.ar      1 4FJ        -0.0483
     28 C5         21.0690   15.0440   16.2000 C.ar      1 4FJ        -0.0249
     29 C4         19.8730   15.7040   15.9490 C.ar      1 4FJ         0.1341
     30 F1         19.1890   15.4280   14.8190 F         1 4FJ        -0.1817
     31 C3         19.4010   16.6440   16.8580 C.ar      1 4FJ        -0.0145
     32 C2         20.1190   16.9230   18.0150 C.ar      1 4FJ         0.0286
     33 N1         19.6460   17.8330   18.8740 N.ar      1 4FJ        -0.3138
     34 C9         20.3150   18.1410   19.9980 C.ar      1 4FJ         0.0563
     35 C10        19.7440   19.0850   20.8530 C.ar      1 4FJ         0.0657
     36 C12        18.5150   18.7880   21.4540 C.ar      1 4FJ        -0.0240
     37 C15        19.8030   21.1560   21.9270 C.ar      1 4FJ         0.0122
     38 N3         20.3490   20.2610   21.1080 N.ar      1 4FJ        -0.2882
     39 H          22.5621   18.8968   21.5912 H         1 4FJ         0.0379
     40 H          21.6708   17.6218   22.4579 H         1 4FJ         0.0379
     41 H          23.2068   17.2376   21.6428 H         1 4FJ         0.0379
     42 H          16.9641   19.4898   22.7886 H         1 4FJ         0.0740
     43 H          18.1421   21.6511   23.2218 H         1 4FJ         0.0719
     44 H          24.3440   16.1533   17.8758 H         1 4FJ         0.0460
     45 H          24.8436   17.1933   19.1421 H         1 4FJ         0.0460
     46 H          21.4842   14.8467   21.6552 H         1 4FJ         0.0613
     47 H          24.8200   13.8381   17.8351 H         1 4FJ         0.0155
     48 H          26.1038   13.1461   18.8837 H         1 4FJ         0.0155
     49 H          26.3578   15.3439   16.8168 H         1 4FJ         0.0549
     50 H          27.1323   13.7031   16.8171 H         1 4FJ         0.0549
     51 H          26.9691   16.9283   18.2239 H         1 4FJ         0.0549
     52 H          28.4179   16.7943   19.1975 H         1 4FJ         0.0549
     53 H          23.1033   11.1350   23.4907 H         1 4FJ         0.0557
     54 H          22.6877   11.8124   25.0557 H         1 4FJ         0.0557
     55 H          21.1907    9.9229   24.4711 H         1 4FJ         0.0581
     56 H          20.6897   10.7831   22.9980 H         1 4FJ         0.0581
     57 H          20.6148   14.4116   23.0193 H         1 4FJ         0.0557
     58 H          21.0907   14.2272   24.7530 H         1 4FJ         0.0557
     59 H          27.2798   14.9875   20.5717 H         1 4FJ         0.0155
     60 H          26.4683   16.5611   20.6778 H         1 4FJ         0.0155
     61 H          24.5912   12.2143   23.0323 H         1 4FJ         0.0847
     62 H          19.2693   12.4806   23.0814 H         1 4FJ         0.0581
     63 H          18.9147   13.3285   24.6248 H         1 4FJ         0.0581
     64 H          22.7304   14.8050   17.5445 H         1 4FJ         0.0639
     65 H          21.4420   14.3052   15.4907 H         1 4FJ         0.0614
     66 H          18.4635   17.1646   16.6625 H         1 4FJ         0.0583
     67 H          18.0234   17.8371   21.2484 H         1 4FJ         0.0732
     68 H          20.3196   22.0976   22.1129 H         1 4FJ         0.0832
@<TRIPOS>BOND
     1   25    1 1  
     2    2    3 ar 
     3   36    2 ar 
     4    3   37 ar 
     5    4    5 1  
     6   23    4 1  
     7    5    9 1  
     8    5   16 1  
     9   17    5 1  
    10    6    8 ar 
    11    6   17 ar 
    12   23    6 1  
    13    8    7 ar 
    14    7   19 ar 
    15    7   20 1  
    16    9   10 1  
    17   10   15 1  
    18   11   15 1  
    19   16   11 1  
    20   12   13 1  
    21   20   12 1  
    22   13   21 1  
    23   20   14 1  
    24   14   22 1  
    25   17   18 ar 
    26   18   19 ar 
    27   22   21 1  
    28   24   23 1  
    29   25   24 ar 
    30   24   26 ar 
    31   34   25 ar 
    32   26   27 ar 
    33   32   26 ar 
    34   27   28 ar 
    35   29   28 ar 
    36   29   30 1  
    37   31   29 ar 
    38   32   31 ar 
    39   33   32 ar 
    40   34   33 ar 
    41   35   34 1  
    42   35   36 ar 
    43   35   38 ar 
    44   37   38 ar 
    45    1   39 1  
    46    1   40 1  
    47    1   41 1  
    48    2   42 1  
    49    3   43 1  
    50    4   44 1  
    51    4   45 1  
    52    8   46 1  
    53    9   47 1  
    54    9   48 1  
    55   10   49 1  
    56   10   50 1  
    57   11   51 1  
    58   11   52 1  
    59   12   53 1  
    60   12   54 1  
    61   13   55 1  
    62   13   56 1  
    63   14   57 1  
    64   14   58 1  
    65   16   59 1  
    66   16   60 1  
    67   19   61 1  
    68   22   62 1  
    69   22   63 1  
    70   27   64 1  
    71   28   65 1  
    72   31   66 1  
    73   36   67 1  
    74   37   68 1  
@<TRIPOS>SUBSTRUCTURE
     1 4FJ         1

