### 
### Created by X-TOOL on Mon Sep 10 21:13:11 2018
### 

@<TRIPOS>MOLECULE
4fk6_ligand
   46    50     1     0     0
SMALL
GAST_HUCK


@<TRIPOS>ATOM
      1 C4          9.6870   55.9770    0.3100 C.3       1 0UJ         0.1071
      2 C14         5.4370   54.9300    1.2690 C.3       1 0UJ        -0.0198
      3 C5          8.5470   56.9800    0.4140 C.2       1 0UJ         0.1419
      4 C11         5.9420   55.5030    3.5830 C.3       1 0UJ        -0.0445
      5 C7          6.9140   55.3810    1.3970 C.3       1 0UJ         0.0726
      6 C9          7.3020   55.1230    2.8940 C.3       1 0UJ        -0.0108
      7 C12         5.0850   54.4910    2.7340 C.3       1 0UJ        -0.0380
      8 N3         10.8900   56.5150   -0.3520 N.am      1 0UJ        -0.2323
      9 C1         11.7140   54.2480   -1.7760 C.3       1 0UJ         0.0734
     10 S2         11.3130   56.0130   -1.8900 S.o2      1 0UJ         0.0385
     11 N6          7.2910   56.7280    0.9130 N.pl3     1 0UJ        -0.2257
     12 C15         7.3700   53.5630    3.0580 C.3       1 0UJ        -0.0472
     13 C16         5.8410   53.1370    2.9900 C.3       1 0UJ        -0.0498
     14 C17         6.5720   57.9230    0.8690 C.ar      1 0UJ         0.0888
     15 C18         5.2770   58.4160    1.2120 C.ar      1 0UJ         0.0191
     16 C19         4.0620   57.8610    1.8170 C.2       1 0UJ        -0.0611
     17 C20         3.1510   58.8490    1.9220 C.2       1 0UJ         0.0211
     18 N21         3.6780   60.0110    1.4140 N.pl3     1 0UJ        -0.2742
     19 C23         4.9630   59.7830    0.9730 C.ar      1 0UJ         0.1197
     20 N24         5.8650   60.6010    0.4250 N.ar      1 0UJ        -0.3048
     21 C25         7.0730   60.1980    0.1080 C.ar      1 0UJ        -0.0083
     22 C26         7.4750   58.8650    0.3180 C.ar      1 0UJ         0.0329
     23 N27         8.6320   58.2230    0.0710 N.2       1 0UJ        -0.3179
     24 O28        12.4770   56.7780   -2.1570 O.2       1 0UJ        -0.1556
     25 O29        10.1400   56.1930   -2.6690 O.2       1 0UJ        -0.1556
     26 H1          9.3338   55.1078   -0.2642 H         1 0UJ         0.0741
     27 H2          9.9628   55.6579    1.3259 H         1 0UJ         0.0741
     28 H3          5.3381   54.0883    0.5677 H         1 0UJ         0.0297
     29 H4          4.7955   55.7601    0.9383 H         1 0UJ         0.0297
     30 H5          5.6552   56.5525    3.4207 H         1 0UJ         0.0272
     31 H6          5.9280   55.2814    4.6603 H         1 0UJ         0.0272
     32 H7          7.5034   54.6862    0.7807 H         1 0UJ         0.0646
     33 H8          8.1917   55.6617    3.2521 H         1 0UJ         0.0330
     34 H9          4.0091   54.4671    2.9616 H         1 0UJ         0.0302
     35 H10        11.4583   57.1865    0.1235 H         1 0UJ         0.1706
     36 H11        11.9997   53.8720   -2.7695 H         1 0UJ         0.0482
     37 H12        10.8350   53.6949   -1.4135 H         1 0UJ         0.0482
     38 H13        12.5506   54.1065   -1.0760 H         1 0UJ         0.0482
     39 H14         7.8165   53.2849    4.0241 H         1 0UJ         0.0269
     40 H15         7.9464   53.1032    2.2417 H         1 0UJ         0.0269
     41 H16         5.6677   52.4296    2.1657 H         1 0UJ         0.0268
     42 H17         5.5187   52.6815    3.9380 H         1 0UJ         0.0268
     43 H18         3.9199   56.8272    2.1283 H         1 0UJ         0.0292
     44 H19         2.1527   58.7424    2.3439 H         1 0UJ         0.0915
     45 H20         3.1871   60.9154    1.3695 H         1 0UJ         0.2282
     46 H21         7.7737   60.9038   -0.3231 H         1 0UJ         0.0693
@<TRIPOS>BOND
     1    3    1 1  
     2    1    8 1  
     3    5    2 1  
     4    2    7 1  
     5   11    3 1  
     6    3   23 2  
     7    6    4 1  
     8    4    7 1  
     9    5    6 1  
    10    5   11 1  
    11    6   12 1  
    12    7   13 1  
    13    8   10 am 
    14   10    9 1  
    15   10   24 2  
    16   10   25 2  
    17   11   14 1  
    18   12   13 1  
    19   14   15 ar 
    20   14   22 ar 
    21   15   16 1  
    22   15   19 ar 
    23   16   17 2  
    24   17   18 1  
    25   18   19 1  
    26   19   20 ar 
    27   20   21 ar 
    28   21   22 ar 
    29   22   23 1  
    30    1   26 1  
    31    1   27 1  
    32    2   28 1  
    33    2   29 1  
    34    4   30 1  
    35    4   31 1  
    36    5   32 1  
    37    6   33 1  
    38    7   34 1  
    39    8   35 1  
    40    9   36 1  
    41    9   37 1  
    42    9   38 1  
    43   12   39 1  
    44   12   40 1  
    45   13   41 1  
    46   13   42 1  
    47   16   43 1  
    48   17   44 1  
    49   18   45 1  
    50   21   46 1  
@<TRIPOS>SUBSTRUCTURE
     1 0UJ         1

