### 
### Created by X-TOOL on Mon Sep 10 21:13:09 2018
### 

@<TRIPOS>MOLECULE
4fk7_ligand
   26    28     1     0     0
SMALL
GAST_HUCK


@<TRIPOS>ATOM
      1 NAM        -2.0430   -0.5500  -10.9810 N.pl3     1 P34        -0.3442
      2 CAP        -1.7600   -1.5220  -11.9440 C.ar      1 P34         0.0230
      3 CAK        -1.7050   -2.7900  -11.4750 C.ar      1 P34        -0.0471
      4 CAU        -1.4560   -3.8600  -12.3070 C.ar      1 P34        -0.0006
      5 CAT        -1.3520   -5.2560  -11.8380 C.ar      1 P34        -0.0075
      6 CAI        -1.4990   -5.6840  -10.5030 C.ar      1 P34        -0.0530
      7 CAF        -1.3120   -7.0060  -10.1870 C.ar      1 P34        -0.0599
      8 CAE        -1.0060   -7.9510  -11.1420 C.ar      1 P34        -0.0588
      9 CAH        -0.9110   -7.5690  -12.4890 C.ar      1 P34        -0.0442
     10 CAS        -1.0480   -6.2440  -12.8280 C.ar      1 P34         0.0573
     11 CAQ        -0.9860   -5.8500  -14.2610 C.2       1 P34         0.2241
     12 OAD        -0.8140   -6.7400  -15.0700 O.2       1 P34        -0.3868
     13 NAN        -1.0760   -4.5900  -14.6290 N.am      1 P34        -0.2359
     14 CAR        -1.2820   -3.5800  -13.7760 C.ar      1 P34         0.0700
     15 CAJ        -1.4050   -2.2410  -14.2430 C.ar      1 P34        -0.0460
     16 CAG        -1.6560   -1.2110  -13.3220 C.ar      1 P34        -0.0539
     17 H1         -2.1110   -0.8137   -9.9876 H         1 P34         0.1677
     18 H2         -2.1836    0.4302  -11.2645 H         1 P34         0.1677
     19 H3         -1.8609   -2.9688  -10.4173 H         1 P34         0.0481
     20 H4         -1.7589   -4.9712   -9.7288 H         1 P34         0.0612
     21 H5         -1.4081   -7.3170   -9.1530 H         1 P34         0.0644
     22 H6         -0.8397   -8.9829  -10.8546 H         1 P34         0.0608
     23 H7         -0.7309   -8.3132  -13.2563 H         1 P34         0.0661
     24 H8         -0.9853   -4.3750  -15.6014 H         1 P34         0.2281
     25 H9         -1.3059   -2.0185  -15.2993 H         1 P34         0.0489
     26 H10        -1.7690   -0.1880  -13.6623 H         1 P34         0.0503
@<TRIPOS>BOND
     1    1    2 1  
     2    2    3 ar 
     3    2   16 ar 
     4    3    4 ar 
     5    4    5 1  
     6    4   14 ar 
     7    5    6 ar 
     8    5   10 ar 
     9    6    7 ar 
    10    7    8 ar 
    11    8    9 ar 
    12    9   10 ar 
    13   10   11 1  
    14   11   12 2  
    15   11   13 am 
    16   13   14 1  
    17   14   15 ar 
    18   15   16 ar 
    19    1   17 1  
    20    1   18 1  
    21    3   19 1  
    22    6   20 1  
    23    7   21 1  
    24    8   22 1  
    25    9   23 1  
    26   13   24 1  
    27   15   25 1  
    28   16   26 1  
@<TRIPOS>SUBSTRUCTURE
     1 P34         1

