### 
### Created by X-TOOL on Mon Sep 10 21:13:09 2018
### 

@<TRIPOS>MOLECULE
4fkk_ligand
   46    46     1     0     0
SMALL
GAST_HUCK


@<TRIPOS>ATOM
      1 N2         30.9210   15.2510   60.5650 N.4       1 BES         0.2258
      2 C1         29.9310   15.7420   59.6260 C.3       1 BES         0.0291
      3 C6         30.3210   15.2290   58.2300 C.3       1 BES         0.0287
      4 C7         29.3350   14.2790   57.5690 C.ar      1 BES        -0.0374
      5 C8         28.0420   14.6970   57.2070 C.ar      1 BES        -0.0601
      6 C12        29.7170   12.9610   57.2880 C.ar      1 BES        -0.0601
      7 C9         27.1380   13.8210   56.5880 C.ar      1 BES        -0.0686
      8 C11        28.8110   12.0850   56.6730 C.ar      1 BES        -0.0686
      9 C10        27.5220   12.5070   56.3220 C.ar      1 BES        -0.0687
     10 C2         29.7730   17.2900   59.6770 C.3       1 BES         0.1881
     11 O2         30.3370   17.9450   60.8420 O.3       1 BES        -0.3664
     12 C3         28.3050   17.6000   59.6350 C.2       1 BES         0.2125
     13 O3         27.6400   17.1160   60.5360 O.2       1 BES        -0.3939
     14 N1         27.8080   18.3590   58.6330 N.am      1 BES        -0.2691
     15 C4         26.3640   18.6740   58.5580 C.3       1 BES         0.0946
     16 C13        26.1730   20.1520   58.9060 C.3       1 BES        -0.0156
     17 C14        25.6920   20.2700   60.3480 C.3       1 BES        -0.0431
     18 C15        25.4860   21.7380   60.6840 C.3       1 BES        -0.0625
     19 C16        24.4250   19.4570   60.6100 C.3       1 BES        -0.0625
     20 C5         25.6560   18.3660   57.2530 C.2       1 BES         0.0601
     21 O1         25.5330   17.1590   56.9300 O.co2     1 BES        -0.5666
     22 O4         25.1900   19.3090   56.5560 O.co2     1 BES        -0.5666
     23 H1         30.9844   14.2476   60.4923 H         1 BES         0.2001
     24 H2         30.6494   15.5034   61.5023 H         1 BES         0.2001
     25 H3         31.8173   15.6605   60.3531 H         1 BES         0.2001
     26 H4         28.9570   15.3061   59.8929 H         1 BES         0.0926
     27 H5         31.2838   14.7048   58.3210 H         1 BES         0.0484
     28 H6         30.4397   16.1022   57.5717 H         1 BES         0.0484
     29 H7         27.7376   15.7173   57.4105 H         1 BES         0.0557
     30 H8         30.7126   12.6183   57.5458 H         1 BES         0.0557
     31 H9         26.1458   14.1638   56.3177 H         1 BES         0.0599
     32 H10        29.1129   11.0647   56.4658 H         1 BES         0.0599
     33 H11        26.8305   11.8194   55.8487 H         1 BES         0.0559
     34 H12        30.2619   17.7092   58.7853 H         1 BES         0.0898
     35 H13        31.2703   17.7717   60.8805 H         1 BES         0.2136
     36 H14        28.4260   18.7133   57.9312 H         1 BES         0.1875
     37 H15        25.8679   18.0708   59.3326 H         1 BES         0.0726
     38 H16        25.4255   20.5951   58.2316 H         1 BES         0.0308
     39 H17        27.1296   20.6831   58.7928 H         1 BES         0.0308
     40 H18        26.4818   19.8742   61.0034 H         1 BES         0.0297
     41 H19        25.1387   21.8309   61.7236 H         1 BES         0.0232
     42 H20        24.7334   22.1672   60.0063 H         1 BES         0.0232
     43 H21        26.4368   22.2783   60.5654 H         1 BES         0.0232
     44 H22        24.6075   18.4021   60.3574 H         1 BES         0.0232
     45 H23        23.6047   19.8461   59.9890 H         1 BES         0.0232
     46 H24        24.1508   19.5375   61.6722 H         1 BES         0.0232
@<TRIPOS>BOND
     1    1    2 1  
     2    2    3 1  
     3    2   10 1  
     4    3    4 1  
     5    4    5 ar 
     6    4    6 ar 
     7    5    7 ar 
     8    6    8 ar 
     9    7    9 ar 
    10    8    9 ar 
    11   10   11 1  
    12   10   12 1  
    13   12   13 2  
    14   12   14 am 
    15   14   15 1  
    16   15   16 1  
    17   15   20 1  
    18   16   17 1  
    19   17   18 1  
    20   17   19 1  
    21   20   21 ar 
    22   20   22 ar 
    23    1   23 1  
    24    1   24 1  
    25    1   25 1  
    26    2   26 1  
    27    3   27 1  
    28    3   28 1  
    29    5   29 1  
    30    6   30 1  
    31    7   31 1  
    32    8   32 1  
    33    9   33 1  
    34   10   34 1  
    35   11   35 1  
    36   14   36 1  
    37   15   37 1  
    38   16   38 1  
    39   16   39 1  
    40   17   40 1  
    41   18   41 1  
    42   18   42 1  
    43   18   43 1  
    44   19   44 1  
    45   19   45 1  
    46   19   46 1  
@<TRIPOS>SUBSTRUCTURE
     1 BES         1

