### 
### Created by X-TOOL on Mon Sep 10 21:13:09 2018
### 

@<TRIPOS>MOLECULE
4fli_ligand
   50    49     1     0     0
SMALL
GAST_HUCK


@<TRIPOS>ATOM
      1 N1         19.5560   -2.1360   15.0020 N.am      1 Y16        -0.2661
      2 O1         23.8250   -2.9170    9.5530 O.3       1 Y16        -0.3891
      3 N2         17.8540   -3.6420   17.9290 N.am      1 Y16        -0.2992
      4 O2         22.3470   -1.8780   13.2130 O.3       1 Y16        -0.3841
      5 O3         22.1320   -1.3580   10.7340 O.3       1 Y16        -0.3864
      6 O4         19.7890   -4.3070   14.4190 O.2       1 Y16        -0.3940
      7 O5         17.0240   -3.0060   15.9090 O.2       1 Y16        -0.3951
      8 O6         19.3190   -3.1970   11.7680 O.3       1 Y16        -0.3568
      9 C01        23.4920   -7.1810   11.6900 C.3       1 Y16        -0.0376
     10 C02        23.5670   -5.6810   11.5800 C.3       1 Y16        -0.0457
     11 C03        23.0360   -4.9320   10.6070 C.3       1 Y16        -0.0239
     12 C04        23.3280   -3.4820   10.8170 C.3       1 Y16         0.0837
     13 C05        22.0130   -2.7500   11.1120 C.3       1 Y16         0.1114
     14 C06        21.6050   -2.8650   12.5840 C.3       1 Y16         0.1265
     15 C07        20.1250   -2.6420   12.8360 C.3       1 Y16         0.1748
     16 C08        22.6640   -7.8080   10.6140 C.3       1 Y16        -0.0601
     17 C09        22.8030   -7.4160   13.0820 C.3       1 Y16        -0.0601
     18 C10        24.9000   -7.7410   11.7480 C.3       1 Y16        -0.0601
     19 C11        19.8350   -3.1600   14.2300 C.2       1 Y16         0.2099
     20 C12        19.3380   -2.6110   16.3540 C.3       1 Y16         0.1198
     21 C13        17.9660   -3.0950   16.6600 C.2       1 Y16         0.1960
     22 C14        18.0320   -2.5920   11.6560 C.3       1 Y16         0.0399
     23 H1         19.5025   -1.1825   14.7055 H         1 Y16         0.1881
     24 H2         24.6169   -3.3731    9.2932 H         1 Y16         0.2099
     25 H3         18.6573   -3.6984   18.5219 H         1 Y16         0.1815
     26 H4         16.9699   -3.9802   18.2515 H         1 Y16         0.1815
     27 H5         22.1239   -1.0317   12.8435 H         1 Y16         0.2102
     28 H6         21.3151   -0.9099   10.9189 H         1 Y16         0.2100
     29 H7         24.6418   -5.4473   11.5681 H         1 Y16         0.0271
     30 H8         23.1196   -5.3020   12.5107 H         1 Y16         0.0271
     31 H9         21.9461   -5.0799   10.5954 H         1 Y16         0.0291
     32 H10        23.4590   -5.2464    9.6415 H         1 Y16         0.0291
     33 H11        24.0544   -3.3440   11.6315 H         1 Y16         0.0620
     34 H12        21.2214   -3.2106   10.5027 H         1 Y16         0.0647
     35 H13        21.8791   -3.8585   12.9684 H         1 Y16         0.0672
     36 H14        19.9338   -1.5588   12.8416 H         1 Y16         0.0867
     37 H15        22.6500   -8.8993   10.7511 H         1 Y16         0.0235
     38 H16        23.0963   -7.5675    9.6315 H         1 Y16         0.0235
     39 H17        21.6367   -7.4185   10.6679 H         1 Y16         0.0235
     40 H18        23.4110   -6.9553   13.8745 H         1 Y16         0.0235
     41 H19        22.7140   -8.4962   13.2694 H         1 Y16         0.0235
     42 H20        21.8015   -6.9610   13.0769 H         1 Y16         0.0235
     43 H21        25.3971   -7.5842   10.7793 H         1 Y16         0.0235
     44 H22        24.8575   -8.8179   11.9683 H         1 Y16         0.0235
     45 H23        25.4668   -7.2271   12.5384 H         1 Y16         0.0235
     46 H24        19.5645   -1.7835   17.0424 H         1 Y16         0.0763
     47 H25        20.0364   -3.4411   16.5361 H         1 Y16         0.0763
     48 H26        17.4776   -3.0600   10.8292 H         1 Y16         0.0526
     49 H27        18.1485   -1.5165   11.4569 H         1 Y16         0.0526
     50 H28        17.4775   -2.7331   12.5955 H         1 Y16         0.0526
@<TRIPOS>BOND
     1    1   19 am 
     2   20    1 1  
     3   12    2 1  
     4   21    3 am 
     5   14    4 1  
     6   13    5 1  
     7   19    6 2  
     8   21    7 2  
     9   15    8 1  
    10    8   22 1  
    11   10    9 1  
    12    9   16 1  
    13    9   17 1  
    14    9   18 1  
    15   11   10 1  
    16   12   11 1  
    17   13   12 1  
    18   14   13 1  
    19   15   14 1  
    20   19   15 1  
    21   20   21 1  
    22    1   23 1  
    23    2   24 1  
    24    3   25 1  
    25    3   26 1  
    26    4   27 1  
    27    5   28 1  
    28   10   29 1  
    29   10   30 1  
    30   11   31 1  
    31   11   32 1  
    32   12   33 1  
    33   13   34 1  
    34   14   35 1  
    35   15   36 1  
    36   16   37 1  
    37   16   38 1  
    38   16   39 1  
    39   17   40 1  
    40   17   41 1  
    41   17   42 1  
    42   18   43 1  
    43   18   44 1  
    44   18   45 1  
    45   20   46 1  
    46   20   47 1  
    47   22   48 1  
    48   22   49 1  
    49   22   50 1  
@<TRIPOS>SUBSTRUCTURE
     1 Y16         1

