### 
### Created by X-TOOL on Mon Sep 10 21:13:10 2018
### 

@<TRIPOS>MOLECULE
4flj_ligand
   68    69     1     0     0
SMALL
GAST_HUCK


@<TRIPOS>ATOM
      1 N1         19.4740   -2.4700   14.9510 N.am      1 Y08        -0.2844
      2 O1         24.0250   -2.8390    9.7130 O.3       1 Y08        -0.3559
      3 N2         20.4650   -4.9930   19.0360 N.am      1 Y08        -0.2727
      4 O2         22.3010   -1.9040   13.2660 O.3       1 Y08        -0.3837
      5 O3         22.1600   -1.2610   10.7770 O.3       1 Y08        -0.3810
      6 O4         19.3710   -4.4770   13.8670 O.2       1 Y08        -0.3941
      7 O5         20.9290   -3.3250   20.4410 O.2       1 Y08        -0.3966
      8 O6         19.3990   -3.0180   11.4410 O.3       1 Y08        -0.3568
      9 C01        23.6340   -7.1610   11.7490 C.3       1 Y08        -0.0754
     10 C02        23.7430   -5.6660   11.6400 C.2       1 Y08        -0.0830
     11 C03        23.1570   -4.9100   10.7460 C.2       1 Y08         0.0149
     12 C04        23.3890   -3.3960   10.8610 C.3       1 Y08         0.1593
     13 C05        22.0400   -2.6760   11.0750 C.3       1 Y08         0.1379
     14 C06        21.4930   -2.8320   12.5010 C.3       1 Y08         0.1313
     15 C07        19.9910   -2.5100   12.6180 C.3       1 Y08         0.1751
     16 C08        22.7950   -7.8340   10.6370 C.3       1 Y08        -0.1011
     17 C09        22.9910   -7.4550   13.0870 C.3       1 Y08        -0.1011
     18 C10        25.0510   -7.6840   11.6870 C.3       1 Y08        -0.1011
     19 C11        19.5700   -3.2460   13.8480 C.2       1 Y08         0.2079
     20 C12        18.9480   -3.0440   16.2190 C.3       1 Y08         0.0356
     21 C13        20.0460   -3.6950   17.0420 C.3       1 Y08        -0.0004
     22 C14        20.5770   -4.9630   16.3020 C.3       1 Y08        -0.0447
     23 C15        21.4610   -5.9860   17.0830 C.3       1 Y08        -0.0321
     24 C16        20.7580   -6.3070   18.4030 C.3       1 Y08         0.0339
     25 C17        19.4290   -4.1580   18.3630 C.3       1 Y08         0.0385
     26 C18        21.0370   -4.5180   20.1790 C.2       1 Y08         0.1815
     27 C19        21.6800   -5.4510   21.1990 C.3       1 Y08         0.0491
     28 C20        23.1070   -5.8990   20.8720 C.3       1 Y08        -0.0309
     29 C21        22.8830   -4.7670   21.8770 C.3       1 Y08        -0.0309
     30 C22        18.0430   -2.5000   11.3010 C.3       1 Y08         0.0399
     31 H1         19.7562   -1.5113   14.9147 H         1 Y08         0.1851
     32 H2         24.8717   -3.2520    9.5898 H         1 Y08         0.2179
     33 H3         22.1823   -1.0258   12.9237 H         1 Y08         0.2102
     34 H4         21.3209   -0.8373   10.9146 H         1 Y08         0.2106
     35 H5         24.3696   -5.1633   12.3752 H         1 Y08         0.0465
     36 H6         22.5352   -5.3341    9.9590 H         1 Y08         0.1558
     37 H7         24.0330   -3.2150   11.7342 H         1 Y08         0.1059
     38 H8         21.3116   -3.1192   10.3801 H         1 Y08         0.0707
     39 H9         21.6543   -3.8609   12.8550 H         1 Y08         0.0676
     40 H10        19.7961   -1.4319   12.7162 H         1 Y08         0.0867
     41 H11        22.7735   -8.9215   10.8013 H         1 Y08         0.0084
     42 H12        23.2463   -7.6201    9.6569 H         1 Y08         0.0084
     43 H13        21.7687   -7.4391   10.6622 H         1 Y08         0.0084
     44 H14        23.5781   -6.9817   13.8878 H         1 Y08         0.0084
     45 H15        22.9609   -8.5427   13.2483 H         1 Y08         0.0084
     46 H16        21.9667   -7.0542   13.0976 H         1 Y08         0.0084
     47 H17        25.4845   -7.4525   10.7029 H         1 Y08         0.0084
     48 H18        25.0467   -8.7735   11.8386 H         1 Y08         0.0084
     49 H19        25.6529   -7.2065   12.4742 H         1 Y08         0.0084
     50 H20        18.1871   -3.8011   15.9784 H         1 Y08         0.0523
     51 H21        18.4894   -2.2384   16.8112 H         1 Y08         0.0523
     52 H22        20.8649   -2.9827   17.2208 H         1 Y08         0.0340
     53 H23        21.1726   -4.6105   15.4471 H         1 Y08         0.0270
     54 H24        19.6978   -5.5126   15.9347 H         1 Y08         0.0270
     55 H25        22.4499   -5.5481   17.2836 H         1 Y08         0.0285
     56 H26        21.5803   -6.9051   16.4905 H         1 Y08         0.0285
     57 H27        19.8249   -6.8586   18.2158 H         1 Y08         0.0522
     58 H28        21.4146   -6.9064   19.0508 H         1 Y08         0.0522
     59 H29        19.1728   -3.2905   18.9889 H         1 Y08         0.0526
     60 H30        18.5237   -4.7533   18.1730 H         1 Y08         0.0526
     61 H31        20.9599   -6.0975   21.7219 H         1 Y08         0.0538
     62 H32        23.5386   -5.6786   19.8845 H         1 Y08         0.0294
     63 H33        23.4681   -6.8781   21.2198 H         1 Y08         0.0294
     64 H34        23.0801   -4.9332   22.9464 H         1 Y08         0.0294
     65 H35        23.1507   -3.7337   21.6111 H         1 Y08         0.0294
     66 H36        17.5904   -2.9009   10.3821 H         1 Y08         0.0526
     67 H37        18.0739   -1.4018   11.2455 H         1 Y08         0.0526
     68 H38        17.4418   -2.8065   12.1697 H         1 Y08         0.0526
@<TRIPOS>BOND
     1    1   19 am 
     2   20    1 1  
     3   12    2 1  
     4    3   24 1  
     5   25    3 1  
     6    3   26 am 
     7   14    4 1  
     8   13    5 1  
     9   19    6 2  
    10   26    7 2  
    11   15    8 1  
    12    8   30 1  
    13   10    9 1  
    14    9   16 1  
    15    9   17 1  
    16    9   18 1  
    17   11   10 2  
    18   12   11 1  
    19   13   12 1  
    20   14   13 1  
    21   15   14 1  
    22   19   15 1  
    23   21   20 1  
    24   21   22 1  
    25   21   25 1  
    26   22   23 1  
    27   23   24 1  
    28   26   27 1  
    29   27   28 1  
    30   27   29 1  
    31   28   29 1  
    32    1   31 1  
    33    2   32 1  
    34    4   33 1  
    35    5   34 1  
    36   10   35 1  
    37   11   36 1  
    38   12   37 1  
    39   13   38 1  
    40   14   39 1  
    41   15   40 1  
    42   16   41 1  
    43   16   42 1  
    44   16   43 1  
    45   17   44 1  
    46   17   45 1  
    47   17   46 1  
    48   18   47 1  
    49   18   48 1  
    50   18   49 1  
    51   20   50 1  
    52   20   51 1  
    53   21   52 1  
    54   22   53 1  
    55   22   54 1  
    56   23   55 1  
    57   23   56 1  
    58   24   57 1  
    59   24   58 1  
    60   25   59 1  
    61   25   60 1  
    62   27   61 1  
    63   28   62 1  
    64   28   63 1  
    65   29   64 1  
    66   29   65 1  
    67   30   66 1  
    68   30   67 1  
    69   30   68 1  
@<TRIPOS>SUBSTRUCTURE
     1 Y08         1

