### 
### Created by X-TOOL on Mon Sep 10 21:13:10 2018
### 

@<TRIPOS>MOLECULE
4flk_ligand
   60    61     1     0     0
SMALL
GAST_HUCK


@<TRIPOS>ATOM
      1 N          19.3390   -2.3730   14.8580 N.am      1 Y10        -0.2781
      2 O1         23.7840   -2.8610    9.5630 O.3       1 Y10        -0.3891
      3 O2         22.2010   -1.9350   13.1320 O.3       1 Y10        -0.3841
      4 O3         22.0970   -1.2120   10.8050 O.3       1 Y10        -0.3864
      5 O4         19.4150   -4.4060   13.9960 O.2       1 Y10        -0.3941
      6 O5         19.2310   -3.0540   11.5120 O.3       1 Y10        -0.3568
      7 C01        23.4220   -7.1650   11.8200 C.3       1 Y10        -0.0376
      8 C02        23.5130   -5.6400   11.6880 C.3       1 Y10        -0.0457
      9 C03        22.9490   -4.9300   10.6670 C.3       1 Y10        -0.0239
     10 C04        23.2020   -3.4100   10.7960 C.3       1 Y10         0.0837
     11 C05        21.9010   -2.6330   11.0660 C.3       1 Y10         0.1114
     12 C06        21.3960   -2.8230   12.5030 C.3       1 Y10         0.1265
     13 C07        19.9200   -2.5230   12.6280 C.3       1 Y10         0.1747
     14 C08        22.6650   -7.7820   10.6130 C.3       1 Y10        -0.0601
     15 C09        24.8260   -7.6630   11.7970 C.3       1 Y10        -0.0601
     16 C10        22.6600   -7.3860   13.1490 C.3       1 Y10        -0.0601
     17 C11        19.5400   -3.2260   13.8780 C.2       1 Y10         0.2084
     18 C12        18.9820   -2.9640   16.2000 C.3       1 Y10         0.0590
     19 C13        19.2210   -2.0240   17.3980 C.3       1 Y10         0.0032
     20 C14        19.8450   -2.9940   18.4350 C.ar      1 Y10        -0.0386
     21 C15        20.0840   -4.2720   17.9240 C.ar      1 Y10        -0.0386
     22 C16        19.6810   -4.2830   16.4680 C.3       1 Y10         0.0032
     23 C17        20.1980   -2.7620   19.7900 C.ar      1 Y10        -0.0668
     24 C18        20.7850   -3.7840   20.5710 C.ar      1 Y10        -0.0755
     25 C19        21.0470   -5.0490   20.0160 C.ar      1 Y10        -0.0755
     26 C20        20.7130   -5.3300   18.6660 C.ar      1 Y10        -0.0668
     27 C21        17.9100   -2.5280   11.3690 C.3       1 Y10         0.0399
     28 H1         19.4184   -1.3855   14.7215 H         1 Y10         0.1858
     29 H2         24.6116   -3.2924    9.3854 H         1 Y10         0.2099
     30 H3         22.0527   -1.0670   12.7754 H         1 Y10         0.2102
     31 H4         21.2873   -0.7452   10.9754 H         1 Y10         0.2100
     32 H5         24.5874   -5.4062   11.6568 H         1 Y10         0.0271
     33 H6         23.0759   -5.2334   12.6119 H         1 Y10         0.0271
     34 H7         21.8637   -5.1089   10.6696 H         1 Y10         0.0291
     35 H8         23.3760   -5.2797    9.7155 H         1 Y10         0.0291
     36 H9         23.8994   -3.2457   11.6306 H         1 Y10         0.0620
     37 H10        21.1302   -3.0121   10.3789 H         1 Y10         0.0647
     38 H11        21.5777   -3.8461   12.8638 H         1 Y10         0.0672
     39 H12        19.7319   -1.4420   12.7057 H         1 Y10         0.0867
     40 H13        22.6137   -8.8744   10.7319 H         1 Y10         0.0235
     41 H14        23.1988   -7.5392    9.6824 H         1 Y10         0.0235
     42 H15        21.6461   -7.3697   10.5696 H         1 Y10         0.0235
     43 H16        25.3803   -7.2365   12.6460 H         1 Y10         0.0235
     44 H17        25.3073   -7.3598   10.8555 H         1 Y10         0.0235
     45 H18        24.8271   -8.7604   11.8726 H         1 Y10         0.0235
     46 H19        21.6401   -6.9841   13.0581 H         1 Y10         0.0235
     47 H20        23.1867   -6.8683   13.9642 H         1 Y10         0.0235
     48 H21        22.6115   -8.4626   13.3692 H         1 Y10         0.0235
     49 H22        17.9018   -3.1690   16.1653 H         1 Y10         0.0598
     50 H23        18.2774   -1.5952   17.7664 H         1 Y10         0.0435
     51 H24        19.9163   -1.2120   17.1388 H         1 Y10         0.0435
     52 H25        20.5713   -4.3771   15.8289 H         1 Y10         0.0435
     53 H26        18.9972   -5.1216   16.2702 H         1 Y10         0.0435
     54 H27        20.0153   -1.7890   20.2316 H         1 Y10         0.0537
     55 H28        21.0355   -3.5904   21.6077 H         1 Y10         0.0541
     56 H29        21.5088   -5.8172   20.6256 H         1 Y10         0.0541
     57 H30        20.9217   -6.2942   18.2168 H         1 Y10         0.0537
     58 H31        17.4296   -2.9780   10.4877 H         1 Y10         0.0526
     59 H32        17.9617   -1.4367   11.2412 H         1 Y10         0.0526
     60 H33        17.3218   -2.7645   12.2680 H         1 Y10         0.0526
@<TRIPOS>BOND
     1   17    1 am 
     2    1   18 1  
     3   10    2 1  
     4   12    3 1  
     5   11    4 1  
     6   17    5 2  
     7   13    6 1  
     8    6   27 1  
     9    8    7 1  
    10    7   14 1  
    11    7   15 1  
    12    7   16 1  
    13    9    8 1  
    14   10    9 1  
    15   11   10 1  
    16   12   11 1  
    17   13   12 1  
    18   13   17 1  
    19   18   19 1  
    20   18   22 1  
    21   19   20 1  
    22   20   21 ar 
    23   20   23 ar 
    24   21   22 1  
    25   21   26 ar 
    26   23   24 ar 
    27   24   25 ar 
    28   25   26 ar 
    29    1   28 1  
    30    2   29 1  
    31    3   30 1  
    32    4   31 1  
    33    8   32 1  
    34    8   33 1  
    35    9   34 1  
    36    9   35 1  
    37   10   36 1  
    38   11   37 1  
    39   12   38 1  
    40   13   39 1  
    41   14   40 1  
    42   14   41 1  
    43   14   42 1  
    44   15   43 1  
    45   15   44 1  
    46   15   45 1  
    47   16   46 1  
    48   16   47 1  
    49   16   48 1  
    50   18   49 1  
    51   19   50 1  
    52   19   51 1  
    53   22   52 1  
    54   22   53 1  
    55   23   54 1  
    56   24   55 1  
    57   25   56 1  
    58   26   57 1  
    59   27   58 1  
    60   27   59 1  
    61   27   60 1  
@<TRIPOS>SUBSTRUCTURE
     1 Y10         1

