### 
### Created by X-TOOL on Mon Sep 10 21:13:09 2018
### 

@<TRIPOS>MOLECULE
4fll_ligand
   67    68     1     0     0
SMALL
GAST_HUCK


@<TRIPOS>ATOM
      1 O4         19.3590   -4.4830   13.9850 O.2       1 YZ6        -0.3941
      2 C11        19.5230   -3.2890   13.9690 C.2       1 YZ6         0.2079
      3 C07        20.0190   -2.6730   12.6700 C.3       1 YZ6         0.1751
      4 O6         19.2910   -3.0940   11.4870 O.3       1 YZ6        -0.3568
      5 C25        17.9790   -2.5390   11.4070 C.3       1 YZ6         0.0399
      6 C06        21.5150   -2.9290   12.4910 C.3       1 YZ6         0.1313
      7 O2         22.1720   -1.9800   13.2320 O.3       1 YZ6        -0.3837
      8 C05        21.9500   -2.7520   11.0430 C.3       1 YZ6         0.1379
      9 O3         22.1150   -1.3490   10.7740 O.3       1 YZ6        -0.3810
     10 C04        23.2850   -3.4780   10.8660 C.3       1 YZ6         0.1593
     11 O1         23.8480   -2.9740    9.6060 O.3       1 YZ6        -0.3559
     12 C03        23.0550   -4.9620   10.6620 C.2       1 YZ6         0.0149
     13 C02        23.5290   -5.7570   11.6530 C.2       1 YZ6        -0.0830
     14 C01        23.4360   -7.2610   11.7690 C.3       1 YZ6        -0.0754
     15 C10        22.7930   -7.4720   13.1170 C.3       1 YZ6        -0.1011
     16 C09        22.6820   -7.8660   10.6300 C.3       1 YZ6        -0.1011
     17 C08        24.8860   -7.7440   11.8020 C.3       1 YZ6        -0.1011
     18 N          19.1770   -2.3790   14.9100 N.am      1 YZ6        -0.2844
     19 C12        18.6980   -3.0320   16.1460 C.3       1 YZ6         0.0349
     20 C13        19.4750   -2.4030   17.2750 C.3       1 YZ6        -0.0080
     21 C14        19.1680   -2.8690   18.7490 C.3       1 YZ6         0.0570
     22 C16        19.9560   -2.0870   19.8530 C.2       1 YZ6         0.1091
     23 C19        19.9530   -0.6720   20.0570 C.2       1 YZ6        -0.0680
     24 C18        20.7850   -0.3450   21.1920 C.2       1 YZ6        -0.0800
     25 C17        21.2560   -1.6400   21.6020 C.2       1 YZ6         0.0675
     26 O5         20.6950   -2.6640   20.7470 O.3       1 YZ6        -0.2665
     27 C15        17.7230   -3.2010   19.1310 C.ar      1 YZ6        -0.0262
     28 C24        17.5220   -4.0360   20.2900 C.ar      1 YZ6        -0.0581
     29 C23        16.2450   -4.4120   20.7800 C.ar      1 YZ6        -0.0683
     30 C22        15.0920   -3.9570   20.1070 C.ar      1 YZ6        -0.0686
     31 C21        15.2520   -3.1340   18.9620 C.ar      1 YZ6        -0.0683
     32 C20        16.5390   -2.7530   18.4870 C.ar      1 YZ6        -0.0581
     33 H1         19.8767   -1.5860   12.7604 H         1 YZ6         0.0867
     34 H2         17.4848   -2.8967   10.4917 H         1 YZ6         0.0526
     35 H3         18.0460   -1.4413   11.3825 H         1 YZ6         0.0526
     36 H4         17.3946   -2.8512   12.2851 H         1 YZ6         0.0526
     37 H5         21.7675   -3.9422   12.8370 H         1 YZ6         0.0676
     38 H6         21.9375   -1.1151   12.9164 H         1 YZ6         0.2102
     39 H7         21.1962   -3.1764   10.3635 H         1 YZ6         0.0707
     40 H8         21.2901   -0.9007   10.9190 H         1 YZ6         0.2106
     41 H9         23.9538   -3.2946   11.7199 H         1 YZ6         0.1059
     42 H10        24.6846   -3.3940    9.4439 H         1 YZ6         0.2179
     43 H11        22.5469   -5.3602    9.7849 H         1 YZ6         0.1558
     44 H12        24.0412   -5.2476   12.4679 H         1 YZ6         0.0465
     45 H13        22.6775   -8.5499   13.3034 H         1 YZ6         0.0084
     46 H14        21.8046   -6.9895   13.1314 H         1 YZ6         0.0084
     47 H15        23.4280   -7.0306   13.8993 H         1 YZ6         0.0084
     48 H16        23.2166   -7.6669    9.6895 H         1 YZ6         0.0084
     49 H17        21.6758   -7.4242   10.5804 H         1 YZ6         0.0084
     50 H18        22.5985   -8.9523   10.7813 H         1 YZ6         0.0084
     51 H19        25.4081   -7.2789   12.6512 H         1 YZ6         0.0084
     52 H20        25.3877   -7.4625   10.8644 H         1 YZ6         0.0084
     53 H21        24.9056   -8.8381   11.9142 H         1 YZ6         0.0084
     54 H22        19.2380   -1.3888   14.7843 H         1 YZ6         0.1851
     55 H23        18.8903   -4.1143   16.1059 H         1 YZ6         0.0523
     56 H24        17.6204   -2.8557   16.2787 H         1 YZ6         0.0523
     57 H25        19.2910   -1.3194   17.2319 H         1 YZ6         0.0332
     58 H26        20.5403   -2.6019   17.0866 H         1 YZ6         0.0332
     59 H27        19.6410   -3.8618   18.7729 H         1 YZ6         0.0649
     60 H28        19.4073    0.0488   19.4500 H         1 YZ6         0.0226
     61 H29        20.9999    0.6307   21.6252 H         1 YZ6         0.0298
     62 H30        21.9349   -1.8234   22.4335 H         1 YZ6         0.0859
     63 H31        18.3977   -4.3971   20.8171 H         1 YZ6         0.0560
     64 H32        16.1566   -5.0400   21.6591 H         1 YZ6         0.0600
     65 H33        14.1033   -4.2305   20.4574 H         1 YZ6         0.0560
     66 H34        14.3709   -2.7862   18.4350 H         1 YZ6         0.0600
     67 H35        16.6166   -2.1094   17.6182 H         1 YZ6         0.0560
@<TRIPOS>BOND
     1    1    2 2  
     2    2    3 1  
     3    2   18 am 
     4    3    4 1  
     5    3    6 1  
     6    4    5 1  
     7    6    7 1  
     8    6    8 1  
     9    8    9 1  
    10    8   10 1  
    11   10   11 1  
    12   10   12 1  
    13   12   13 2  
    14   13   14 1  
    15   14   15 1  
    16   14   16 1  
    17   14   17 1  
    18   18   19 1  
    19   19   20 1  
    20   20   21 1  
    21   21   22 1  
    22   21   27 1  
    23   22   23 2  
    24   22   26 1  
    25   23   24 1  
    26   24   25 2  
    27   25   26 1  
    28   27   28 ar 
    29   27   32 ar 
    30   28   29 ar 
    31   29   30 ar 
    32   30   31 ar 
    33   31   32 ar 
    34    3   33 1  
    35    5   34 1  
    36    5   35 1  
    37    5   36 1  
    38    6   37 1  
    39    7   38 1  
    40    8   39 1  
    41    9   40 1  
    42   10   41 1  
    43   11   42 1  
    44   12   43 1  
    45   13   44 1  
    46   15   45 1  
    47   15   46 1  
    48   15   47 1  
    49   16   48 1  
    50   16   49 1  
    51   16   50 1  
    52   17   51 1  
    53   17   52 1  
    54   17   53 1  
    55   18   54 1  
    56   19   55 1  
    57   19   56 1  
    58   20   57 1  
    59   20   58 1  
    60   21   59 1  
    61   23   60 1  
    62   24   61 1  
    63   25   62 1  
    64   28   63 1  
    65   29   64 1  
    66   30   65 1  
    67   31   66 1  
    68   32   67 1  
@<TRIPOS>SUBSTRUCTURE
     1 YZ6         1

