### 
### Created by X-TOOL on Mon Sep 10 21:13:11 2018
### 

@<TRIPOS>MOLECULE
4flp_ligand
   56    59     1     0     0
SMALL
GAST_HUCK


@<TRIPOS>ATOM
      1 CAA        10.1330   -6.3130  -28.3510 C.3       1 JQ1         0.0171
      2 CAB         5.3720   -3.5490  -30.7030 C.3       1 JQ1        -0.0308
      3 CAC         5.9480   -1.2280  -28.5640 C.3       1 JQ1        -0.0507
      4 CAD         8.4030    2.1910  -29.8170 C.3       1 JQ1        -0.0319
      5 CAE         9.2960    2.8830  -27.5500 C.3       1 JQ1        -0.0319
      6 CAF        10.4930    3.5630  -29.6580 C.3       1 JQ1        -0.0319
      7 OAG        11.9400    1.9830  -27.7900 O.2       1 JQ1        -0.3702
      8 CLAH        4.8890   -0.2050  -22.6460 Cl        1 JQ1        -0.0647
      9 CAI         7.0570    0.4050  -24.2760 C.ar      1 JQ1        -0.0406
     10 CAJ         5.8600   -1.6510  -24.6330 C.ar      1 JQ1        -0.0406
     11 CAK         7.8700    0.0530  -25.3860 C.ar      1 JQ1        -0.0437
     12 CAL         6.6630   -1.9760  -25.7050 C.ar      1 JQ1        -0.0437
     13 CAM        11.9820   -0.4210  -28.0220 C.3       1 JQ1         0.0747
     14 NAN         9.7800   -1.0640  -27.1710 N.2       1 JQ1        -0.3432
     15 NAO        12.0590   -4.7300  -27.8660 N.2       1 JQ1        -0.2795
     16 NAP        12.2240   -3.4760  -27.8100 N.2       1 JQ1        -0.2784
     17 OAQ        10.2810    1.1430  -28.9460 O.3       1 JQ1        -0.2709
     18 SAR         8.0510   -4.3760  -29.9190 S.3       1 JQ1         0.0060
     19 CAS        11.4250    0.9880  -28.2450 C.2       1 JQ1         0.2376
     20 CAT         8.5260   -1.5120  -27.2220 C.2       1 JQ1         0.0263
     21 CAU         6.0260   -0.4570  -23.9370 C.ar      1 JQ1         0.0470
     22 CAV        10.7640   -4.9780  -28.1790 C.2       1 JQ1         0.1468
     23 CAW         7.6790   -1.1350  -26.1310 C.ar      1 JQ1         0.0078
     24 CAX         6.6590   -3.3280  -29.8240 C.2       1 JQ1         0.0043
     25 CAY         6.8950   -2.3410  -28.9140 C.2       1 JQ1        -0.0580
     26 CAZ        11.0780   -2.8700  -28.1120 C.2       1 JQ1         0.1631
     27 CBA         8.1220   -2.4430  -28.2320 C.2       1 JQ1         0.0320
     28 CBB         8.8970   -3.5210  -28.6960 C.2       1 JQ1         0.1844
     29 CBC        10.7850   -1.3570  -28.2050 C.3       1 JQ1         0.1007
     30 NBD        10.1470   -3.8080  -28.3230 N.pl3     1 JQ1        -0.1470
     31 CBE         9.6500    2.4610  -28.9800 C.3       1 JQ1         0.0899
     32 H1         10.8816   -7.0984  -28.1701 H         1 JQ1         0.0469
     33 H2          9.7447   -6.4057  -29.3760 H         1 JQ1         0.0469
     34 H3          9.3059   -6.4228  -27.6342 H         1 JQ1         0.0469
     35 H4          4.6316   -2.7690  -30.4716 H         1 JQ1         0.0365
     36 H5          4.9434   -4.5380  -30.4835 H         1 JQ1         0.0365
     37 H6          5.6415   -3.4943  -31.7681 H         1 JQ1         0.0365
     38 H7          5.0472   -1.3022  -29.1910 H         1 JQ1         0.0315
     39 H8          6.4389   -0.2596  -28.7407 H         1 JQ1         0.0315
     40 H9          5.6645   -1.3074  -27.5041 H         1 JQ1         0.0315
     41 H10         7.8243    3.1204  -29.9230 H         1 JQ1         0.0261
     42 H11         7.7851    1.4291  -29.3192 H         1 JQ1         0.0261
     43 H12         8.7006    1.8289  -30.8121 H         1 JQ1         0.0261
     44 H13        10.2202    3.0673  -26.9827 H         1 JQ1         0.0261
     45 H14         8.7205    2.0819  -27.0631 H         1 JQ1         0.0261
     46 H15         8.6933    3.8027  -27.5777 H         1 JQ1         0.0261
     47 H16        10.7436    3.2541  -30.6836 H         1 JQ1         0.0261
     48 H17        11.4192    3.7204  -29.0858 H         1 JQ1         0.0261
     49 H18         9.9167    4.4995  -29.6877 H         1 JQ1         0.0261
     50 H19         7.2363    1.3147  -23.7144 H         1 JQ1         0.0639
     51 H20         5.0821   -2.3403  -24.3251 H         1 JQ1         0.0639
     52 H21         8.6714    0.7232  -25.6751 H         1 JQ1         0.0681
     53 H22         6.4960   -2.9112  -26.2271 H         1 JQ1         0.0681
     54 H23        12.3952   -0.5167  -27.0071 H         1 JQ1         0.0556
     55 H24        12.7656   -0.6477  -28.7599 H         1 JQ1         0.0556
     56 H25        10.3575   -1.1549  -29.1982 H         1 JQ1         0.0655
@<TRIPOS>BOND
     1   22    1 1  
     2   24    2 1  
     3   25    3 1  
     4   31    4 1  
     5   31    5 1  
     6   31    6 1  
     7   19    7 2  
     8   21    8 1  
     9   11    9 ar 
    10    9   21 ar 
    11   12   10 ar 
    12   10   21 ar 
    13   23   11 ar 
    14   23   12 ar 
    15   13   19 1  
    16   29   13 1  
    17   14   20 2  
    18   29   14 1  
    19   16   15 1  
    20   15   22 2  
    21   26   16 2  
    22   19   17 1  
    23   17   31 1  
    24   24   18 1  
    25   18   28 1  
    26   20   23 1  
    27   20   27 1  
    28   22   30 1  
    29   25   24 2  
    30   27   25 1  
    31   26   29 1  
    32   26   30 1  
    33   27   28 2  
    34   28   30 1  
    35    1   32 1  
    36    1   33 1  
    37    1   34 1  
    38    2   35 1  
    39    2   36 1  
    40    2   37 1  
    41    3   38 1  
    42    3   39 1  
    43    3   40 1  
    44    4   41 1  
    45    4   42 1  
    46    4   43 1  
    47    5   44 1  
    48    5   45 1  
    49    5   46 1  
    50    6   47 1  
    51    6   48 1  
    52    6   49 1  
    53    9   50 1  
    54   10   51 1  
    55   11   52 1  
    56   12   53 1  
    57   13   54 1  
    58   13   55 1  
    59   29   56 1  
@<TRIPOS>SUBSTRUCTURE
     1 JQ1         1

