### 
### Created by X-TOOL on Mon Sep 10 21:13:11 2018
### 

@<TRIPOS>MOLECULE
4fm7_ligand
   66    69     1     0     0
SMALL
GAST_HUCK


@<TRIPOS>ATOM
      1 C1         26.9070   36.8440   45.1420 C.ar      1 0UP        -0.0795
      2 C2         26.0280   38.5330   41.2850 C.ar      1 0UP        -0.0751
      3 C3         25.6480   36.2860   45.0580 C.ar      1 0UP        -0.0492
      4 C4         27.2880   38.6560   41.8310 C.ar      1 0UP        -0.0480
      5 C5         27.0400   38.2020   45.3200 C.ar      1 0UP        -0.0456
      6 C6         26.3790   36.2050   40.9090 C.ar      1 0UP        -0.0348
      7 C7         24.6450   38.4260   45.4100 C.ar      1 0UP        -0.0124
      8 C8         25.5550   37.3150   40.8480 C.ar      1 0UP        -0.0182
      9 C9         24.5190   37.0720   45.1610 C.ar      1 0UP         0.0656
     10 C10        28.0910   37.5390   41.8990 C.ar      1 0UP         0.1091
     11 C11        27.6460   36.3250   41.4120 C.ar      1 0UP         0.1138
     12 C12        25.9100   38.9830   45.4520 C.ar      1 0UP         0.1168
     13 C13        22.3450   35.3040   43.1560 C.3       1 0UP         0.0181
     14 C14        21.9140   37.7160   43.4530 C.3       1 0UP         0.0207
     15 C15        20.8880   36.1120   44.9670 C.3       1 0UP         0.0602
     16 C16        23.4550   35.5890   42.1630 C.3       1 0UP        -0.0278
     17 C17        22.9520   37.9970   42.3860 C.3       1 0UP        -0.0199
     18 C18        22.1490   36.4110   44.1600 C.3       1 0UP         0.1057
     19 C19        22.4430   39.1720   41.5810 C.3       1 0UP        -0.0215
     20 C20        28.5170   34.2740   39.2890 C.3       1 0UP        -0.0349
     21 C21        29.0570   32.9920   41.3310 C.3       1 0UP        -0.0349
     22 C22        20.2170   35.0950   47.1330 C.3       1 0UP         0.0200
     23 C23        24.1540   37.1500   40.3330 C.3       1 0UP        -0.0051
     24 C24        28.1920   34.0990   40.7610 C.3       1 0UP         0.0731
     25 N25        23.2460   36.4180   45.1710 N.am      1 0UP        -0.1545
     26 N26        21.2770   35.2710   46.1150 N.am      1 0UP        -0.2176
     27 N27        23.1560   36.8480   41.4360 N.4       1 0UP         0.2477
     28 O28        23.6490   34.5040   46.8140 O.2       1 0UP        -0.1293
     29 O29        22.7190   36.6490   47.7190 O.2       1 0UP        -0.1293
     30 O30        29.3830   37.5960   42.4020 O.3       1 0UP        -0.3414
     31 O31        28.5390   35.2700   41.5190 O.3       1 0UP        -0.3207
     32 F32        26.0540   40.3110   45.6380 F         1 0UP        -0.1881
     33 S33        22.8200   35.6820   46.6560 S.o2      1 0UP         0.1427
     34 H1         27.7872   36.2156   45.0681 H         1 0UP         0.0563
     35 H2         25.3979   39.4107   41.1979 H         1 0UP         0.0438
     36 H3         25.5447   35.2172   44.9093 H         1 0UP         0.0449
     37 H4         27.6397   39.6129   42.1995 H         1 0UP         0.0492
     38 H5         28.0243   38.6546   45.3562 H         1 0UP         0.0460
     39 H6         26.0219   35.2431   40.5593 H         1 0UP         0.0452
     40 H7         23.7667   39.0409   45.5697 H         1 0UP         0.0464
     41 H8         22.5901   34.3791   43.6986 H         1 0UP         0.0345
     42 H9         21.4058   35.1654   42.6005 H         1 0UP         0.0345
     43 H10        20.9216   37.6862   42.9796 H         1 0UP         0.0347
     44 H11        21.9424   38.5281   44.1944 H         1 0UP         0.0347
     45 H12        20.1605   35.5759   44.3398 H         1 0UP         0.0506
     46 H13        20.4414   37.0512   45.3254 H         1 0UP         0.0506
     47 H14        23.5268   34.7589   41.4448 H         1 0UP         0.0815
     48 H15        24.4095   35.6932   42.6997 H         1 0UP         0.0815
     49 H16        23.9105   38.2443   42.8657 H         1 0UP         0.0849
     50 H17        23.1669   39.4151   40.7892 H         1 0UP         0.0284
     51 H18        22.3167   40.0421   42.2420 H         1 0UP         0.0284
     52 H19        21.4754   38.9133   41.1263 H         1 0UP         0.0284
     53 H20        28.2392   33.3615   38.7412 H         1 0UP         0.0258
     54 H21        29.5949   34.4587   39.1709 H         1 0UP         0.0258
     55 H22        27.9524   35.1286   38.8879 H         1 0UP         0.0258
     56 H23        28.8267   32.8595   42.3984 H         1 0UP         0.0258
     57 H24        30.1178   33.2591   41.2152 H         1 0UP         0.0258
     58 H25        28.8541   32.0542   40.7930 H         1 0UP         0.0258
     59 H26        19.2719   34.8306   46.6362 H         1 0UP         0.0442
     60 H27        20.0870   36.0328   47.6930 H         1 0UP         0.0442
     61 H28        20.5043   34.2908   47.8263 H         1 0UP         0.0442
     62 H29        24.1403   36.3214   39.6096 H         1 0UP         0.0957
     63 H30        23.8520   38.0807   39.8304 H         1 0UP         0.0957
     64 H31        27.1237   33.8655   40.8799 H         1 0UP         0.0640
     65 H32        22.2712   36.7039   40.9751 H         1 0UP         0.2049
     66 H33        29.5658   38.4783   42.7029 H         1 0UP         0.2420
@<TRIPOS>BOND
     1    3    1 ar 
     2    1    5 ar 
     3    4    2 ar 
     4    8    2 ar 
     5    9    3 ar 
     6   10    4 ar 
     7   12    5 ar 
     8    6    8 ar 
     9   11    6 ar 
    10    9    7 ar 
    11    7   12 ar 
    12    8   23 1  
    13   25    9 1  
    14   11   10 ar 
    15   10   30 1  
    16   31   11 1  
    17   12   32 1  
    18   16   13 1  
    19   13   18 1  
    20   17   14 1  
    21   14   18 1  
    22   18   15 1  
    23   15   26 1  
    24   27   16 1  
    25   17   19 1  
    26   27   17 1  
    27   18   25 1  
    28   24   20 1  
    29   24   21 1  
    30   26   22 1  
    31   23   27 1  
    32   24   31 1  
    33   25   33 am 
    34   26   33 am 
    35   33   28 2  
    36   33   29 2  
    37    1   34 1  
    38    2   35 1  
    39    3   36 1  
    40    4   37 1  
    41    5   38 1  
    42    6   39 1  
    43    7   40 1  
    44   13   41 1  
    45   13   42 1  
    46   14   43 1  
    47   14   44 1  
    48   15   45 1  
    49   15   46 1  
    50   16   47 1  
    51   16   48 1  
    52   17   49 1  
    53   19   50 1  
    54   19   51 1  
    55   19   52 1  
    56   20   53 1  
    57   20   54 1  
    58   20   55 1  
    59   21   56 1  
    60   21   57 1  
    61   21   58 1  
    62   22   59 1  
    63   22   60 1  
    64   22   61 1  
    65   23   62 1  
    66   23   63 1  
    67   24   64 1  
    68   27   65 1  
    69   30   66 1  
@<TRIPOS>SUBSTRUCTURE
     1 0UP         1

