### 
### Created by X-TOOL on Mon Sep 10 21:13:10 2018
### 

@<TRIPOS>MOLECULE
4fm8_ligand
   65    68     1     0     0
SMALL
GAST_HUCK


@<TRIPOS>ATOM
      1 C1         22.3880   34.6370   42.4680 C.3       1 0UQ         0.0181
      2 C2         23.4070   34.9270   41.3780 C.3       1 0UQ        -0.0276
      3 N1         23.1740   36.2520   40.7110 N.4       1 0UQ         0.2491
      4 C3         22.9030   37.4190   41.6370 C.3       1 0UQ        -0.0197
      5 C4         21.8420   37.0960   42.6800 C.3       1 0UQ         0.0207
      6 C5         22.0960   35.7900   43.4220 C.3       1 0UQ         0.1057
      7 C6         22.4830   38.6370   40.8600 C.3       1 0UQ        -0.0215
      8 N2         23.0590   35.9860   44.5500 N.am      1 0UQ        -0.1545
      9 C7         20.7980   35.4670   44.1460 C.3       1 0UQ         0.0602
     10 C8         24.4520   36.3620   44.5020 C.ar      1 0UQ         0.0656
     11 C9         25.5520   35.5650   44.2420 C.ar      1 0UQ        -0.0492
     12 C10        26.8220   36.1190   44.2720 C.ar      1 0UQ        -0.0795
     13 C11        26.9970   37.4610   44.5860 C.ar      1 0UQ        -0.0456
     14 C12        25.8860   38.2380   44.8500 C.ar      1 0UQ         0.1168
     15 C13        24.6260   37.6940   44.8100 C.ar      1 0UQ        -0.0124
     16 F1         25.9580   39.5390   45.1550 F         1 0UQ        -0.1881
     17 C14        24.2100   36.5280   39.6480 C.3       1 0UQ        -0.0003
     18 C15        25.6250   36.6520   40.1160 C.ar      1 0UQ        -0.0075
     19 C16        26.4140   35.5250   40.1700 C.ar      1 0UQ        -0.0272
     20 C17        27.7260   35.6050   40.5990 C.ar      1 0UQ         0.0849
     21 C18        28.2620   36.8250   40.9710 C.ar      1 0UQ        -0.0401
     22 C19        27.4800   37.9600   40.9030 C.ar      1 0UQ        -0.0770
     23 C20        26.1760   37.8710   40.4700 C.ar      1 0UQ        -0.0664
     24 O1         28.5790   34.4990   40.6880 O.3       1 0UQ        -0.3171
     25 C21        28.2440   33.3890   39.8690 C.3       1 0UQ         0.0755
     26 C22        28.4710   33.6970   38.3940 C.3       1 0UQ        -0.0345
     27 C23        29.1740   32.2630   40.3080 C.3       1 0UQ        -0.0345
     28 S1         22.6730   35.0490   45.9250 S.o2      1 0UQ         0.1427
     29 N3         21.1410   34.6280   45.3120 N.am      1 0UQ        -0.2176
     30 O2         22.5770   36.0330   46.9890 O.2       1 0UQ        -0.1293
     31 C24        20.0320   34.5610   46.2860 C.3       1 0UQ         0.0200
     32 O3         23.4900   33.8670   46.0660 O.2       1 0UQ        -0.1293
     33 H1         22.7616   33.7913   43.0640 H         1 0UQ         0.0345
     34 H2         21.4433   34.3534   41.9811 H         1 0UQ         0.0345
     35 H3         23.3461   34.1340   40.6181 H         1 0UQ         0.0815
     36 H4         24.4117   34.9294   41.8259 H         1 0UQ         0.0815
     37 H5         22.3096   36.1339   40.2061 H         1 0UQ         0.2051
     38 H6         23.8396   37.6519   42.1648 H         1 0UQ         0.0849
     39 H7         20.8674   37.0253   42.1748 H         1 0UQ         0.0347
     40 H8         21.8157   37.9142   43.4147 H         1 0UQ         0.0347
     41 H9         22.2929   39.4679   41.5553 H         1 0UQ         0.0284
     42 H10        21.5654   38.4137   40.2959 H         1 0UQ         0.0284
     43 H11        23.2836   38.9200   40.1608 H         1 0UQ         0.0284
     44 H12        20.1193   34.9196   43.4754 H         1 0UQ         0.0506
     45 H13        20.3127   36.3957   44.4806 H         1 0UQ         0.0506
     46 H14        25.4215   34.5129   44.0160 H         1 0UQ         0.0449
     47 H15        27.6844   35.5012   44.0490 H         1 0UQ         0.0563
     48 H16        27.9909   37.8920   44.6233 H         1 0UQ         0.0460
     49 H17        23.7635   38.3155   45.0218 H         1 0UQ         0.0464
     50 H18        23.9376   37.4712   39.1518 H         1 0UQ         0.0979
     51 H19        24.1693   35.7052   38.9191 H         1 0UQ         0.0979
     52 H20        26.0031   34.5667   39.8736 H         1 0UQ         0.0480
     53 H21        29.2885   36.8889   41.3133 H         1 0UQ         0.0486
     54 H22        27.8919   38.9207   41.1902 H         1 0UQ         0.0572
     55 H23        25.5722   38.7690   40.4055 H         1 0UQ         0.0466
     56 H24        27.1928   33.1050   40.0251 H         1 0UQ         0.0644
     57 H25        28.2021   32.8177   37.7902 H         1 0UQ         0.0258
     58 H26        29.5301   33.9444   38.2298 H         1 0UQ         0.0258
     59 H27        27.8446   34.5511   38.0971 H         1 0UQ         0.0258
     60 H28        28.9681   31.3632   39.7097 H         1 0UQ         0.0258
     61 H29        29.0055   32.0421   41.3723 H         1 0UQ         0.0258
     62 H30        30.2192   32.5714   40.1585 H         1 0UQ         0.0258
     63 H31        19.1039   34.2811   45.7662 H         1 0UQ         0.0442
     64 H32        19.9030   35.5438   46.7629 H         1 0UQ         0.0442
     65 H33        20.2634   33.8083   47.0540 H         1 0UQ         0.0442
@<TRIPOS>BOND
     1    1    2 1  
     2    1    6 1  
     3    2    3 1  
     4    3    4 1  
     5    3   17 1  
     6    4    5 1  
     7    4    7 1  
     8    5    6 1  
     9    6    8 1  
    10    6    9 1  
    11    8   10 1  
    12    8   28 am 
    13    9   29 1  
    14   10   11 ar 
    15   10   15 ar 
    16   11   12 ar 
    17   12   13 ar 
    18   13   14 ar 
    19   14   15 ar 
    20   14   16 1  
    21   17   18 1  
    22   18   19 ar 
    23   18   23 ar 
    24   19   20 ar 
    25   20   21 ar 
    26   20   24 1  
    27   21   22 ar 
    28   22   23 ar 
    29   24   25 1  
    30   25   26 1  
    31   25   27 1  
    32   28   29 am 
    33   28   30 2  
    34   28   32 2  
    35   29   31 1  
    36    1   33 1  
    37    1   34 1  
    38    2   35 1  
    39    2   36 1  
    40    3   37 1  
    41    4   38 1  
    42    5   39 1  
    43    5   40 1  
    44    7   41 1  
    45    7   42 1  
    46    7   43 1  
    47    9   44 1  
    48    9   45 1  
    49   11   46 1  
    50   12   47 1  
    51   13   48 1  
    52   15   49 1  
    53   17   50 1  
    54   17   51 1  
    55   19   52 1  
    56   21   53 1  
    57   22   54 1  
    58   23   55 1  
    59   25   56 1  
    60   26   57 1  
    61   26   58 1  
    62   26   59 1  
    63   27   60 1  
    64   27   61 1  
    65   27   62 1  
    66   31   63 1  
    67   31   64 1  
    68   31   65 1  
@<TRIPOS>SUBSTRUCTURE
     1 0UQ         1

