### 
### Created by X-TOOL on Mon Sep 10 21:13:10 2018
### 

@<TRIPOS>MOLECULE
4fmu_ligand
   60    62     1     0     0
SMALL
GAST_HUCK


@<TRIPOS>ATOM
      1 C4         -1.1980   31.2530   18.2360 C.ar      1 0UM         0.1613
      2 C5          0.1390   31.1310   18.1530 C.ar      1 0UM         0.1045
      3 C6          0.9210   32.2130   18.3790 C.ar      1 0UM         0.1298
      4 C8         -0.7370   29.2000   17.6990 C.2       1 0UM         0.1123
      5 N1          0.3880   33.4150   18.6430 N.ar      1 0UM        -0.2698
      6 N3         -1.7990   32.4360   18.5550 N.ar      1 0UM        -0.2714
      7 O          -5.9570   25.9460   21.8640 O.co2     1 0UM        -0.5643
      8 C          -5.7800   25.4600   20.7410 C.2       1 0UM         0.0844
      9 CA         -4.5970   26.0170   19.8890 C.3       1 0UM         0.0285
     10 N          -3.6480   26.8240   20.6790 N.4       1 0UM         0.2327
     11 CB         -3.8610   24.8700   19.2060 C.3       1 0UM         0.0075
     12 CAM        -2.9560   25.3050   18.0360 C.3       1 0UM        -0.0030
     13 CAY        -3.7340   25.5250   16.7020 C.3       1 0UM        -0.0199
     14 NAR        -3.5760   24.3600   15.8090 N.4       1 0UM         0.2292
     15 CAK        -2.2940   24.2010   15.0770 C.3       1 0UM        -0.0337
     16 CAJ        -2.3790   22.9280   14.2270 C.3       1 0UM        -0.0154
     17 CAA        -1.1180   22.7260   13.3880 C.3       1 0UM        -0.0605
     18 CAN        -3.3110   26.8450   15.9670 C.3       1 0UM         0.0192
     19 CBB        -3.9730   28.0880   16.5540 C.3       1 0UM         0.0957
     20 OAS        -3.3880   28.3950   17.8390 O.3       1 0UM        -0.3389
     21 CAZ        -3.6860   29.2800   15.6640 C.3       1 0UM         0.1126
     22 OAF        -4.7150   29.3510   14.7190 O.3       1 0UM        -0.3865
     23 CBA        -3.7840   30.4310   16.6450 C.3       1 0UM         0.1384
     24 OAG        -5.1400   30.7550   16.8870 O.3       1 0UM        -0.3836
     25 CBC        -3.1830   29.8210   17.9410 C.3       1 0UM         0.2009
     26 N9         -1.7210   30.0490   18.0160 N.pl3     1 0UM        -0.1919
     27 N7          0.4080   29.8600   17.8120 N.2       1 0UM        -0.2958
     28 C2         -0.9990   33.5510   18.7760 C.ar      1 0UM         0.0533
     29 N6          2.2420   32.0820   18.2570 N.pl3     1 0UM        -0.3152
     30 OXT        -6.5570   24.6200   20.2260 O.co2     1 0UM        -0.5643
     31 H          -0.8545   28.1577   17.4024 H         1 0UM         0.1349
     32 H          -5.0315   26.6806   19.1414 H         1 0UM         0.1024
     33 H          -2.9004   27.1591   20.0713 H         1 0UM         0.2010
     34 H          -4.1381   27.6198   21.0875 H         1 0UM         0.2010
     35 H          -3.2515   26.2492   21.4225 H         1 0UM         0.2010
     36 H          -4.6182   24.2023   18.7950 H         1 0UM         0.0340
     37 H          -3.2173   24.4100   19.9558 H         1 0UM         0.0340
     38 H          -2.2311   24.5087   17.8669 H         1 0UM         0.0323
     39 H          -2.4974   26.2551   18.3102 H         1 0UM         0.0323
     40 H          -4.7866   25.6318   16.9643 H         1 0UM         0.0851
     41 H          -4.2846   24.4796   15.0851 H         1 0UM         0.2016
     42 H          -3.6390   23.5448   16.4188 H         1 0UM         0.2016
     43 H          -1.4674   24.1241   15.7834 H         1 0UM         0.0814
     44 H          -2.1190   25.0662   14.4376 H         1 0UM         0.0814
     45 H          -3.2301   23.0208   13.5524 H         1 0UM         0.0314
     46 H          -2.4879   22.0742   14.8958 H         1 0UM         0.0314
     47 H          -0.9869   23.5777   12.7206 H         1 0UM         0.0232
     48 H          -0.2539   22.6430   14.0473 H         1 0UM         0.0232
     49 H          -1.2168   21.8137   12.7998 H         1 0UM         0.0232
     50 H          -3.6226   26.7614   14.9258 H         1 0UM         0.0346
     51 H          -2.2325   26.9576   16.0782 H         1 0UM         0.0346
     52 H          -5.0425   27.8960   16.6402 H         1 0UM         0.0626
     53 H          -2.7372   29.2575   15.1279 H         1 0UM         0.0647
     54 H          -5.5552   29.4613   15.1701 H         1 0UM         0.2100
     55 H          -3.2874   31.3357   16.2941 H         1 0UM         0.0676
     56 H          -5.5900   29.9904   17.2538 H         1 0UM         0.2101
     57 H          -3.6518   30.2722   18.8155 H         1 0UM         0.0996
     58 H          -1.4416   34.5096   19.0467 H         1 0UM         0.0996
     59 H           2.6434   31.1807   17.9984 H         1 0UM         0.1820
     60 H           2.8514   32.8831   18.4223 H         1 0UM         0.1820
@<TRIPOS>BOND
     1    1    2 ar 
     2    1    6 ar 
     3   26    1 1  
     4    2    3 ar 
     5   27    2 1  
     6    3    5 ar 
     7    3   29 1  
     8   26    4 1  
     9    4   27 2  
    10   28    5 ar 
    11    6   28 ar 
    12    8    7 ar 
    13    9    8 1  
    14    8   30 ar 
    15    9   10 1  
    16   11    9 1  
    17   12   11 1  
    18   13   12 1  
    19   13   14 1  
    20   18   13 1  
    21   14   15 1  
    22   15   16 1  
    23   16   17 1  
    24   19   18 1  
    25   20   19 1  
    26   21   19 1  
    27   25   20 1  
    28   21   22 1  
    29   23   21 1  
    30   23   24 1  
    31   25   23 1  
    32   25   26 1  
    33    4   31 1  
    34    9   32 1  
    35   10   33 1  
    36   10   34 1  
    37   10   35 1  
    38   11   36 1  
    39   11   37 1  
    40   12   38 1  
    41   12   39 1  
    42   13   40 1  
    43   14   41 1  
    44   14   42 1  
    45   15   43 1  
    46   15   44 1  
    47   16   45 1  
    48   16   46 1  
    49   17   47 1  
    50   17   48 1  
    51   17   49 1  
    52   18   50 1  
    53   18   51 1  
    54   19   52 1  
    55   21   53 1  
    56   22   54 1  
    57   23   55 1  
    58   24   56 1  
    59   25   57 1  
    60   28   58 1  
    61   29   59 1  
    62   29   60 1  
@<TRIPOS>SUBSTRUCTURE
     1 0UM         1

