### 
### Created by X-TOOL on Mon Sep 10 21:13:10 2018
### 

@<TRIPOS>MOLECULE
4fn5_ligand
  106   111     1     0     0
SMALL
GAST_HUCK


@<TRIPOS>ATOM
      1 N         -58.6110  -37.2680  -17.2200 N.am      1 DAL        -0.2640
      2 CA        -59.7660  -36.3750  -17.3040 C.3       1 DAL         0.1096
      3 CB        -59.5870  -35.4750  -18.5340 C.3       1 DAL        -0.0247
      4 C         -59.8400  -35.5770  -16.0140 C.2       1 DAL         0.1211
      5 N         -59.0590  -34.5200  -15.8000 N.2       1 BB9        -0.3043
      6 CA        -59.2630  -33.9000  -14.5620 C.2       1 BB9         0.0833
      7 C         -58.4580  -32.7350  -14.1050 C.2       1 BB9         0.2005
      8 O         -58.7560  -32.0230  -13.1360 O.2       1 BB9        -0.3925
      9 CB        -60.1610  -34.5530  -13.7740 C.2       1 BB9         0.0306
     10 SG        -60.8640  -35.9020  -14.5970 S.3       1 BB9         0.0093
     11 N         -57.3550  -32.5880  -14.8460 N.am      1 TRP        -0.2662
     12 CA        -56.2880  -31.6250  -14.6730 C.3       1 TRP         0.1343
     13 C         -55.6610  -31.2420  -16.0260 C.2       1 TRP         0.2052
     14 O         -56.0100  -31.8280  -17.0730 O.2       1 TRP        -0.3943
     15 CB        -55.3100  -32.2900  -13.6970 C.3       1 TRP         0.0041
     16 CG        -54.6210  -33.5180  -14.2200 C.2       1 TRP        -0.0418
     17 CD1       -55.1990  -34.6700  -14.6680 C.2       1 TRP         0.0167
     18 CD2       -53.1980  -33.6520  -14.4670 C.ar      1 TRP        -0.0214
     19 NE1       -54.2180  -35.5100  -15.1360 N.pl3     1 TRP        -0.2890
     20 CE2       -52.9670  -34.9460  -15.0260 C.ar      1 TRP         0.0603
     21 CE3       -52.0930  -32.8090  -14.2400 C.ar      1 TRP        -0.0747
     22 CZ2       -51.6780  -35.4080  -15.3120 C.ar      1 TRP        -0.0443
     23 CZ3       -50.7900  -33.2690  -14.4790 C.ar      1 TRP        -0.0792
     24 CH2       -50.5930  -34.5570  -15.0320 C.ar      1 TRP        -0.0768
     25 O3        -54.0960  -28.7140  -13.2740 O.3       1 0UO        -0.3243
     26 C11       -50.7860  -29.1340  -16.1750 C.2       1 0UO         0.0117
     27 C13       -50.5710  -29.6380  -13.9790 C.ar      1 0UO         0.0522
     28 C14       -50.1130  -30.0290  -12.7100 C.ar      1 0UO        -0.0568
     29 C15       -50.9810  -29.9940  -11.6100 C.ar      1 0UO        -0.0873
     30 C16       -52.3100  -29.5620  -11.7980 C.ar      1 0UO        -0.0507
     31 C17       -52.7960  -29.1410  -13.0810 C.ar      1 0UO         0.0824
     32 C18       -51.9230  -29.1970  -14.2250 C.ar      1 0UO         0.0115
     33 C19       -55.0170  -28.7190  -12.1830 C.3       1 0UO         0.0593
     34 C         -53.1920  -30.6220  -17.9500 C.2       1 0UO         0.2050
     35 CA        -54.0030  -29.6260  -17.0890 C.3       1 0UO         0.1352
     36 C9        -53.1580  -28.4620  -16.5140 C.3       1 0UO         0.0035
     37 C10       -52.0050  -28.8770  -15.6550 C.2       1 0UO        -0.0440
     38 N         -54.7410  -30.2440  -15.9810 N.am      1 0UO        -0.2625
     39 O         -52.9690  -30.3710  -19.1320 O.2       1 0UO        -0.3943
     40 N6        -49.9400  -29.5900  -15.2000 N.pl3     1 0UO        -0.2941
     41 N         -52.7700  -31.7480  -17.3510 N.am      1 GLY        -0.2663
     42 CA        -51.9960  -32.8240  -17.9650 C.3       1 GLY         0.1201
     43 C         -52.8130  -33.7930  -18.8170 C.2       1 GLY         0.2008
     44 O         -52.2070  -34.7330  -19.3380 O.2       1 GLY        -0.3947
     45 N         -54.1480  -33.5990  -18.9540 N.am      1 DBB        -0.2634
     46 CA        -55.1340  -34.4280  -19.6630 C.3       1 DBB         0.1372
     47 C         -55.3110  -35.7230  -18.8390 C.2       1 DBB         0.2324
     48 O         -56.3490  -35.9590  -18.2380 O.2       1 DBB        -0.3806
     49 CB        -56.4580  -33.6320  -19.7220 C.3       1 DBB        -0.0147
     50 CG        -56.7820  -33.1030  -21.1150 C.3       1 DBB        -0.0610
     51 N         -54.2470  -36.5300  -18.7790 N.am      1 DHA        -0.2230
     52 CA        -54.0900  -37.7370  -18.1040 C.2       1 DHA         0.1299
     53 CB        -52.9840  -38.4510  -18.3680 C.2       1 DHA        -0.0864
     54 C         -55.0840  -38.1970  -17.1160 C.2       1 DHA         0.2379
     55 O         -54.9550  -37.8940  -15.9300 O.2       1 DHA        -0.3772
     56 N         -56.1920  -38.8650  -17.5540 N.am      1 SAR        -0.2535
     57 CA        -57.2230  -39.2690  -16.5780 C.3       1 SAR         0.1224
     58 C         -58.5400  -38.4700  -16.6130 C.2       1 SAR         0.2015
     59 O         -59.5070  -38.9950  -16.0630 O.2       1 SAR        -0.3946
     60 CN        -56.4600  -39.2450  -18.9580 C.3       1 SAR         0.0248
     61 H         -57.7577  -36.9430  -17.6746 H         1 DAL         0.1892
     62 H         -60.7018  -36.9219  -17.4189 H         1 DAL         0.0814
     63 H         -60.4316  -34.7899  -18.6073 H         1 DAL         0.0283
     64 H         -58.6630  -34.9054  -18.4344 H         1 DAL         0.0283
     65 H         -59.5397  -36.0927  -19.4308 H         1 DAL         0.0283
     66 H         -60.4061  -34.2621  -12.7525 H         1 BB9         0.0807
     67 H         -57.2527  -33.2334  -15.6292 H         1 TRP         0.1872
     68 H         -56.6327  -30.6735  -14.2681 H         1 TRP         0.0814
     69 H         -55.8951  -32.6035  -12.8324 H         1 TRP         0.0396
     70 H         -54.5297  -31.5581  -13.4883 H         1 TRP         0.0396
     71 H         -56.2668  -34.8885  -14.6564 H         1 TRP         0.0795
     72 H         -54.3950  -36.4388  -15.5186 H         1 TRP         0.2216
     73 H         -52.2514  -31.7936  -13.8766 H         1 TRP         0.0540
     74 H         -51.5188  -36.3981  -15.7392 H         1 TRP         0.0541
     75 H         -49.9337  -32.6382  -14.2403 H         1 TRP         0.0510
     76 H         -49.5795  -34.8967  -15.2454 H         1 TRP         0.0530
     77 H         -50.5141  -28.9979  -17.2217 H         1 0UO         0.0749
     78 H         -49.0825  -30.3597  -12.5807 H         1 0UO         0.0433
     79 H         -50.6332  -30.2967  -10.6223 H         1 0UO         0.0501
     80 H         -52.9877  -29.5474  -10.9444 H         1 0UO         0.0414
     81 H         -55.1255  -29.7358  -11.8055 H         1 0UO         0.0579
     82 H         -54.6414  -28.0735  -11.3891 H         1 0UO         0.0579
     83 H         -55.9847  -28.3516  -12.5244 H         1 0UO         0.0579
     84 H         -54.7196  -29.2296  -17.8083 H         1 0UO         0.0815
     85 H         -53.8236  -27.8738  -15.8823 H         1 0UO         0.0398
     86 H         -52.7376  -27.9289  -17.3667 H         1 0UO         0.0398
     87 H         -54.5354  -29.8744  -15.0528 H         1 0UO         0.1884
     88 H         -48.9689  -29.8589  -15.3584 H         1 0UO         0.2200
     89 H         -53.0149  -31.8633  -16.3676 H         1 GLY         0.1881
     90 H         -51.5614  -33.4056  -17.1520 H         1 GLY         0.0763
     91 H         -51.2699  -32.3536  -18.6281 H         1 GLY         0.0763
     92 H         -54.5194  -32.7628  -18.5031 H         1 DBB         0.1883
     93 H         -54.8223  -34.6776  -20.6772 H         1 DBB         0.0806
     94 H         -56.3558  -32.7730  -19.0589 H         1 DBB         0.0310
     95 H         -57.2621  -34.3079  -19.4310 H         1 DBB         0.0310
     96 H         -55.9835  -32.4383  -21.4446 H         1 DBB         0.0232
     97 H         -56.8698  -33.9393  -21.8085 H         1 DBB         0.0232
     98 H         -57.7235  -32.5546  -21.0841 H         1 DBB         0.0232
     99 H         -53.4313  -36.2154  -19.3045 H         1 DHA         0.2302
    100 H         -52.2535  -38.0787  -19.0862 H         1 DHA         0.0195
    101 H         -52.8167  -39.4029  -17.8641 H         1 DHA         0.0195
    102 H         -56.7911  -39.1023  -15.5912 H         1 SAR         0.0765
    103 H         -57.4846  -40.2993  -16.8193 H         1 SAR         0.0765
    104 H         -56.4971  -38.3474  -19.5753 H         1 SAR         0.0488
    105 H         -55.6645  -39.8997  -19.3140 H         1 SAR         0.0488
    106 H         -57.4151  -39.7670  -19.0158 H         1 SAR         0.0488
@<TRIPOS>BOND
     1    2    1 1  
     2    1   58 am 
     3    2    3 1  
     4    4    2 1  
     5    5    4 2  
     6   10    4 1  
     7    6    5 1  
     8    7    6 1  
     9    6    9 2  
    10    7    8 2  
    11   11    7 am 
    12    9   10 1  
    13   12   11 1  
    14   13   12 1  
    15   12   15 1  
    16   13   14 2  
    17   38   13 am 
    18   15   16 1  
    19   16   17 2  
    20   16   18 1  
    21   17   19 1  
    22   18   20 ar 
    23   18   21 ar 
    24   20   19 1  
    25   20   22 ar 
    26   21   23 ar 
    27   22   24 ar 
    28   23   24 ar 
    29   31   25 1  
    30   25   33 1  
    31   37   26 2  
    32   26   40 1  
    33   27   28 ar 
    34   32   27 ar 
    35   27   40 1  
    36   28   29 ar 
    37   30   29 ar 
    38   31   30 ar 
    39   32   31 ar 
    40   37   32 1  
    41   35   34 1  
    42   34   39 2  
    43   34   41 am 
    44   36   35 1  
    45   35   38 1  
    46   36   37 1  
    47   41   42 1  
    48   42   43 1  
    49   43   44 2  
    50   43   45 am 
    51   45   46 1  
    52   46   47 1  
    53   46   49 1  
    54   47   48 2  
    55   47   51 am 
    56   49   50 1  
    57   51   52 1  
    58   52   53 2  
    59   52   54 1  
    60   54   55 2  
    61   54   56 am 
    62   56   57 1  
    63   56   60 1  
    64   57   58 1  
    65   58   59 2  
    66    1   61 1  
    67    2   62 1  
    68    3   63 1  
    69    3   64 1  
    70    3   65 1  
    71    9   66 1  
    72   11   67 1  
    73   12   68 1  
    74   15   69 1  
    75   15   70 1  
    76   17   71 1  
    77   19   72 1  
    78   21   73 1  
    79   22   74 1  
    80   23   75 1  
    81   24   76 1  
    82   26   77 1  
    83   28   78 1  
    84   29   79 1  
    85   30   80 1  
    86   33   81 1  
    87   33   82 1  
    88   33   83 1  
    89   35   84 1  
    90   36   85 1  
    91   36   86 1  
    92   38   87 1  
    93   40   88 1  
    94   41   89 1  
    95   42   90 1  
    96   42   91 1  
    97   45   92 1  
    98   46   93 1  
    99   49   94 1  
   100   49   95 1  
   101   50   96 1  
   102   50   97 1  
   103   50   98 1  
   104   51   99 1  
   105   53  100 1  
   106   53  101 1  
   107   57  102 1  
   108   57  103 1  
   109   60  104 1  
   110   60  105 1  
   111   60  106 1  
@<TRIPOS>SUBSTRUCTURE
     1 DAL         1

