### 
### Created by X-TOOL on Mon Sep 10 21:13:11 2018
### 

@<TRIPOS>MOLECULE
4fnn_ligand
   55    54     1     0     0
SMALL
GAST_HUCK


@<TRIPOS>ATOM
      1 C1        -33.8530  -17.8050  -40.6870 C.2       1 STE         0.0348
      2 O1        -32.7480  -17.3260  -40.4740 O.co2     1 STE        -0.5690
      3 O2        -34.8020  -17.1250  -41.0400 O.co2     1 STE        -0.5690
      4 C2        -34.0480  -19.2700  -40.5170 C.3       1 STE         0.0002
      5 C3        -35.4510  -19.6600  -40.9610 C.3       1 STE        -0.0414
      6 C4        -35.4700  -21.1260  -41.3850 C.3       1 STE        -0.0516
      7 C5        -36.8830  -21.6700  -41.4480 C.3       1 STE        -0.0530
      8 C6        -36.9550  -22.8010  -42.4450 C.3       1 STE        -0.0531
      9 C7        -36.6960  -24.1870  -41.8900 C.3       1 STE        -0.0531
     10 C8        -36.0670  -25.0990  -42.9420 C.3       1 STE        -0.0531
     11 C9        -34.9600  -24.3950  -43.6920 C.3       1 STE        -0.0531
     12 C10       -34.7730  -22.9810  -43.1480 C.3       1 STE        -0.0531
     13 C11       -33.2900  -22.6060  -43.0260 C.3       1 STE        -0.0531
     14 C12       -32.4330  -23.7190  -42.4420 C.3       1 STE        -0.0531
     15 C13       -32.2140  -23.5880  -40.9290 C.3       1 STE        -0.0531
     16 C14       -33.4960  -23.6100  -40.0910 C.3       1 STE        -0.0531
     17 C15       -33.5180  -24.8330  -39.1690 C.3       1 STE        -0.0531
     18 C16       -34.9270  -25.2540  -38.7350 C.3       1 STE        -0.0533
     19 C17       -35.0990  -26.7610  -38.6400 C.3       1 STE        -0.0559
     20 C18       -36.4420  -27.2610  -39.1240 C.3       1 STE        -0.0653
     21 H1        -33.9134  -19.5356  -39.4581 H         1 STE         0.0430
     22 H2        -33.3089  -19.8098  -41.1273 H         1 STE         0.0430
     23 H3        -35.7535  -19.0302  -41.8106 H         1 STE         0.0283
     24 H4        -36.1525  -19.5120  -40.1267 H         1 STE         0.0283
     25 H5        -34.8926  -21.7155  -40.6576 H         1 STE         0.0266
     26 H6        -35.0081  -21.2161  -42.3793 H         1 STE         0.0266
     27 H7        -37.5692  -20.8676  -41.7568 H         1 STE         0.0265
     28 H8        -37.1756  -22.0406  -40.4545 H         1 STE         0.0265
     29 H9        -36.2091  -22.6070  -43.2299 H         1 STE         0.0265
     30 H10       -37.9621  -22.7974  -42.8873 H         1 STE         0.0265
     31 H11       -37.6498  -24.6249  -41.5607 H         1 STE         0.0265
     32 H12       -36.0133  -24.1070  -41.0312 H         1 STE         0.0265
     33 H13       -36.8432  -25.4085  -43.6574 H         1 STE         0.0265
     34 H14       -35.6525  -25.9876  -42.4434 H         1 STE         0.0265
     35 H15       -35.2203  -24.3424  -44.7595 H         1 STE         0.0265
     36 H16       -34.0230  -24.9582  -43.5703 H         1 STE         0.0265
     37 H17       -35.2386  -22.9182  -42.1534 H         1 STE         0.0265
     38 H18       -35.2646  -22.2703  -43.8286 H         1 STE         0.0265
     39 H19       -33.2057  -21.7229  -42.3756 H         1 STE         0.0265
     40 H20       -32.9084  -22.3611  -44.0282 H         1 STE         0.0265
     41 H21       -31.4520  -23.7014  -42.9393 H         1 STE         0.0265
     42 H22       -32.9277  -24.6811  -42.6408 H         1 STE         0.0265
     43 H23       -31.6972  -22.6358  -40.7390 H         1 STE         0.0265
     44 H24       -31.5768  -24.4227  -40.6017 H         1 STE         0.0265
     45 H25       -34.3662  -23.6484  -40.7628 H         1 STE         0.0265
     46 H26       -33.5442  -22.6964  -39.4803 H         1 STE         0.0265
     47 H27       -32.9328  -24.5986  -38.2676 H         1 STE         0.0265
     48 H28       -33.0520  -25.6762  -39.6998 H         1 STE         0.0265
     49 H29       -35.6493  -24.8653  -39.4679 H         1 STE         0.0265
     50 H30       -35.1343  -24.8156  -37.7477 H         1 STE         0.0265
     51 H31       -34.9793  -27.0567  -37.5873 H         1 STE         0.0263
     52 H32       -34.3143  -27.2372  -39.2462 H         1 STE         0.0263
     53 H33       -36.4843  -28.3554  -39.0219 H         1 STE         0.0230
     54 H34       -36.5767  -26.9859  -40.1805 H         1 STE         0.0230
     55 H35       -37.2417  -26.8054  -38.5216 H         1 STE         0.0230
@<TRIPOS>BOND
     1    1    2 ar 
     2    1    3 ar 
     3    1    4 1  
     4    4    5 1  
     5    5    6 1  
     6    6    7 1  
     7    7    8 1  
     8    8    9 1  
     9    9   10 1  
    10   10   11 1  
    11   11   12 1  
    12   12   13 1  
    13   13   14 1  
    14   14   15 1  
    15   15   16 1  
    16   16   17 1  
    17   17   18 1  
    18   18   19 1  
    19   19   20 1  
    20    4   21 1  
    21    4   22 1  
    22    5   23 1  
    23    5   24 1  
    24    6   25 1  
    25    6   26 1  
    26    7   27 1  
    27    7   28 1  
    28    8   29 1  
    29    8   30 1  
    30    9   31 1  
    31    9   32 1  
    32   10   33 1  
    33   10   34 1  
    34   11   35 1  
    35   11   36 1  
    36   12   37 1  
    37   12   38 1  
    38   13   39 1  
    39   13   40 1  
    40   14   41 1  
    41   14   42 1  
    42   15   43 1  
    43   15   44 1  
    44   16   45 1  
    45   16   46 1  
    46   17   47 1  
    47   17   48 1  
    48   18   49 1  
    49   18   50 1  
    50   19   51 1  
    51   19   52 1  
    52   20   53 1  
    53   20   54 1  
    54   20   55 1  
@<TRIPOS>SUBSTRUCTURE
     1 STE         1

