### 
### Created by X-TOOL on Mon Sep 10 21:13:09 2018
### 

@<TRIPOS>MOLECULE
4fns_ligand
   25    25     1     0     0
SMALL
GAST_HUCK


@<TRIPOS>ATOM
      1 C1        -93.3920   12.2300  -44.7850 C.3       1 DGJ        -0.0040
      2 C2        -93.2390   10.8620  -44.1340 C.3       1 DGJ         0.1231
      3 O2        -92.5570   10.9570  -42.9190 O.3       1 DGJ        -0.3838
      4 C3        -92.5750    9.9440  -45.1300 C.3       1 DGJ         0.1171
      5 O3        -92.3170    8.7010  -44.5530 O.3       1 DGJ        -0.3862
      6 C4        -93.4760    9.7870  -46.3210 C.3       1 DGJ         0.1280
      7 O4        -94.6140    9.1110  -45.9300 O.3       1 DGJ        -0.3835
      8 C5        -93.7820   11.1600  -46.9110 C.3       1 DGJ         0.0301
      9 N5        -94.2450   12.1310  -45.9540 N.4       1 DGJ         0.2346
     10 C6        -94.8070   10.9560  -48.0120 C.3       1 DGJ         0.0893
     11 O6        -95.3270   12.1850  -48.4230 O.3       1 DGJ        -0.3894
     12 H1        -92.4020   12.6024  -45.0871 H         1 DGJ         0.0840
     13 H2        -93.8420   12.9282  -44.0639 H         1 DGJ         0.0840
     14 H3        -94.2412   10.4629  -43.9188 H         1 DGJ         0.0674
     15 H4        -91.6925   11.3207  -43.0700 H         1 DGJ         0.2101
     16 H5        -91.6231   10.3905  -45.4531 H         1 DGJ         0.0649
     17 H6        -91.8995    8.1366  -45.1930 H         1 DGJ         0.2100
     18 H7        -92.9605    9.1884  -47.0865 H         1 DGJ         0.0678
     19 H8        -95.1913    9.0064  -46.6772 H         1 DGJ         0.2102
     20 H9        -92.8566   11.5538  -47.3566 H         1 DGJ         0.0900
     21 H10       -94.2795   13.0327  -46.4032 H         1 DGJ         0.2019
     22 H11       -95.1711   11.8693  -45.6541 H         1 DGJ         0.2019
     23 H12       -95.6244   10.3241  -47.6345 H         1 DGJ         0.0614
     24 H13       -94.3261   10.4607  -48.8684 H         1 DGJ         0.0614
     25 H14       -95.9662   12.0429  -49.1113 H         1 DGJ         0.2097
@<TRIPOS>BOND
     1    1    2 1  
     2    1    9 1  
     3    2    3 1  
     4    2    4 1  
     5    4    5 1  
     6    4    6 1  
     7    6    7 1  
     8    6    8 1  
     9    8    9 1  
    10    8   10 1  
    11   10   11 1  
    12    1   12 1  
    13    1   13 1  
    14    2   14 1  
    15    3   15 1  
    16    4   16 1  
    17    5   17 1  
    18    6   18 1  
    19    7   19 1  
    20    8   20 1  
    21    9   21 1  
    22    9   22 1  
    23   10   23 1  
    24   10   24 1  
    25   11   25 1  
@<TRIPOS>SUBSTRUCTURE
     1 DGJ         1

