### 
### Created by X-TOOL on Mon Sep 10 21:13:10 2018
### 

@<TRIPOS>MOLECULE
4fny_ligand
   50    54     1     0     0
SMALL
GAST_HUCK


@<TRIPOS>ATOM
      1 C19         1.1990    7.6560   43.3110 C.3       1 I3K         0.0593
      2 O18         2.5440    8.0080   43.7350 O.3       1 I3K        -0.3183
      3 C13         3.1470    9.1220   43.1930 C.ar      1 I3K         0.1285
      4 C14         2.5020    9.9700   42.2750 C.ar      1 I3K        -0.0214
      5 C12         4.4540    9.4190   43.5810 C.ar      1 I3K         0.1283
      6 O16         5.0490    8.5830   44.4740 O.3       1 I3K        -0.3208
      7 C17         6.4220    8.9490   44.7980 C.3       1 I3K         0.0581
      8 C15         5.1060   10.5520   43.0710 C.ar      1 I3K        -0.0223
      9 C6          4.4530   11.3890   42.1530 C.ar      1 I3K         0.0272
     10 C7          3.1470   11.0970   41.7610 C.ar      1 I3K         0.0171
     11 N8          2.5040   11.8930   40.8780 N.ar      1 I3K        -0.3285
     12 C9          3.0730   12.9680   40.3660 C.ar      1 I3K        -0.0137
     13 C10         4.3700   13.3220   40.7160 C.ar      1 I3K        -0.0091
     14 C11         5.0790   12.5220   41.6200 C.ar      1 I3K         0.1360
     15 O20         6.3710   12.8020   42.0150 O.3       1 I3K        -0.2529
     16 C21         7.0560   13.8810   41.5460 C.ar      1 I3K         0.1049
     17 C22         7.4450   13.9900   40.2070 C.ar      1 I3K        -0.0322
     18 C24         7.3880   14.8690   42.4650 C.ar      1 I3K        -0.0397
     19 C23         8.1050   15.9750   42.0430 C.ar      1 I3K        -0.0375
     20 C1          8.4890   16.0810   40.7090 C.ar      1 I3K         0.1304
     21 O5          9.1760   17.0500   40.0640 O.3       1 I3K        -0.2007
     22 C2          8.1610   15.1010   39.7700 C.ar      1 I3K         0.0214
     23 N3          8.6440   15.4810   38.5720 N.2       1 I3K        -0.2949
     24 C4          9.2600   16.6630   38.7640 C.2       1 I3K         0.2945
     25 N25         9.8900   17.4670   37.9010 N.pl3     1 I3K        -0.2164
     26 C26        10.2130   17.1840   36.6450 C.ar      1 I3K         0.0703
     27 C27         9.3340   16.5090   35.8040 C.ar      1 I3K        -0.0371
     28 C28         9.6740   16.2470   34.4840 C.ar      1 I3K        -0.0574
     29 C29        10.9020   16.6740   34.0090 C.ar      1 I3K         0.0281
     30 CL3        11.3250   16.3350   32.3700 Cl        1 I3K        -0.0813
     31 C30        11.7870   17.3630   34.8390 C.ar      1 I3K        -0.0574
     32 C31        11.4430   17.6210   36.1620 C.ar      1 I3K        -0.0371
     33 H1          0.8741    6.7474   43.8391 H         1 I3K         0.0578
     34 H2          1.1928    7.4718   42.2266 H         1 I3K         0.0578
     35 H3          0.5122    8.4823   43.5465 H         1 I3K         0.0578
     36 H4          1.4889    9.7454   41.9616 H         1 I3K         0.0484
     37 H5          6.8321    8.2295   45.5219 H         1 I3K         0.0575
     38 H6          6.4391    9.9585   45.2346 H         1 I3K         0.0575
     39 H7          7.0311    8.9352   43.8821 H         1 I3K         0.0575
     40 H8          6.1172   10.7815   43.3870 H         1 I3K         0.0520
     41 H9          2.5215   13.5825   39.6636 H         1 I3K         0.0771
     42 H10         4.8284   14.2087   40.2934 H         1 I3K         0.0547
     43 H11         7.1875   13.2048   39.5054 H         1 I3K         0.0450
     44 H12         7.0883   14.7744   43.5024 H         1 I3K         0.0479
     45 H13         8.3665   16.7556   42.7483 H         1 I3K         0.0534
     46 H14        10.1514   18.4016   38.2462 H         1 I3K         0.2237
     47 H15         8.3723   16.1839   36.1841 H         1 I3K         0.0538
     48 H16         8.9878   15.7157   33.8345 H         1 I3K         0.0594
     49 H17        12.7431   17.6974   34.4527 H         1 I3K         0.0594
     50 H18        12.1263   18.1572   36.8105 H         1 I3K         0.0538
@<TRIPOS>BOND
     1    1    2 1  
     2    2    3 1  
     3    3    4 ar 
     4    3    5 ar 
     5    4   10 ar 
     6    5    6 1  
     7    5    8 ar 
     8    6    7 1  
     9    8    9 ar 
    10    9   10 ar 
    11    9   14 ar 
    12   10   11 ar 
    13   11   12 ar 
    14   12   13 ar 
    15   13   14 ar 
    16   14   15 1  
    17   15   16 1  
    18   16   17 ar 
    19   16   18 ar 
    20   17   22 ar 
    21   18   19 ar 
    22   19   20 ar 
    23   20   21 1  
    24   20   22 ar 
    25   21   24 1  
    26   22   23 1  
    27   23   24 2  
    28   24   25 1  
    29   25   26 1  
    30   26   27 ar 
    31   26   32 ar 
    32   27   28 ar 
    33   28   29 ar 
    34   29   30 1  
    35   29   31 ar 
    36   31   32 ar 
    37    1   33 1  
    38    1   34 1  
    39    1   35 1  
    40    4   36 1  
    41    7   37 1  
    42    7   38 1  
    43    7   39 1  
    44    8   40 1  
    45   12   41 1  
    46   13   42 1  
    47   17   43 1  
    48   18   44 1  
    49   19   45 1  
    50   25   46 1  
    51   27   47 1  
    52   28   48 1  
    53   31   49 1  
    54   32   50 1  
@<TRIPOS>SUBSTRUCTURE
     1 I3K         1

