### 
### Created by X-TOOL on Mon Sep 10 21:13:10 2018
### 

@<TRIPOS>MOLECULE
4fnz_ligand
   70    73     1     0     0
SMALL
GAST_HUCK


@<TRIPOS>ATOM
      1 C17        18.8820    8.4190   59.4410 C.3       1 NZF         0.0562
      2 O1         19.8870    8.5940   58.4000 O.3       1 NZF        -0.3306
      3 C15        21.1900    8.6590   58.8600 C.ar      1 NZF         0.1026
      4 C16        21.5500    9.6760   59.7590 C.ar      1 NZF        -0.0287
      5 C14        22.1670    7.7300   58.4400 C.ar      1 NZF         0.1351
      6 O2         21.8740    6.7130   57.5720 O.3       1 NZF        -0.3368
      7 C18        22.4030    6.9290   56.2460 C.3       1 NZF         0.0517
      8 C13        23.4650    7.8330   58.9320 C.ar      1 NZF         0.1026
      9 O3         24.4410    6.9690   58.5580 O.3       1 NZF        -0.3306
     10 C19        25.4000    6.8120   59.6110 C.3       1 NZF         0.0562
     11 C12        23.7940    8.8550   59.8100 C.ar      1 NZF        -0.0287
     12 C11        22.8600    9.7860   60.2290 C.ar      1 NZF         0.0377
     13 N4         23.3120   10.7060   61.0950 N.pl3     1 NZF        -0.2549
     14 C10        22.7410   11.8850   61.3970 C.ar      1 NZF         0.1915
     15 N3         21.5780   12.2890   60.8620 N.ar      1 NZF        -0.2390
     16 N2         23.3810   12.6740   62.2870 N.ar      1 NZF        -0.2704
     17 C9         22.8910   13.8460   62.6610 C.ar      1 NZF        -0.0003
     18 C8         21.6870   14.2910   62.1250 C.ar      1 NZF        -0.0061
     19 C7         21.0370   13.4670   61.2070 C.ar      1 NZF         0.1166
     20 N1         19.8180   13.8450   60.6310 N.pl3     1 NZF        -0.2871
     21 C3         19.1340   15.0940   61.0190 C.3       1 NZF         0.0516
     22 C2         19.1270   12.9150   59.6990 C.3       1 NZF         0.0324
     23 C1         17.8070   12.5300   60.3570 C.3       1 NZF        -0.0299
     24 C5         17.0220   13.7900   60.7290 C.3       1 NZF        -0.0294
     25 C4         17.8240   14.7030   61.6850 C.3       1 NZF         0.0693
     26 C6         17.0120   15.9500   62.0920 C.2       1 NZF         0.1829
     27 O4         16.5540   16.7620   61.2830 O.2       1 NZF        -0.3966
     28 N5         16.8590   16.0920   63.3910 N.am      1 NZF        -0.2755
     29 C20        16.1190   17.2340   63.9340 C.3       1 NZF         0.0620
     30 C21        16.4320   17.3950   65.4140 C.ar      1 NZF        -0.0299
     31 C27        15.4130   17.4780   66.3600 C.ar      1 NZF        -0.0300
     32 C22        17.7580   17.4650   65.8000 C.ar      1 NZF        -0.0695
     33 C23        18.0740   17.6130   67.1420 C.ar      1 NZF        -0.0771
     34 C24        17.0780   17.6980   68.1000 C.ar      1 NZF        -0.0398
     35 C25        15.7510   17.6180   67.7060 C.ar      1 NZF         0.0939
     36 O5         14.7880   17.7290   68.6510 O.3       1 NZF        -0.2274
     37 C26        14.3600   16.5470   69.2690 C.3       1 NZF         0.5463
     38 F2         15.3540   16.0370   69.9990 F         1 NZF        -0.1400
     39 F3         13.3760   16.9560   70.0720 F         1 NZF        -0.1400
     40 F1         13.9040   15.6540   68.3540 F         1 NZF        -0.1400
     41 H1         17.8828    8.3786   58.9829 H         1 NZF         0.0572
     42 H2         18.9297    9.2648   60.1426 H         1 NZF         0.0572
     43 H3         19.0750    7.4815   59.9831 H         1 NZF         0.0572
     44 H4         20.8008   10.3850   60.0924 H         1 NZF         0.0346
     45 H5         22.1336    6.0797   55.6010 H         1 NZF         0.0564
     46 H6         23.4982    7.0170   56.2980 H         1 NZF         0.0564
     47 H7         21.9801    7.8548   55.8288 H         1 NZF         0.0564
     48 H8         26.1835    6.1091   59.2916 H         1 NZF         0.0572
     49 H9         24.8987    6.4194   60.5080 H         1 NZF         0.0572
     50 H10        25.8541    7.7869   59.8418 H         1 NZF         0.0572
     51 H11        24.8111    8.9264   60.1782 H         1 NZF         0.0346
     52 H12        24.1925   10.4847   61.5814 H         1 NZF         0.2147
     53 H13        23.4253   14.4553   63.3810 H         1 NZF         0.0846
     54 H14        21.2672   15.2483   62.4120 H         1 NZF         0.0570
     55 H15        18.9350   15.7070   60.1276 H         1 NZF         0.0553
     56 H16        19.7592   15.6628   61.7230 H         1 NZF         0.0553
     57 H17        19.7427   12.0187   59.5331 H         1 NZF         0.0525
     58 H18        18.9389   13.4139   58.7369 H         1 NZF         0.0525
     59 H19        18.0099   11.9452   61.2663 H         1 NZF         0.0287
     60 H20        17.2134   11.9244   59.6564 H         1 NZF         0.0287
     61 H21        16.0848   13.4932   61.2224 H         1 NZF         0.0294
     62 H22        16.7916   14.3504   59.8109 H         1 NZF         0.0294
     63 H23        18.0532   14.1338   62.5979 H         1 NZF         0.0558
     64 H24        17.2512   15.4145   64.0132 H         1 NZF         0.1878
     65 H25        15.0398   17.0642   63.8055 H         1 NZF         0.0682
     66 H26        16.4129   18.1480   63.3972 H         1 NZF         0.0682
     67 H27        14.3737   17.4345   66.0550 H         1 NZF         0.0479
     68 H28        18.5458   17.4045   65.0578 H         1 NZF         0.0465
     69 H29        19.1137   17.6628   67.4448 H         1 NZF         0.0572
     70 H30        17.3327   17.8256   69.1459 H         1 NZF         0.0486
@<TRIPOS>BOND
     1    1    2 1  
     2    2    3 1  
     3    3    4 ar 
     4    3    5 ar 
     5    4   12 ar 
     6    5    6 1  
     7    5    8 ar 
     8    6    7 1  
     9    8    9 1  
    10    8   11 ar 
    11    9   10 1  
    12   11   12 ar 
    13   12   13 1  
    14   13   14 1  
    15   14   15 ar 
    16   14   16 ar 
    17   15   19 ar 
    18   16   17 ar 
    19   17   18 ar 
    20   18   19 ar 
    21   19   20 1  
    22   20   21 1  
    23   20   22 1  
    24   21   25 1  
    25   22   23 1  
    26   23   24 1  
    27   24   25 1  
    28   25   26 1  
    29   26   27 2  
    30   26   28 am 
    31   28   29 1  
    32   29   30 1  
    33   30   31 ar 
    34   30   32 ar 
    35   31   35 ar 
    36   32   33 ar 
    37   33   34 ar 
    38   34   35 ar 
    39   35   36 1  
    40   36   37 1  
    41   37   38 1  
    42   37   39 1  
    43   37   40 1  
    44    1   41 1  
    45    1   42 1  
    46    1   43 1  
    47    4   44 1  
    48    7   45 1  
    49    7   46 1  
    50    7   47 1  
    51   10   48 1  
    52   10   49 1  
    53   10   50 1  
    54   11   51 1  
    55   13   52 1  
    56   17   53 1  
    57   18   54 1  
    58   21   55 1  
    59   21   56 1  
    60   22   57 1  
    61   22   58 1  
    62   23   59 1  
    63   23   60 1  
    64   24   61 1  
    65   24   62 1  
    66   25   63 1  
    67   28   64 1  
    68   29   65 1  
    69   29   66 1  
    70   31   67 1  
    71   32   68 1  
    72   33   69 1  
    73   34   70 1  
@<TRIPOS>SUBSTRUCTURE
     1 NZF         1

