### 
### Created by X-TOOL on Mon Sep 10 21:13:10 2018
### 

@<TRIPOS>MOLECULE
4fob_ligand
   80    84     1     0     0
SMALL
GAST_HUCK


@<TRIPOS>ATOM
      1 C16        16.7440   10.9660   11.0970 C.2       1 0US        -0.1160
      2 C15        16.4190   11.7600   10.0690 C.2       1 0US        -0.0710
      3 C21        17.4530   12.5970    9.3750 C.3       1 0US         0.0546
      4 N5         17.3770   13.9640    9.8630 N.am      1 0US        -0.2353
      5 S1         18.4450   14.9760    9.1370 S.o2      1 0US         0.0712
      6 O1         18.1200   16.3710    9.5860 O.2       1 0US        -0.1501
      7 O2         18.3860   14.8520    7.6490 O.2       1 0US        -0.1501
      8 C5         20.0350   14.5410    9.7140 C.ar      1 0US         0.1138
      9 C7         20.7470   13.4970    9.1200 C.ar      1 0US        -0.0146
     10 C22        20.5880   15.2480   10.7710 C.ar      1 0US        -0.0308
     11 C26        21.8560   14.9310   11.2340 C.ar      1 0US        -0.0543
     12 C23        22.5730   13.9010   10.6590 C.ar      1 0US        -0.0412
     13 C6         22.0280   13.1890    9.5950 C.ar      1 0US         0.0598
     14 C4         22.8420   12.0440    9.0060 C.2       1 0US         0.2436
     15 O3         24.0130   11.8750    9.3630 O.2       1 0US        -0.3686
     16 N3         22.1550   11.2410    8.1850 N.am      1 0US        -0.1837
     17 C1         22.6680   10.1210    7.6460 C.2       1 0US         0.2417
     18 N1         23.9100    9.6700    7.8250 N.2       1 0US        -0.3164
     19 C2         24.0360    8.5200    7.1590 C.ar      1 0US         0.0019
     20 C10        25.0980    7.6340    7.0000 C.ar      1 0US        -0.0648
     21 C11        24.9240    6.4820    6.2200 C.ar      1 0US        -0.0183
     22 C12        26.0960    5.5000    6.0130 C.3       1 0US        -0.0048
     23 N4         25.7370    4.1050    6.3210 N.4       1 0US         0.2457
     24 C24        26.9100    3.2920    5.9120 C.3       1 0US        -0.0307
     25 C29        26.8000    1.8200    6.3560 C.3       1 0US        -0.0123
     26 C30        26.5430    1.6990    7.8640 C.3       1 0US        -0.0434
     27 C28        25.3070    2.5170    8.2310 C.3       1 0US        -0.0123
     28 C25        25.4560    3.9840    7.7690 C.3       1 0US        -0.0307
     29 C17        23.7010    6.2330    5.6090 C.ar      1 0US        -0.0718
     30 C9         22.6410    7.1110    5.7660 C.ar      1 0US        -0.0504
     31 C3         22.8230    8.2580    6.5420 C.ar      1 0US         0.0706
     32 N2         22.0160    9.2580    6.8670 N.pl3     1 0US        -0.2143
     33 C8         20.6280    9.3050    6.3950 C.3       1 0US         0.0669
     34 C14        19.5900    9.2390    7.5220 C.3       1 0US        -0.0238
     35 C19        18.2360    8.9570    6.8650 C.3       1 0US        -0.0455
     36 C13        20.3670   10.5060    5.5260 C.3       1 0US        -0.0238
     37 C18        19.0370   10.2870    4.8070 C.3       1 0US        -0.0455
     38 C20        17.8760    9.9600    5.7530 C.3       1 0US        -0.0176
     39 C27        17.3400   11.2520    6.3860 C.3       1 0US         0.0470
     40 O4         17.0430   12.2250    5.3670 O.3       1 0US        -0.3947
     41 H1         15.9772   10.3670   11.5860 H         1 0US         0.0290
     42 H2         17.7752   10.9192   11.4441 H         1 0US         0.0290
     43 H3         15.3848   11.7990    9.7302 H         1 0US         0.0688
     44 H4         17.2680   12.5840    8.2908 H         1 0US         0.0655
     45 H5         18.4536   12.1892    9.5812 H         1 0US         0.0655
     46 H6         16.7364   14.2589   10.5720 H         1 0US         0.1704
     47 H7         20.3140   12.9325    8.3021 H         1 0US         0.0689
     48 H8         20.0275   16.0506   11.2366 H         1 0US         0.0672
     49 H9         22.2870   15.4957   12.0528 H         1 0US         0.0630
     50 H10        23.5576   13.6477   11.0352 H         1 0US         0.0670
     51 H11        21.2118   11.4864    7.9609 H         1 0US         0.2399
     52 H12        26.0516    7.8332    7.4754 H         1 0US         0.0440
     53 H13        26.9263    5.8015    6.6685 H         1 0US         0.0958
     54 H14        26.4190    5.5555    4.9630 H         1 0US         0.0958
     55 H15        24.9224    3.8240    5.7981 H         1 0US         0.2046
     56 H16        27.8141    3.7282    6.3618 H         1 0US         0.0814
     57 H17        26.9943    3.3231    4.8157 H         1 0US         0.0814
     58 H18        27.7398    1.3030    6.1121 H         1 0US         0.0317
     59 H19        25.9690    1.3453    5.8137 H         1 0US         0.0317
     60 H20        27.4139    2.0804    8.4172 H         1 0US         0.0269
     61 H21        26.3762    0.6435    8.1251 H         1 0US         0.0269
     62 H22        25.1727    2.4957    9.3225 H         1 0US         0.0317
     63 H23        24.4253    2.0745    7.7443 H         1 0US         0.0317
     64 H24        24.5208    4.5188    7.9912 H         1 0US         0.0814
     65 H25        26.2839    4.4456    8.3272 H         1 0US         0.0814
     66 H26        23.5751    5.3428    5.0034 H         1 0US         0.0461
     67 H27        21.6857    6.9111    5.2942 H         1 0US         0.0517
     68 H28        20.4797    8.4118    5.7703 H         1 0US         0.0629
     69 H29        19.5562   10.1970    8.0615 H         1 0US         0.0293
     70 H30        19.8450    8.4315    8.2241 H         1 0US         0.0293
     71 H31        17.4564    9.0006    7.6398 H         1 0US         0.0270
     72 H32        18.2634    7.9476    6.4288 H         1 0US         0.0270
     73 H33        21.1761   10.6167    4.7891 H         1 0US         0.0293
     74 H34        20.3107   11.4117    6.1477 H         1 0US         0.0293
     75 H35        19.1564    9.4519    4.1011 H         1 0US         0.0270
     76 H36        18.7863   11.2032    4.2522 H         1 0US         0.0270
     77 H37        17.0741    9.5112    5.1485 H         1 0US         0.0323
     78 H38        18.0982   11.6626    7.0690 H         1 0US         0.0560
     79 H39        16.4228   11.0260    6.9495 H         1 0US         0.0560
     80 H40        16.7129   13.0174    5.7740 H         1 0US         0.2094
@<TRIPOS>BOND
     1    1    2 2  
     2    2    3 1  
     3    3    4 1  
     4    4    5 am 
     5    5    6 2  
     6    5    7 2  
     7    5    8 1  
     8    8    9 ar 
     9    8   10 ar 
    10    9   13 ar 
    11   10   11 ar 
    12   11   12 ar 
    13   12   13 ar 
    14   13   14 1  
    15   14   15 2  
    16   14   16 am 
    17   16   17 1  
    18   17   18 2  
    19   17   32 1  
    20   18   19 1  
    21   19   20 ar 
    22   19   31 ar 
    23   20   21 ar 
    24   21   22 1  
    25   21   29 ar 
    26   22   23 1  
    27   23   24 1  
    28   23   28 1  
    29   24   25 1  
    30   25   26 1  
    31   26   27 1  
    32   27   28 1  
    33   29   30 ar 
    34   30   31 ar 
    35   31   32 1  
    36   32   33 1  
    37   33   34 1  
    38   33   36 1  
    39   34   35 1  
    40   35   38 1  
    41   36   37 1  
    42   37   38 1  
    43   38   39 1  
    44   39   40 1  
    45    1   41 1  
    46    1   42 1  
    47    2   43 1  
    48    3   44 1  
    49    3   45 1  
    50    4   46 1  
    51    9   47 1  
    52   10   48 1  
    53   11   49 1  
    54   12   50 1  
    55   16   51 1  
    56   20   52 1  
    57   22   53 1  
    58   22   54 1  
    59   23   55 1  
    60   24   56 1  
    61   24   57 1  
    62   25   58 1  
    63   25   59 1  
    64   26   60 1  
    65   26   61 1  
    66   27   62 1  
    67   27   63 1  
    68   28   64 1  
    69   28   65 1  
    70   29   66 1  
    71   30   67 1  
    72   33   68 1  
    73   34   69 1  
    74   34   70 1  
    75   35   71 1  
    76   35   72 1  
    77   36   73 1  
    78   36   74 1  
    79   37   75 1  
    80   37   76 1  
    81   38   77 1  
    82   39   78 1  
    83   39   79 1  
    84   40   80 1  
@<TRIPOS>SUBSTRUCTURE
     1 0US         1

