### 
### Created by X-TOOL on Mon Sep 10 21:13:10 2018
### 

@<TRIPOS>MOLECULE
4foc_ligand
   70    74     1     0     0
SMALL
GAST_HUCK


@<TRIPOS>ATOM
      1 C28        16.8190   12.0180    9.6340 C.3       1 0UU         0.0658
      2 O2         17.2510   10.9690    8.7260 O.3       1 0UU        -0.2800
      3 C27        17.6060   11.3970    7.4700 C.2       1 0UU         0.2366
      4 O3         17.7600   12.5930    7.2240 O.2       1 0UU        -0.3701
      5 C15        17.8310   10.3520    6.3690 C.3       1 0UU         0.0602
      6 C16        18.3630    9.0650    7.0150 C.3       1 0UU        -0.0293
      7 C17        19.7980    9.2080    7.5170 C.3       1 0UU        -0.0216
      8 C14        18.8310   10.8690    5.3210 C.3       1 0UU        -0.0293
      9 C13        20.2490   11.0010    5.8700 C.3       1 0UU        -0.0216
     10 C12        20.7310    9.6470    6.3830 C.3       1 0UU         0.0677
     11 N2         22.1010    9.6300    6.9200 N.pl3     1 0UU        -0.2135
     12 C3         22.9680    8.6500    6.6480 C.ar      1 0UU         0.0702
     13 C5         22.8950    7.4980    5.8480 C.ar      1 0UU        -0.0395
     14 C6         24.0050    6.6560    5.7520 C.ar      1 0UU        -0.0156
     15 C18        23.9400    5.3820    4.8780 C.3       1 0UU        -0.0045
     16 N3         24.6400    5.5450    3.5930 N.4       1 0UU         0.2458
     17 C7         24.0380    6.5960    2.7660 C.3       1 0UU        -0.0306
     18 C8         24.9460    6.8330    1.5480 C.3       1 0UU        -0.0123
     19 C9         25.1460    5.5440    0.7330 C.3       1 0UU        -0.0434
     20 C10        25.4420    4.3240    1.6140 C.3       1 0UU        -0.0123
     21 C11        24.5250    4.2770    2.8440 C.3       1 0UU        -0.0306
     22 C4         25.1620    6.9600    6.4590 C.ar      1 0UU        -0.0737
     23 C2         25.2240    8.0980    7.2730 C.ar      1 0UU        -0.0750
     24 C1         24.1240    8.9480    7.3530 C.ar      1 0UU         0.0028
     25 N1         23.9200   10.0900    8.0330 N.2       1 0UU        -0.3184
     26 C19        22.6820   10.4940    7.7570 C.2       1 0UU         0.2407
     27 N4         22.1060   11.5800    8.2920 N.am      1 0UU        -0.1846
     28 C20        22.7520   12.3760    9.1550 C.2       1 0UU         0.2431
     29 O1         23.9220   12.2560    9.5220 O.2       1 0UU        -0.3688
     30 C21        21.8790   13.4670    9.7910 C.ar      1 0UU         0.0578
     31 C22        20.5450   13.6390    9.4170 C.ar      1 0UU        -0.0413
     32 C23        19.7510   14.6380   10.0050 C.ar      1 0UU        -0.0562
     33 C24        20.3180   15.4340   11.0000 C.ar      1 0UU        -0.0575
     34 C25        21.6460   15.2380   11.3840 C.ar      1 0UU        -0.0562
     35 C26        22.4290   14.2660   10.7920 C.ar      1 0UU        -0.0413
     36 H1         16.5582   11.5762   10.6070 H         1 0UU         0.0577
     37 H2         15.9385   12.5265    9.2144 H         1 0UU         0.0577
     38 H3         17.6333   12.7453    9.7680 H         1 0UU         0.0577
     39 H4         16.8730   10.1399    5.8719 H         1 0UU         0.0554
     40 H5         18.3298    8.2571    6.2693 H         1 0UU         0.0294
     41 H6         17.7166    8.8051    7.8662 H         1 0UU         0.0294
     42 H7         20.1403    8.2397    7.9109 H         1 0UU         0.0295
     43 H8         19.8262    9.9607    8.3187 H         1 0UU         0.0295
     44 H9         18.4957   11.8571    4.9729 H         1 0UU         0.0294
     45 H10        18.8462   10.1675    4.4738 H         1 0UU         0.0294
     46 H11        20.2551   11.7278    6.6956 H         1 0UU         0.0295
     47 H12        20.9196   11.3487    5.0704 H         1 0UU         0.0295
     48 H13        20.6750    8.9264    5.5538 H         1 0UU         0.0630
     49 H14        21.9840    7.2642    5.3091 H         1 0UU         0.0462
     50 H15        22.8847    5.1449    4.6775 H         1 0UU         0.0960
     51 H16        24.4041    4.5513    5.4298 H         1 0UU         0.0960
     52 H17        25.6087    5.7643    3.7649 H         1 0UU         0.2046
     53 H18        23.9499    7.5239    3.3501 H         1 0UU         0.0814
     54 H19        23.0401    6.2784    2.4295 H         1 0UU         0.0814
     55 H20        25.9260    7.1904    1.8972 H         1 0UU         0.0317
     56 H21        24.4861    7.5958    0.9026 H         1 0UU         0.0317
     57 H22        25.9895    5.6919    0.0426 H         1 0UU         0.0269
     58 H23        24.2303    5.3471    0.1562 H         1 0UU         0.0269
     59 H24        26.4880    4.3726    1.9508 H         1 0UU         0.0317
     60 H25        25.2899    3.4103    1.0207 H         1 0UU         0.0317
     61 H26        23.4835    4.1360    2.5195 H         1 0UU         0.0814
     62 H27        24.8237    3.4399    3.4921 H         1 0UU         0.0814
     63 H28        26.0256    6.3096    6.3797 H         1 0UU         0.0460
     64 H29        26.1233    8.3159    7.8376 H         1 0UU         0.0500
     65 H30        21.1646   11.8031    8.0391 H         1 0UU         0.2393
     66 H31        20.1151   12.9917    8.6612 H         1 0UU         0.0669
     67 H32        18.7235   14.7863    9.6931 H         1 0UU         0.0629
     68 H33        19.7260   16.2070   11.4765 H         1 0UU         0.0653
     69 H34        22.0712   15.8612   12.1624 H         1 0UU         0.0629
     70 H35        23.4583   14.1264   11.1021 H         1 0UU         0.0669
@<TRIPOS>BOND
     1    1    2 1  
     2    2    3 1  
     3    3    4 2  
     4    3    5 1  
     5    5    6 1  
     6    5    8 1  
     7    6    7 1  
     8    7   10 1  
     9    8    9 1  
    10    9   10 1  
    11   10   11 1  
    12   11   12 1  
    13   11   26 1  
    14   12   13 ar 
    15   12   24 ar 
    16   13   14 ar 
    17   14   15 1  
    18   14   22 ar 
    19   15   16 1  
    20   16   17 1  
    21   16   21 1  
    22   17   18 1  
    23   18   19 1  
    24   19   20 1  
    25   20   21 1  
    26   22   23 ar 
    27   23   24 ar 
    28   24   25 1  
    29   25   26 2  
    30   26   27 1  
    31   27   28 am 
    32   28   29 2  
    33   28   30 1  
    34   30   31 ar 
    35   30   35 ar 
    36   31   32 ar 
    37   32   33 ar 
    38   33   34 ar 
    39   34   35 ar 
    40    1   36 1  
    41    1   37 1  
    42    1   38 1  
    43    5   39 1  
    44    6   40 1  
    45    6   41 1  
    46    7   42 1  
    47    7   43 1  
    48    8   44 1  
    49    8   45 1  
    50    9   46 1  
    51    9   47 1  
    52   10   48 1  
    53   13   49 1  
    54   15   50 1  
    55   15   51 1  
    56   16   52 1  
    57   17   53 1  
    58   17   54 1  
    59   18   55 1  
    60   18   56 1  
    61   19   57 1  
    62   19   58 1  
    63   20   59 1  
    64   20   60 1  
    65   21   61 1  
    66   21   62 1  
    67   22   63 1  
    68   23   64 1  
    69   27   65 1  
    70   31   66 1  
    71   32   67 1  
    72   33   68 1  
    73   34   69 1  
    74   35   70 1  
@<TRIPOS>SUBSTRUCTURE
     1 0UU         1

