### 
### Created by X-TOOL on Mon Sep 10 21:13:09 2018
### 

@<TRIPOS>MOLECULE
4fod_ligand
   87    91     1     0     0
SMALL
GAST_HUCK


@<TRIPOS>ATOM
      1 C24        14.6190   11.9760    9.0930 C.3       1 0UV        -0.0423
      2 C23        16.1270   11.8150    9.3280 C.3       1 0UV         0.0364
      3 C25        16.4060   11.3540   10.7510 C.3       1 0UV        -0.0423
      4 N5         16.6650   10.8250    8.3620 N.am      1 0UV        -0.2842
      5 C22        17.5280   11.1660    7.4000 C.2       1 0UV         0.1793
      6 O2         17.9350   12.3100    7.2210 O.2       1 0UV        -0.3968
      7 C19        17.9770   10.0200    6.4760 C.3       1 0UV         0.0488
      8 C20        19.0060   10.5160    5.4330 C.3       1 0UV        -0.0306
      9 C21        20.4390   10.6480    5.9780 C.3       1 0UV        -0.0217
     10 C18        18.5120    8.8580    7.3200 C.3       1 0UV        -0.0306
     11 C17        19.9360    9.1120    7.8310 C.3       1 0UV        -0.0217
     12 C16        20.8910    9.3650    6.6600 C.3       1 0UV         0.0677
     13 N1         22.2830    9.4600    7.1760 N.pl3     1 0UV        -0.2135
     14 C4         23.2470    8.5550    6.9690 C.ar      1 0UV         0.0702
     15 C3         23.3000    7.3460    6.2640 C.ar      1 0UV        -0.0395
     16 C2         24.4800    6.6020    6.2280 C.ar      1 0UV        -0.0156
     17 C15        24.5480    5.2730    5.4500 C.3       1 0UV        -0.0045
     18 N4         24.4330    4.1140    6.3520 N.4       1 0UV         0.2459
     19 C30        25.4840    4.1440    7.3870 C.3       1 0UV        -0.0303
     20 C29        25.3250    2.9490    8.3330 C.3       1 0UV        -0.0069
     21 C26        24.5460    2.8760    5.5510 C.3       1 0UV        -0.0303
     22 C27        24.4130    1.6290    6.4330 C.3       1 0UV        -0.0069
     23 C28        25.4480    1.6410    7.5540 C.3       1 0UV        -0.0031
     24 C31        25.3060    0.4140    8.4560 C.3       1 0UV         0.0637
     25 C32        23.9010    0.3630    9.0590 C.3       1 0UV        -0.0361
     26 C33        26.3400    0.4670    9.5700 C.3       1 0UV        -0.0361
     27 O3         25.5440   -0.7500    7.6370 O.3       1 0UV        -0.3888
     28 C1         25.6080    7.0740    6.8950 C.ar      1 0UV        -0.0737
     29 C6         25.5500    8.2800    7.5920 C.ar      1 0UV        -0.0750
     30 C5         24.3720    9.0220    7.6370 C.ar      1 0UV         0.0028
     31 N2         24.0540   10.1890    8.2260 N.2       1 0UV        -0.3184
     32 C7         22.7810   10.4460    7.9250 C.2       1 0UV         0.2406
     33 N3         22.1000   11.5010    8.3620 N.am      1 0UV        -0.1852
     34 C8         22.6930   12.3480    9.2130 C.2       1 0UV         0.2401
     35 O1         23.8690   12.2670    9.5720 O.2       1 0UV        -0.3708
     36 C9         21.7920   13.4450    9.7610 C.ar      1 0UV         0.0537
     37 C10        20.4870   13.5880    9.2990 C.ar      1 0UV        -0.0431
     38 C11        19.6770   14.5830    9.8330 C.ar      1 0UV        -0.0223
     39 C12        20.1670   15.4150   10.8300 C.ar      1 0UV         0.1376
     40 F1         19.3870   16.3740   11.3570 F         1 0UV        -0.1794
     41 C13        21.4630   15.2630   11.2980 C.ar      1 0UV        -0.0223
     42 C14        22.2730   14.2700   10.7710 C.ar      1 0UV        -0.0431
     43 H1         14.2130   12.7088    9.8059 H         1 0UV         0.0252
     44 H2         14.1196   11.0069    9.2391 H         1 0UV         0.0252
     45 H3         14.4435   12.3278    8.0657 H         1 0UV         0.0252
     46 H4         16.6207   12.7844    9.1652 H         1 0UV         0.0550
     47 H5         17.4911   11.2459   10.8953 H         1 0UV         0.0252
     48 H6         15.9147   10.3855   10.9257 H         1 0UV         0.0252
     49 H7         16.0140   12.0973   11.4608 H         1 0UV         0.0252
     50 H8         16.3722    9.8715    8.4332 H         1 0UV         0.1854
     51 H9         17.0954    9.6589    5.9261 H         1 0UV         0.0538
     52 H10        18.6821   11.5027    5.0703 H         1 0UV         0.0293
     53 H11        19.0194    9.8035    4.5950 H         1 0UV         0.0293
     54 H12        20.4710   11.4715    6.7065 H         1 0UV         0.0295
     55 H13        21.1208   10.8697    5.1437 H         1 0UV         0.0295
     56 H14        18.5153    7.9466    6.7042 H         1 0UV         0.0293
     57 H15        17.8472    8.7141    8.1845 H         1 0UV         0.0293
     58 H16        20.2802    8.2325    8.3948 H         1 0UV         0.0295
     59 H17        19.9319    9.9920    8.4909 H         1 0UV         0.0295
     60 H18        20.8330    8.5328    5.9430 H         1 0UV         0.0630
     61 H19        22.4197    6.9863    5.7436 H         1 0UV         0.0462
     62 H20        25.5096    5.2185    4.9186 H         1 0UV         0.0960
     63 H21        23.7242    5.2424    4.7217 H         1 0UV         0.0960
     64 H22        23.5320    4.1365    6.8034 H         1 0UV         0.2046
     65 H23        25.4011    5.0775    7.9629 H         1 0UV         0.0815
     66 H24        26.4714    4.0972    6.9045 H         1 0UV         0.0815
     67 H25        24.3364    2.9945    8.8132 H         1 0UV         0.0320
     68 H26        26.1091    2.9884    9.1034 H         1 0UV         0.0320
     69 H27        25.5265    2.8597    5.0526 H         1 0UV         0.0815
     70 H28        23.7491    2.8655    4.7929 H         1 0UV         0.0815
     71 H29        24.5634    0.7324    5.8138 H         1 0UV         0.0320
     72 H30        23.4054    1.6055    6.8736 H         1 0UV         0.0320
     73 H31        26.4492    1.6068    7.0996 H         1 0UV         0.0332
     74 H32        23.8112   -0.5228    9.7050 H         1 0UV         0.0257
     75 H33        23.1570    0.3043    8.2509 H         1 0UV         0.0257
     76 H34        23.7245    1.2707    9.6548 H         1 0UV         0.0257
     77 H35        27.3486    0.5036    9.1326 H         1 0UV         0.0257
     78 H36        26.2461   -0.4295   10.2005 H         1 0UV         0.0257
     79 H37        26.1733    1.3653   10.1826 H         1 0UV         0.0257
     80 H38        24.9056   -0.7771    6.9339 H         1 0UV         0.2101
     81 H39        26.5299    6.5043    6.8722 H         1 0UV         0.0460
     82 H40        26.4324    8.6447    8.1052 H         1 0UV         0.0499
     83 H41        21.1600   11.6595    8.0600 H         1 0UV         0.2392
     84 H42        20.1052   12.9282    8.5283 H         1 0UV         0.0660
     85 H43        18.6630   14.7092    9.4711 H         1 0UV         0.0616
     86 H44        21.8415   15.9188   12.0737 H         1 0UV         0.0616
     87 H45        23.2812   14.1366   11.1462 H         1 0UV         0.0660
@<TRIPOS>BOND
     1    1    2 1  
     2    2    3 1  
     3    2    4 1  
     4    4    5 am 
     5    5    6 2  
     6    5    7 1  
     7    7    8 1  
     8    7   10 1  
     9    8    9 1  
    10    9   12 1  
    11   10   11 1  
    12   11   12 1  
    13   12   13 1  
    14   13   14 1  
    15   13   32 1  
    16   14   15 ar 
    17   14   30 ar 
    18   15   16 ar 
    19   16   17 1  
    20   16   28 ar 
    21   17   18 1  
    22   18   19 1  
    23   18   21 1  
    24   19   20 1  
    25   20   23 1  
    26   21   22 1  
    27   22   23 1  
    28   23   24 1  
    29   24   25 1  
    30   24   26 1  
    31   24   27 1  
    32   28   29 ar 
    33   29   30 ar 
    34   30   31 1  
    35   31   32 2  
    36   32   33 1  
    37   33   34 am 
    38   34   35 2  
    39   34   36 1  
    40   36   37 ar 
    41   36   42 ar 
    42   37   38 ar 
    43   38   39 ar 
    44   39   40 1  
    45   39   41 ar 
    46   41   42 ar 
    47    1   43 1  
    48    1   44 1  
    49    1   45 1  
    50    2   46 1  
    51    3   47 1  
    52    3   48 1  
    53    3   49 1  
    54    4   50 1  
    55    7   51 1  
    56    8   52 1  
    57    8   53 1  
    58    9   54 1  
    59    9   55 1  
    60   10   56 1  
    61   10   57 1  
    62   11   58 1  
    63   11   59 1  
    64   12   60 1  
    65   15   61 1  
    66   17   62 1  
    67   17   63 1  
    68   18   64 1  
    69   19   65 1  
    70   19   66 1  
    71   20   67 1  
    72   20   68 1  
    73   21   69 1  
    74   21   70 1  
    75   22   71 1  
    76   22   72 1  
    77   23   73 1  
    78   25   74 1  
    79   25   75 1  
    80   25   76 1  
    81   26   77 1  
    82   26   78 1  
    83   26   79 1  
    84   27   80 1  
    85   28   81 1  
    86   29   82 1  
    87   33   83 1  
    88   37   84 1  
    89   38   85 1  
    90   41   86 1  
    91   42   87 1  
@<TRIPOS>SUBSTRUCTURE
     1 0UV         1

