### 
### Created by X-TOOL on Mon Sep 10 21:13:13 2018
### 

@<TRIPOS>MOLECULE
4fp1_ligand
   14    13     1     0     0
SMALL
GAST_HUCK


@<TRIPOS>ATOM
      1 O01       -22.6890  -23.2120  -24.6290 O.3       1 BFM        -0.3709
      2 C02       -22.9370  -22.8240  -23.2760 C.3       1 BFM         0.3005
      3 C03       -21.7450  -22.0510  -22.6290 C.2       1 BFM         0.0940
      4 O04       -22.0530  -21.1940  -21.7870 O.co2     1 BFM        -0.5445
      5 O05       -20.7020  -22.4240  -23.0850 O.co2     1 BFM        -0.5445
      6 C06       -24.0850  -21.9620  -23.3410 C.3       1 BFM         0.4314
      7 F07       -24.5850  -21.6890  -22.0900 F         1 BFM        -0.1678
      8 F08       -25.0780  -22.5340  -24.0690 F         1 BFM        -0.1678
      9 F09       -23.7200  -20.8190  -23.8960 F         1 BFM        -0.1678
     10 C10       -23.4870  -23.9780  -22.3390 C.3       1 BFM         0.4314
     11 F11       -23.3790  -25.1590  -22.8330 F         1 BFM        -0.1678
     12 F12       -24.7940  -23.9420  -22.0640 F         1 BFM        -0.1678
     13 F13       -22.8860  -23.9180  -21.1630 F         1 BFM        -0.1678
     14 H1        -21.9278  -23.7796  -24.6601 H         1 BFM         0.2095
@<TRIPOS>BOND
     1    1    2 1  
     2    2    3 1  
     3    2    6 1  
     4    2   10 1  
     5    3    4 ar 
     6    3    5 ar 
     7    6    7 1  
     8    6    8 1  
     9    6    9 1  
    10   10   11 1  
    11   10   12 1  
    12   10   13 1  
    13    1   14 1  
@<TRIPOS>SUBSTRUCTURE
     1 BFM         1

