### 
### Created by X-TOOL on Mon Sep 10 21:13:09 2018
### 

@<TRIPOS>MOLECULE
4fpf_ligand
   27    27     1     0     0
SMALL
GAST_HUCK


@<TRIPOS>ATOM
      1 CAE        -7.2120   -8.0560  -39.9300 C.ar      1 JKK        -0.0679
      2 CAF        -6.4430   -7.3280  -40.8120 C.ar      1 JKK        -0.0548
      3 CAG        -7.1700   -7.7390  -38.5440 C.ar      1 JKK        -0.0552
      4 CAH        -5.6290   -6.0220  -39.0290 C.ar      1 JKK        -0.0414
      5 CAI        -4.7930   -6.0900  -34.8030 C.3       1 JKK        -0.0155
      6 CAJ        -3.4860   -6.5060  -34.1100 C.3       1 JKK         0.0706
      7 CAK        -6.3190   -6.3720  -36.6020 C.3       1 JKK         0.0002
      8 CAM        -5.6630   -6.3310  -40.3900 C.ar      1 JKK         0.0339
      9 CAN        -6.4070   -6.7490  -38.1360 C.ar      1 JKK         0.0018
     10 NAL        -5.0980   -6.8220  -35.9800 N.4       1 JKK         0.2401
     11 OAA        -2.5600   -4.1200  -33.5440 O.co2     1 JKK        -0.4844
     12 OAB        -3.8380   -5.1750  -31.8130 O.co2     1 JKK        -0.4844
     13 OAC        -1.6220   -5.9640  -32.3010 O.co2     1 JKK        -0.4844
     14 SAO        -2.8460   -5.3870  -32.8840 S.o2      1 JKK        -0.1866
     15 CL         -4.6950   -5.4100  -41.4650 Cl        1 JKK        -0.0725
     16 H1         -7.8422   -8.8617  -40.2887 H         1 JKK         0.0599
     17 H2         -6.4723   -7.5698  -41.8683 H         1 JKK         0.0565
     18 H3         -7.7596   -8.3065  -37.8331 H         1 JKK         0.0560
     19 H4         -4.9976   -5.2174  -38.6698 H         1 JKK         0.0564
     20 H5         -4.7152   -5.0261  -35.0715 H         1 JKK         0.0829
     21 H6         -5.6186   -6.2287  -34.0895 H         1 JKK         0.0829
     22 H7         -2.7178   -6.6235  -34.8885 H         1 JKK         0.0521
     23 H8         -3.6617   -7.4745  -33.6190 H         1 JKK         0.0521
     24 H9         -7.1695   -6.8329  -36.0784 H         1 JKK         0.0979
     25 H10        -6.3786   -5.2778  -36.5060 H         1 JKK         0.0979
     26 H11        -5.1962   -7.7961  -35.7399 H         1 JKK         0.2028
     27 H12        -4.3404   -6.7122  -36.6357 H         1 JKK         0.2028
@<TRIPOS>BOND
     1    1    2 ar 
     2    3    1 ar 
     3    8    2 ar 
     4    9    3 ar 
     5    4    8 ar 
     6    9    4 ar 
     7    5    6 1  
     8   10    5 1  
     9    6   14 1  
    10    7    9 1  
    11    7   10 1  
    12    8   15 1  
    13   14   11 ar 
    14   14   12 ar 
    15   14   13 ar 
    16    1   16 1  
    17    2   17 1  
    18    3   18 1  
    19    4   19 1  
    20    5   20 1  
    21    5   21 1  
    22    6   22 1  
    23    6   23 1  
    24    7   24 1  
    25    7   25 1  
    26   10   26 1  
    27   10   27 1  
@<TRIPOS>SUBSTRUCTURE
     1 JKK         1

