### 
### Created by X-TOOL on Mon Sep 10 21:13:09 2018
### 

@<TRIPOS>MOLECULE
4fpk_ligand
   30    30     1     0     0
SMALL
GAST_HUCK


@<TRIPOS>ATOM
      1 CAA        -4.8770   -5.6860  -41.3260 C.3       1 IJ1        -0.0327
      2 CAM        -5.7390   -6.3620  -40.2650 C.ar      1 IJ1        -0.0527
      3 CAH        -5.6090   -6.0120  -38.9500 C.ar      1 IJ1        -0.0544
      4 CAF        -6.6900   -7.3750  -40.6550 C.ar      1 IJ1        -0.0675
      5 CAE        -7.4720   -8.0060  -39.6930 C.ar      1 IJ1        -0.0750
      6 CAG        -7.3390   -7.6440  -38.3090 C.ar      1 IJ1        -0.0622
      7 CAN        -6.4370   -6.6670  -37.9400 C.ar      1 IJ1        -0.0055
      8 CAK        -6.2740   -6.2830  -36.4980 C.3       1 IJ1        -0.0014
      9 NAL        -4.9340   -6.2210  -36.0430 N.4       1 IJ1         0.2401
     10 CAI        -4.8740   -6.2820  -34.5620 C.3       1 IJ1        -0.0155
     11 CAJ        -3.5220   -6.6000  -33.9600 C.3       1 IJ1         0.0706
     12 SAO        -2.8570   -5.4330  -32.7700 S.o2      1 IJ1        -0.1866
     13 OAD        -1.6000   -6.0040  -32.1560 O.co2     1 IJ1        -0.4844
     14 OAC        -3.8680   -5.1520  -31.6670 O.co2     1 IJ1        -0.4844
     15 OAB        -2.5590   -4.2000  -33.5050 O.co2     1 IJ1        -0.4844
     16 H1         -4.2174   -4.9476  -40.8467 H         1 IJ1         0.0390
     17 H2         -5.5248   -5.1793  -42.0565 H         1 IJ1         0.0390
     18 H3         -4.2670   -6.4434  -41.8401 H         1 IJ1         0.0390
     19 H4         -4.8942   -5.2513  -38.6576 H         1 IJ1         0.0496
     20 H5         -6.7952   -7.6447  -41.6996 H         1 IJ1         0.0499
     21 H6         -8.1816   -8.7707  -39.9875 H         1 IJ1         0.0582
     22 H7         -7.9451   -8.1366  -37.5573 H         1 IJ1         0.0501
     23 H8         -6.8086   -7.0236  -35.8851 H         1 IJ1         0.0979
     24 H9         -6.7290   -5.2918  -36.3552 H         1 IJ1         0.0979
     25 H10        -4.5194   -5.3567  -36.3546 H         1 IJ1         0.2028
     26 H11        -4.4191   -6.9982  -36.4263 H         1 IJ1         0.2028
     27 H12        -5.5801   -7.0570  -34.2292 H         1 IJ1         0.0829
     28 H13        -5.1929   -5.3039  -34.1727 H         1 IJ1         0.0829
     29 H14        -2.8011   -6.6753  -34.7874 H         1 IJ1         0.0521
     30 H15        -3.6053   -7.5744  -33.4564 H         1 IJ1         0.0521
@<TRIPOS>BOND
     1    1    2 1  
     2    2    3 ar 
     3    2    4 ar 
     4    3    7 ar 
     5    4    5 ar 
     6    5    6 ar 
     7    6    7 ar 
     8    7    8 1  
     9    8    9 1  
    10    9   10 1  
    11   10   11 1  
    12   11   12 1  
    13   12   13 ar 
    14   12   14 ar 
    15   12   15 ar 
    16    1   16 1  
    17    1   17 1  
    18    1   18 1  
    19    3   19 1  
    20    4   20 1  
    21    5   21 1  
    22    6   22 1  
    23    8   23 1  
    24    8   24 1  
    25    9   25 1  
    26    9   26 1  
    27   10   27 1  
    28   10   28 1  
    29   11   29 1  
    30   11   30 1  
@<TRIPOS>SUBSTRUCTURE
     1 IJ1         1

