### 
### Created by X-TOOL on Mon Sep 10 21:13:10 2018
### 

@<TRIPOS>MOLECULE
4fqo_ligand
   57    58     1     0     0
SMALL
GAST_HUCK


@<TRIPOS>ATOM
      1 N2         14.8020    4.8010   25.7680 N.pl3     1 AZ3        -0.2733
      2 C7         13.9230    4.8990   24.8670 C.cat     1 AZ3         0.2294
      3 N1         14.2340    4.6250   23.5920 N.pl3     1 AZ3        -0.2733
      4 C3         12.5170    5.3300   25.2070 C.ar      1 AZ3         0.0145
      5 C2         11.7230    5.9250   24.2220 C.ar      1 AZ3        -0.0654
      6 C1         10.4230    6.3290   24.5120 C.ar      1 AZ3        -0.0332
      7 C4         12.0000    5.1300   26.4890 C.ar      1 AZ3        -0.0654
      8 C5         10.6940    5.5290   26.7760 C.ar      1 AZ3        -0.0332
      9 C6          9.9040    6.1300   25.7930 C.ar      1 AZ3         0.0911
     10 O1          8.6260    6.5100   26.1360 O.3       1 AZ3        -0.3180
     11 C8          7.6980    7.1580   25.2630 C.3       1 AZ3         0.0704
     12 C9          7.1920    6.1800   24.2070 C.3       1 AZ3        -0.0251
     13 C10         5.8340    5.5770   24.5330 C.3       1 AZ3        -0.0506
     14 C11         5.6980    4.2160   23.8530 C.3       1 AZ3        -0.0529
     15 C12         4.5340    3.4130   24.4230 C.3       1 AZ3        -0.0506
     16 C13         3.6620    2.8320   23.3050 C.3       1 AZ3        -0.0251
     17 C14         3.3560    1.3260   23.3960 C.3       1 AZ3         0.0704
     18 O2          3.7370    0.8490   24.6790 O.3       1 AZ3        -0.3180
     19 C15         3.3620   -0.3550   25.2340 C.ar      1 AZ3         0.0911
     20 C16         2.0760   -0.9330   25.1240 C.ar      1 AZ3        -0.0332
     21 C17         1.7940   -2.1510   25.7550 C.ar      1 AZ3        -0.0654
     22 C20         4.3650   -0.9700   25.9540 C.ar      1 AZ3        -0.0332
     23 C19         4.0890   -2.1720   26.5680 C.ar      1 AZ3        -0.0654
     24 C18         2.8270   -2.7520   26.4890 C.ar      1 AZ3         0.0145
     25 C21         2.6970   -4.0610   27.1950 C.cat     1 AZ3         0.2294
     26 N3          3.7480   -4.8930   27.2120 N.pl3     1 AZ3        -0.2733
     27 N4          1.6250   -4.3810   27.7660 N.pl3     1 AZ3        -0.2733
     28 H          14.5651    5.0140   26.7370 H         1 AZ3         0.3180
     29 H          15.7491    4.5088   25.5269 H         1 AZ3         0.3180
     30 H          13.5239    4.7088   22.8645 H         1 AZ3         0.3180
     31 H          15.1807    4.3328   23.3494 H         1 AZ3         0.3180
     32 H          12.1249    6.0736   23.2198 H         1 AZ3         0.0588
     33 H           9.8120    6.7993   23.7416 H         1 AZ3         0.0542
     34 H          12.6132    4.6649   27.2609 H         1 AZ3         0.0588
     35 H          10.2872    5.3705   27.7747 H         1 AZ3         0.0542
     36 H           8.1979    7.9899   24.7668 H         1 AZ3         0.0614
     37 H           6.8520    7.5189   25.8479 H         1 AZ3         0.0614
     38 H           7.9081    5.3601   24.1523 H         1 AZ3         0.0291
     39 H           7.0874    6.7333   23.2737 H         1 AZ3         0.0291
     40 H           5.0481    6.2409   24.1728 H         1 AZ3         0.0266
     41 H           5.7438    5.4522   25.6121 H         1 AZ3         0.0266
     42 H           6.6170    3.6549   24.0220 H         1 AZ3         0.0265
     43 H           5.5141    4.3800   22.7912 H         1 AZ3         0.0265
     44 H           3.9207    4.0751   25.0343 H         1 AZ3         0.0266
     45 H           4.9354    2.5902   25.0145 H         1 AZ3         0.0266
     46 H           4.2190    2.9743   22.3790 H         1 AZ3         0.0291
     47 H           2.7013    3.3427   23.3713 H         1 AZ3         0.0291
     48 H           3.9137    0.7921   22.6266 H         1 AZ3         0.0614
     49 H           2.2893    1.1595   23.2456 H         1 AZ3         0.0614
     50 H           1.3016   -0.4287   24.5460 H         1 AZ3         0.0542
     51 H           0.8101   -2.6139   25.6787 H         1 AZ3         0.0588
     52 H           5.3525   -0.5158   26.0352 H         1 AZ3         0.0542
     53 H           4.8755   -2.6789   27.1271 H         1 AZ3         0.0588
     54 H           4.6165   -4.6271   26.7479 H         1 AZ3         0.3180
     55 H           3.6792   -5.7919   27.6890 H         1 AZ3         0.3180
     56 H           0.8291   -3.7432   27.7511 H         1 AZ3         0.3180
     57 H           1.5503   -5.2786   28.2446 H         1 AZ3         0.3180
@<TRIPOS>BOND
     1    1    2 ar 
     2    2    3 ar 
     3    2    4 1  
     4    4    5 ar 
     5    4    7 ar 
     6    5    6 ar 
     7    6    9 ar 
     8    7    8 ar 
     9    8    9 ar 
    10    9   10 1  
    11   10   11 1  
    12   11   12 1  
    13   12   13 1  
    14   13   14 1  
    15   14   15 1  
    16   15   16 1  
    17   16   17 1  
    18   17   18 1  
    19   18   19 1  
    20   19   20 ar 
    21   19   22 ar 
    22   20   21 ar 
    23   21   24 ar 
    24   22   23 ar 
    25   23   24 ar 
    26   24   25 1  
    27   25   26 ar 
    28   25   27 ar 
    29    1   28 1  
    30    1   29 1  
    31    3   30 1  
    32    3   31 1  
    33    5   32 1  
    34    6   33 1  
    35    7   34 1  
    36    8   35 1  
    37   11   36 1  
    38   11   37 1  
    39   12   38 1  
    40   12   39 1  
    41   13   40 1  
    42   13   41 1  
    43   14   42 1  
    44   14   43 1  
    45   15   44 1  
    46   15   45 1  
    47   16   46 1  
    48   16   47 1  
    49   17   48 1  
    50   17   49 1  
    51   20   50 1  
    52   21   51 1  
    53   22   52 1  
    54   23   53 1  
    55   26   54 1  
    56   26   55 1  
    57   27   56 1  
    58   27   57 1  
@<TRIPOS>SUBSTRUCTURE
     1 AZ3         1

