### 
### Created by X-TOOL on Mon Sep 10 21:13:10 2018
### 

@<TRIPOS>MOLECULE
4fri_ligand
   46    49     1     0     0
SMALL
GAST_HUCK


@<TRIPOS>ATOM
      1 C15        66.4290   54.9810   11.2800 C.3       1 DWA         0.0670
      2 O14        67.1120   53.8390   11.8750 O.3       1 DWA        -0.3010
      3 C2         67.5090   52.8280   11.0230 C.ar      1 DWA         0.1216
      4 C3         67.9440   51.6140   11.5530 C.ar      1 DWA        -0.0055
      5 C4         68.3550   50.5760   10.7030 C.ar      1 DWA        -0.0516
      6 C1         67.5190   52.9820    9.6340 C.ar      1 DWA        -0.0055
      7 C6         67.9340   51.9320    8.7940 C.ar      1 DWA        -0.0516
      8 C5         68.3550   50.7130    9.3100 C.ar      1 DWA        -0.0342
      9 C7         68.8060   49.5580    8.3550 C.3       1 DWA         0.1193
     10 C19        68.4250   48.1810    8.8840 C.3       1 DWA         0.0573
     11 O18        67.3460   47.7230    8.0390 O.3       1 DWA        -0.3321
     12 C17        67.2460   48.6000    6.9970 C.cat     1 DWA         0.3399
     13 N16        68.0400   49.6500    7.0980 N.pl3     1 DWA        -0.2849
     14 N20        66.3950   48.4340    6.0010 N.pl3     1 DWA        -0.2516
     15 C8         70.2930   49.5210    8.0550 C.ar      1 DWA        -0.0294
     16 C13        70.7660   48.7290    7.0160 C.ar      1 DWA        -0.0409
     17 C9         71.1870   50.2570    8.8190 C.ar      1 DWA        -0.0488
     18 C10        72.5480   50.1870    8.5260 C.ar      1 DWA        -0.0407
     19 C11        73.0120   49.3890    7.4970 C.ar      1 DWA        -0.0340
     20 C12        72.1240   48.6630    6.7170 C.ar      1 DWA         0.0090
     21 C21        72.5800   47.8260    5.6780 C.ar      1 DWA         0.0520
     22 C26        73.5870   46.8970    5.9340 C.ar      1 DWA        -0.0383
     23 C25        74.0070   46.0300    4.9290 C.ar      1 DWA        -0.0411
     24 C24        73.4250   46.0980    3.6720 C.ar      1 DWA         0.0050
     25 N23        72.4710   46.9840    3.4590 N.ar      1 DWA        -0.2645
     26 C22        72.0300   47.8340    4.3970 C.ar      1 DWA         0.2225
     27 F27        71.0440   48.7050    4.0780 F         1 DWA        -0.1512
     28 H1         66.1714   55.7050   12.0671 H         1 DWA         0.0593
     29 H2         65.5101   54.6395   10.7810 H         1 DWA         0.0593
     30 H3         67.0901   55.4604   10.5430 H         1 DWA         0.0593
     31 H4         67.9648   51.4713   12.6274 H         1 DWA         0.0630
     32 H5         68.6827   49.6390   11.1386 H         1 DWA         0.0774
     33 H6         67.2029   53.9227    9.1979 H         1 DWA         0.0630
     34 H7         67.9249   52.0778    7.7199 H         1 DWA         0.0774
     35 H8         68.0903   48.2508    9.9295 H         1 DWA         0.0442
     36 H9         69.2817   47.4942    8.8183 H         1 DWA         0.0442
     37 H10        68.1129   50.4120    6.4088 H         1 DWA         0.3061
     38 H11        66.3561   49.1232    5.2366 H         1 DWA         0.3201
     39 H12        65.7701   47.6153    5.9886 H         1 DWA         0.3201
     40 H13        70.0636   48.1510    6.4265 H         1 DWA         0.0784
     41 H14        70.8318   50.8784    9.6331 H         1 DWA         0.0779
     42 H15        73.2519   50.7660    9.1128 H         1 DWA         0.0675
     43 H16        74.0761   49.3303    7.2985 H         1 DWA         0.0793
     44 H17        74.0434   46.8495    6.9161 H         1 DWA         0.0721
     45 H18        74.7867   45.3038    5.1284 H         1 DWA         0.0649
     46 H19        73.7484   45.4345    2.8781 H         1 DWA         0.0798
@<TRIPOS>BOND
     1    1    2 1  
     2    2    3 1  
     3    3    4 ar 
     4    3    6 ar 
     5    4    5 ar 
     6    5    8 ar 
     7    6    7 ar 
     8    7    8 ar 
     9    8    9 1  
    10    9   10 1  
    11    9   13 1  
    12    9   15 1  
    13   10   11 1  
    14   11   12 1  
    15   12   13 ar 
    16   12   14 ar 
    17   15   16 ar 
    18   15   17 ar 
    19   16   20 ar 
    20   17   18 ar 
    21   18   19 ar 
    22   19   20 ar 
    23   20   21 1  
    24   21   22 ar 
    25   21   26 ar 
    26   22   23 ar 
    27   23   24 ar 
    28   24   25 ar 
    29   25   26 ar 
    30   26   27 1  
    31    1   28 1  
    32    1   29 1  
    33    1   30 1  
    34    4   31 1  
    35    5   32 1  
    36    6   33 1  
    37    7   34 1  
    38   10   35 1  
    39   10   36 1  
    40   13   37 1  
    41   14   38 1  
    42   14   39 1  
    43   16   40 1  
    44   17   41 1  
    45   18   42 1  
    46   19   43 1  
    47   22   44 1  
    48   23   45 1  
    49   24   46 1  
@<TRIPOS>SUBSTRUCTURE
     1 DWA         1

