### 
### Created by X-TOOL on Mon Sep 10 21:13:09 2018
### 

@<TRIPOS>MOLECULE
4frk_ligand
   53    57     1     0     0
SMALL
GAST_HUCK


@<TRIPOS>ATOM
      1 C26        74.0350   47.0350    6.0540 C.ar      1 DWD         0.0358
      2 N27        74.4870   46.2190    5.1090 N.ar      1 DWD        -0.2632
      3 C28        73.8200   46.0660    3.9680 C.ar      1 DWD         0.0889
      4 N29        72.6920   46.7190    3.7420 N.ar      1 DWD        -0.2632
      5 C30        72.1990   47.5670    4.6340 C.ar      1 DWD         0.0358
      6 C15        72.8600   47.7600    5.8490 C.ar      1 DWD         0.0353
      7 C1         72.3550   48.6160    6.8450 C.ar      1 DWD         0.0062
      8 C6         70.9930   48.5710    7.1680 C.ar      1 DWD        -0.0444
      9 C5         70.4610   49.3970    8.1660 C.ar      1 DWD         0.0053
     10 C2         73.1970   49.4890    7.5390 C.ar      1 DWD        -0.0364
     11 C3         72.6670   50.3270    8.5380 C.ar      1 DWD         0.0025
     12 C4         71.3090   50.2790    8.8580 C.ar      1 DWD         0.1556
     13 O7         70.8650   51.1090    9.8560 O.3       1 DWD        -0.2126
     14 C8         69.5500   51.1980   10.1580 C.ar      1 DWD         0.1485
     15 C11        69.2090   52.1360   11.1180 C.ar      1 DWD        -0.0031
     16 C12        67.8800   52.2970   11.5000 C.ar      1 DWD        -0.0142
     17 C13        66.8860   51.4990   10.9200 C.ar      1 DWD         0.1022
     18 O16        65.6050   51.7410   11.3280 O.3       1 DWD        -0.3166
     19 C22        64.6940   50.6940   11.3200 C.3       1 DWD         0.0722
     20 C23        63.5120   51.3170   12.0860 C.3       1 DWD        -0.0190
     21 C25        62.7320   50.2130   12.7800 C.3       1 DWD        -0.0602
     22 C24        62.5960   52.1260   11.1700 C.3       1 DWD        -0.0602
     23 C14        67.2250   50.5500    9.9430 C.ar      1 DWD        -0.0283
     24 C9         68.5660   50.3880    9.5620 C.ar      1 DWD        -0.0052
     25 C10        68.9480   49.3380    8.4960 C.3       1 DWD         0.1090
     26 C17        68.5630   47.9020    8.8940 C.3       1 DWD         0.0475
     27 O18        67.6580   47.4560    7.8240 O.3       1 DWD        -0.3351
     28 C19        67.3530   48.5290    7.0320 C.cat     1 DWD         0.3371
     29 N21        66.4260   48.4810    6.0650 N.pl3     1 DWD        -0.2518
     30 N20        68.0580   49.6200    7.3170 N.pl3     1 DWD        -0.2972
     31 H1         74.5792   47.1382    6.9858 H         1 DWD         0.0937
     32 H2         74.2077   45.3946    3.2104 H         1 DWD         0.1116
     33 H3         71.2849   48.1093    4.4207 H         1 DWD         0.0937
     34 H4         70.3408   47.8866    6.6376 H         1 DWD         0.0741
     35 H5         74.2557   49.5208    7.3085 H         1 DWD         0.0772
     36 H6         73.3189   51.0155    9.0634 H         1 DWD         0.0638
     37 H7         69.9797   52.7471   11.5737 H         1 DWD         0.0621
     38 H8         67.6151   53.0386   12.2449 H         1 DWD         0.0716
     39 H9         65.0911   49.8106   11.8415 H         1 DWD         0.0615
     40 H10        64.4081   50.4167   10.2946 H         1 DWD         0.0615
     41 H11        63.9153   51.9968   12.8510 H         1 DWD         0.0321
     42 H12        61.8858   50.6515   13.3293 H         1 DWD         0.0233
     43 H13        63.3918   49.6847   13.4839 H         1 DWD         0.0233
     44 H14        62.3536   49.5037   12.0292 H         1 DWD         0.0233
     45 H15        63.1777   52.9190   10.6774 H         1 DWD         0.0233
     46 H16        61.7894   52.5789   11.7652 H         1 DWD         0.0233
     47 H17        62.1612   51.4628   10.4077 H         1 DWD         0.0233
     48 H18        66.4528   49.9435    9.4837 H         1 DWD         0.0610
     49 H19        68.0500   47.8920    9.8670 H         1 DWD         0.0411
     50 H20        69.4544   47.2594    8.9428 H         1 DWD         0.0411
     51 H21        66.2326   49.3169    5.4951 H         1 DWD         0.3201
     52 H22        65.9071   47.6082    5.8919 H         1 DWD         0.3201
     53 H23        68.0032   50.5154    6.8109 H         1 DWD         0.3030
@<TRIPOS>BOND
     1    1    2 ar 
     2    1    6 ar 
     3    2    3 ar 
     4    3    4 ar 
     5    4    5 ar 
     6    5    6 ar 
     7    6    7 1  
     8    7    8 ar 
     9    7   10 ar 
    10    8    9 ar 
    11    9   12 ar 
    12    9   25 1  
    13   10   11 ar 
    14   11   12 ar 
    15   12   13 1  
    16   13   14 1  
    17   14   15 ar 
    18   14   24 ar 
    19   15   16 ar 
    20   16   17 ar 
    21   17   18 1  
    22   17   23 ar 
    23   18   19 1  
    24   19   20 1  
    25   20   21 1  
    26   20   22 1  
    27   23   24 ar 
    28   24   25 1  
    29   25   26 1  
    30   25   30 1  
    31   26   27 1  
    32   27   28 1  
    33   28   29 ar 
    34   28   30 ar 
    35    1   31 1  
    36    3   32 1  
    37    5   33 1  
    38    8   34 1  
    39   10   35 1  
    40   11   36 1  
    41   15   37 1  
    42   16   38 1  
    43   19   39 1  
    44   19   40 1  
    45   20   41 1  
    46   21   42 1  
    47   21   43 1  
    48   21   44 1  
    49   22   45 1  
    50   22   46 1  
    51   22   47 1  
    52   23   48 1  
    53   26   49 1  
    54   26   50 1  
    55   29   51 1  
    56   29   52 1  
    57   30   53 1  
@<TRIPOS>SUBSTRUCTURE
     1 DWD         1

