### 
### Created by X-TOOL on Mon Sep 10 21:13:10 2018
### 

@<TRIPOS>MOLECULE
4frs_ligand
   43    45     1     0     0
SMALL
GAST_HUCK


@<TRIPOS>ATOM
      1 C2         22.6250   10.7430   20.6570 C.2       1 0V6         0.0476
      2 S1         24.1510   10.0510   21.1130 S.3       1 0V6         0.0018
      3 C3         22.8140   11.6220   19.6230 C.2       1 0V6         0.0847
      4 C4         24.1820   11.7190   19.2040 C.2       1 0V6         0.0172
      5 C5         25.0480   10.8810   19.9410 C.2       1 0V6         0.0996
      6 C6         20.6680   11.6080   22.0400 C.3       1 0V6         0.0323
      7 C7         21.5760   12.2070   23.1310 C.2       1 0V6         0.1676
      8 N8         22.3880   11.3330   23.9230 N.am      1 0V6        -0.2154
      9 C9         22.3190    9.9390   23.7580 C.cat     1 0V6         0.3149
     10 N10        21.6940    9.4690   22.6090 N.pl3     1 0V6        -0.3032
     11 C11        21.3640   10.3540   21.4330 C.3       1 0V6         0.0826
     12 C12        20.3400    9.5600   20.5880 C.3       1 0V6        -0.0683
     13 CL         21.5080   12.5060   18.8790 Cl        1 0V6        -0.0299
     14 C14        26.5040   10.7850   19.8620 C.ar      1 0V6         0.0624
     15 C15        27.2590   10.1480   20.8930 C.ar      1 0V6        -0.0019
     16 C16        28.6250   10.1440   20.9200 C.ar      1 0V6         0.0641
     17 C17        29.2940   10.7700   19.8600 C.ar      1 0V6         0.0370
     18 N18        28.6230   11.4080   18.8090 N.ar      1 0V6        -0.2811
     19 C19        27.2450   11.4220   18.8380 C.ar      1 0V6         0.0375
     20 N20        22.7530    9.0980   24.6450 N.pl3     1 0V6        -0.2553
     21 O21        21.5850   13.4080   23.2880 O.2       1 0V6        -0.3987
     22 C22        23.2920   11.9610   24.9540 C.3       1 0V6         0.0243
     23 C23        29.3260    9.4740   21.9780 C.1       1 0V6        -0.0553
     24 C24        29.9150    8.9130   22.8650 C.1       1 0V6        -0.0969
     25 C25        30.6550    8.2640   23.9250 C.3       1 0V6        -0.0012
     26 H          24.5190   12.3724   18.3993 H         1 0V6         0.0688
     27 H          20.4962   12.3476   21.2580 H         1 0V6         0.0358
     28 H          19.7103   11.3223   22.4750 H         1 0V6         0.0358
     29 H          21.4472    8.4806   22.5587 H         1 0V6         0.3026
     30 H          20.7882    8.6204   20.2649 H         1 0V6         0.0087
     31 H          19.4555    9.3538   21.1908 H         1 0V6         0.0087
     32 H          20.0573   10.1483   19.7150 H         1 0V6         0.0087
     33 H          26.7212    9.6420   21.6948 H         1 0V6         0.0853
     34 H          30.3839   10.7601   19.8529 H         1 0V6         0.0919
     35 H          26.7073   11.9416   18.0449 H         1 0V6         0.0933
     36 H          23.1683    9.4398   25.5117 H         1 0V6         0.3198
     37 H          22.6790    8.0948   24.4758 H         1 0V6         0.3198
     38 H          23.9921   12.6344   24.4596 H         1 0V6         0.0483
     39 H          22.6905   12.5216   25.6696 H         1 0V6         0.0483
     40 H          23.8444   11.1793   25.4754 H         1 0V6         0.0483
     41 H          31.5762    7.8454   23.5197 H         1 0V6         0.0364
     42 H          30.8953    8.9938   24.6981 H         1 0V6         0.0364
     43 H          30.0491    7.4654   24.3531 H         1 0V6         0.0364
@<TRIPOS>BOND
     1    1    2 1  
     2    1    3 2  
     3   11    1 1  
     4    2    5 1  
     5    3    4 1  
     6    3   13 1  
     7    4    5 2  
     8    5   14 1  
     9    6    7 1  
    10    6   11 1  
    11    7    8 am 
    12    7   21 2  
    13    8    9 ar 
    14    8   22 1  
    15    9   10 ar 
    16    9   20 ar 
    17   10   11 1  
    18   11   12 1  
    19   14   15 ar 
    20   14   19 ar 
    21   15   16 ar 
    22   16   17 ar 
    23   16   23 1  
    24   17   18 ar 
    25   18   19 ar 
    26   23   24 3  
    27   24   25 1  
    28    4   26 1  
    29    6   27 1  
    30    6   28 1  
    31   10   29 1  
    32   12   30 1  
    33   12   31 1  
    34   12   32 1  
    35   15   33 1  
    36   17   34 1  
    37   19   35 1  
    38   20   36 1  
    39   20   37 1  
    40   22   38 1  
    41   22   39 1  
    42   22   40 1  
    43   25   41 1  
    44   25   42 1  
    45   25   43 1  
@<TRIPOS>SUBSTRUCTURE
     1 0V6         1

