### 
### Created by X-TOOL on Mon Sep 10 21:13:09 2018
### 

@<TRIPOS>MOLECULE
4fs3_ligand
   51    54     1     0     0
SMALL
GAST_HUCK


@<TRIPOS>ATOM
      1 O2        112.2380   64.8150   35.4650 O.2       1 0WE        -0.3966
      2 C1        111.2650   65.5680   35.4960 C.2       1 0WE         0.1820
      3 C17       110.7310   66.0540   36.8440 C.3       1 0WE         0.0462
      4 C18       111.6690   65.6640   37.9540 C.3       1 0WE        -0.0049
      5 C19       111.3040   66.2730   39.2900 C.ar      1 0WE        -0.0364
      6 C24       110.1770   67.0850   39.4630 C.ar      1 0WE        -0.0518
      7 C23       109.8960   67.5950   40.7290 C.ar      1 0WE         0.0035
      8 C26       108.6900   68.4930   41.0070 C.3       1 0WE        -0.0005
      9 C25       108.2460   68.2660   42.4560 C.3       1 0WE         0.0521
     10 C20       112.1370   65.9860   40.3640 C.ar      1 0WE        -0.0136
     11 N21       111.9010   66.4710   41.5940 N.ar      1 0WE        -0.3008
     12 C22       110.8210   67.2630   41.8390 C.ar      1 0WE         0.1356
     13 N36       110.5910   67.7480   43.0920 N.am      1 0WE        -0.2244
     14 C37       109.4060   68.2560   43.4570 C.2       1 0WE         0.2063
     15 O28       109.2490   68.6820   44.5990 O.2       1 0WE        -0.3843
     16 N3        110.6520   65.9860   34.3900 N.am      1 0WE        -0.2621
     17 C4        111.2400   65.6720   33.0850 C.3       1 0WE         0.0250
     18 C5        109.4120   66.8140   34.3380 C.3       1 0WE         0.0960
     19 C6        109.9780   68.2020   34.3610 C.2       1 0WE         0.1210
     20 O10       110.4240   68.8590   35.4850 O.3       1 0WE        -0.2581
     21 C9        110.9520   70.1220   35.1320 C.ar      1 0WE         0.1164
     22 C8        110.8850   70.3380   33.6850 C.ar      1 0WE        -0.0163
     23 C7        110.2450   69.0900   33.2030 C.2       1 0WE        -0.0334
     24 C38       109.9830   68.9260   31.7330 C.3       1 0WE        -0.0514
     25 C14       111.4940   71.0700   36.0000 C.ar      1 0WE        -0.0360
     26 C13       111.9510   72.2480   35.3970 C.ar      1 0WE        -0.0773
     27 C12       111.8840   72.4560   34.0060 C.ar      1 0WE        -0.0807
     28 C11       111.3430   71.5260   33.1110 C.ar      1 0WE        -0.0760
     29 H1        109.7453   65.6015   37.0273 H         1 0WE         0.0523
     30 H2        110.6331   67.1494   36.8210 H         1 0WE         0.0523
     31 H3        112.6834   65.9942   37.6857 H         1 0WE         0.0436
     32 H4        111.6544   64.5687   38.0544 H         1 0WE         0.0436
     33 H5        109.5312   67.3141   38.6230 H         1 0WE         0.0568
     34 H6        107.8689   68.2360   40.3217 H         1 0WE         0.0438
     35 H7        108.9702   69.5471   40.8645 H         1 0WE         0.0438
     36 H8        107.7282   67.2972   42.5137 H         1 0WE         0.0529
     37 H9        107.5507   69.0707   42.7371 H         1 0WE         0.0529
     38 H10       113.0021   65.3526   40.2048 H         1 0WE         0.0646
     39 H11       111.3327   67.7238   43.7623 H         1 0WE         0.2268
     40 H12       110.6079   66.0904   32.2878 H         1 0WE         0.0488
     41 H13       111.3061   64.5805   32.9656 H         1 0WE         0.0488
     42 H14       112.2473   66.1095   33.0218 H         1 0WE         0.0488
     43 H15       108.7680   66.6283   35.2102 H         1 0WE         0.0717
     44 H16       108.8427   66.6275   33.4154 H         1 0WE         0.0717
     45 H17       109.5076   67.9507   31.5519 H         1 0WE         0.0293
     46 H18       110.9342   68.9780   31.1830 H         1 0WE         0.0293
     47 H19       109.3153   69.7291   31.3877 H         1 0WE         0.0293
     48 H20       111.5571   70.9056   37.0696 H         1 0WE         0.0549
     49 H21       112.3711   73.0271   36.0228 H         1 0WE         0.0514
     50 H22       112.2722   73.3862   33.6071 H         1 0WE         0.0513
     51 H23       111.2835   71.7148   32.0452 H         1 0WE         0.0519
@<TRIPOS>BOND
     1    1    2 2  
     2    2    3 1  
     3    2   16 am 
     4    3    4 1  
     5    4    5 1  
     6    5    6 ar 
     7    5   10 ar 
     8    6    7 ar 
     9    7    8 1  
    10    7   12 ar 
    11    8    9 1  
    12    9   14 1  
    13   10   11 ar 
    14   11   12 ar 
    15   12   13 1  
    16   13   14 am 
    17   14   15 2  
    18   16   17 1  
    19   16   18 1  
    20   18   19 1  
    21   19   20 1  
    22   19   23 2  
    23   20   21 1  
    24   21   22 ar 
    25   21   25 ar 
    26   22   23 1  
    27   22   28 ar 
    28   23   24 1  
    29   25   26 ar 
    30   26   27 ar 
    31   27   28 ar 
    32    3   29 1  
    33    3   30 1  
    34    4   31 1  
    35    4   32 1  
    36    6   33 1  
    37    8   34 1  
    38    8   35 1  
    39    9   36 1  
    40    9   37 1  
    41   10   38 1  
    42   13   39 1  
    43   17   40 1  
    44   17   41 1  
    45   17   42 1  
    46   18   43 1  
    47   18   44 1  
    48   24   45 1  
    49   24   46 1  
    50   24   47 1  
    51   25   48 1  
    52   26   49 1  
    53   27   50 1  
    54   28   51 1  
@<TRIPOS>SUBSTRUCTURE
     1 0WE         1

