### 
### Created by X-TOOL on Mon Sep 10 21:13:10 2018
### 

@<TRIPOS>MOLECULE
4fs4_ligand
   46    48     1     0     0
SMALL
GAST_HUCK


@<TRIPOS>ATOM
      1 C1         30.4660    8.5250   23.5620 C.3       1 H24         0.0593
      2 O2         29.3000    8.4980   22.7240 O.3       1 H24        -0.3214
      3 C3         29.1060    9.5460   21.8620 C.ar      1 H24         0.0911
      4 C4         30.0330   10.5620   21.6550 C.ar      1 H24        -0.0329
      5 C5         29.7070   11.6140   20.8160 C.ar      1 H24        -0.0697
      6 C6         28.4510   11.6800   20.2310 C.ar      1 H24        -0.0644
      7 C7         27.4960   10.6850   20.4580 C.ar      1 H24        -0.0200
      8 C8         27.8530    9.5940   21.2570 C.ar      1 H24        -0.0253
      9 C9         26.1120   10.8140   19.9230 C.ar      1 H24         0.0088
     10 C10        25.8810   11.3960   18.6720 C.ar      1 H24        -0.0264
     11 C11        24.5930   11.5800   18.2030 C.ar      1 H24        -0.0316
     12 C12        23.5120   11.1780   18.9710 C.ar      1 H24        -0.0349
     13 C13        23.7040   10.5790   20.2150 C.ar      1 H24         0.0007
     14 C14        22.4580   10.1240   20.9980 C.3       1 H24         0.1168
     15 C15        21.5730    9.2100   20.0970 C.3       1 H24        -0.0386
     16 C18        21.6120   11.3560   21.4480 C.3       1 H24         0.0613
     17 C19        22.2610   12.0320   22.6490 C.2       1 H24         0.1759
     18 O20        22.3120   13.2530   22.7210 O.2       1 H24        -0.3979
     19 N21        22.8590   11.2290   23.5940 N.am      1 H24        -0.2142
     20 C22        23.4300   11.8660   24.7870 C.3       1 H24         0.0243
     21 C23        22.8950    9.8030   23.3920 C.cat     1 H24         0.3230
     22 N24        23.0920    8.9910   24.4330 N.pl3     1 H24        -0.2547
     23 N25        22.7190    9.2600   22.1880 N.pl3     1 H24        -0.2662
     24 C26        25.0100   10.4020   20.6920 C.ar      1 H24        -0.0274
     25 H1         30.4844    7.6246   24.1937 H         1 H24         0.0577
     26 H2         30.4381    9.4203   24.2005 H         1 H24         0.0577
     27 H3         31.3686    8.5506   22.9338 H         1 H24         0.0577
     28 H4         30.9995   10.5306   22.1449 H         1 H24         0.0545
     29 H5         30.4369   12.3899   20.6153 H         1 H24         0.0590
     30 H6         28.2061   12.5170   19.5872 H         1 H24         0.0532
     31 H7         27.1507    8.7818   21.4059 H         1 H24         0.0544
     32 H8         26.7220   11.7066   18.0627 H         1 H24         0.0862
     33 H9         24.4292   12.0387   17.2346 H         1 H24         0.0698
     34 H10        22.5050   11.3311   18.6000 H         1 H24         0.0852
     35 H11        20.6851    8.8883   20.6611 H         1 H24         0.0183
     36 H12        22.1521    8.3267   19.7898 H         1 H24         0.0183
     37 H13        21.2572    9.7701   19.2045 H         1 H24         0.0183
     38 H14        20.6008   11.0212   21.7225 H         1 H24         0.0455
     39 H15        21.5476   12.0748   20.6179 H         1 H24         0.0455
     40 H16        23.2874   12.9549   24.7250 H         1 H24         0.0483
     41 H17        24.5049   11.6397   24.8446 H         1 H24         0.0483
     42 H18        22.9255   11.4808   25.6854 H         1 H24         0.0483
     43 H19        23.1184    7.9709   24.2927 H         1 H24         0.3198
     44 H20        23.2176    9.3845   25.3765 H         1 H24         0.3198
     45 H21        22.7633    8.2369   22.0771 H         1 H24         0.3125
     46 H22        25.1713    9.9440   21.6611 H         1 H24         0.0858
@<TRIPOS>BOND
     1    1    2 1  
     2    2    3 1  
     3    3    4 ar 
     4    3    8 ar 
     5    4    5 ar 
     6    5    6 ar 
     7    6    7 ar 
     8    7    8 ar 
     9    7    9 1  
    10    9   10 ar 
    11    9   24 ar 
    12   10   11 ar 
    13   11   12 ar 
    14   12   13 ar 
    15   13   14 1  
    16   13   24 ar 
    17   14   15 1  
    18   14   16 1  
    19   14   23 1  
    20   16   17 1  
    21   17   18 2  
    22   17   19 am 
    23   19   20 1  
    24   19   21 ar 
    25   21   22 ar 
    26   21   23 ar 
    27    1   25 1  
    28    1   26 1  
    29    1   27 1  
    30    4   28 1  
    31    5   29 1  
    32    6   30 1  
    33    8   31 1  
    34   10   32 1  
    35   11   33 1  
    36   12   34 1  
    37   15   35 1  
    38   15   36 1  
    39   15   37 1  
    40   16   38 1  
    41   16   39 1  
    42   20   40 1  
    43   20   41 1  
    44   20   42 1  
    45   22   43 1  
    46   22   44 1  
    47   23   45 1  
    48   24   46 1  
@<TRIPOS>SUBSTRUCTURE
     1 H24         1

