### 
### Created by X-TOOL on Mon Sep 10 21:13:11 2018
### 

@<TRIPOS>MOLECULE
4fse_ligand
   56    58     1     0     0
SMALL
GAST_HUCK


@<TRIPOS>ATOM
      1 C01        -4.6970   17.6140   28.0890 C.3       1 0VA        -0.0337
      2 C02        -3.3550   17.2840   30.2320 C.3       1 0VA        -0.0337
      3 C03        -3.6040   16.8680   27.3070 C.3       1 0VA        -0.0240
      4 C04        -2.2460   16.5340   29.4970 C.3       1 0VA        -0.0240
      5 C05        -5.3780   11.6150   32.4650 C.ar      1 0VA        -0.0533
      6 C06        -3.5140   11.6780   34.2470 C.ar      1 0VA        -0.0533
      7 C07        -4.6310   17.8850   29.6040 C.3       1 0VA         0.0095
      8 C08        -6.0550   18.2200   32.0800 C.2       1 0VA         0.0860
      9 C09        -4.8720   12.1560   33.7910 C.ar      1 0VA        -0.0097
     10 C10        -3.2300   10.0750   32.0800 C.ar      1 0VA         0.0571
     11 C11        -2.3430   16.3030   27.9880 C.3       1 0VA         0.0587
     12 C12        -4.5930   10.6120   31.6410 C.ar      1 0VA         0.0509
     13 C13        -2.7560   10.6760   33.3960 C.ar      1 0VA         0.0509
     14 C14        -5.4510   18.5220   30.7200 C.2       1 0VA         0.0224
     15 C15        -6.8830   19.3180   32.6930 C.2       1 0VA         0.0645
     16 C16        -5.7970   17.0440   33.0120 C.2       1 0VA         0.1861
     17 C17        -4.9820   15.4990   34.8320 C.cat     1 0VA         0.3286
     18 C18        -7.5980   19.3960   34.0300 C.3       1 0VA         0.0045
     19 C19        -0.5370   14.5580   27.6450 C.3       1 0VA         0.0368
     20 C20        -5.8040   13.1570   34.4090 C.3       1 0VA         0.1166
     21 N21        -6.0190   19.8320   30.3290 N.2       1 0VA        -0.2932
     22 N22        -4.9990   16.8440   34.2580 N.am      1 0VA        -0.2293
     23 N23        -2.4340    9.0840   31.3080 N.pl3     1 0VA        -0.3390
     24 N24        -4.3150   15.0350   36.0640 N.pl3     1 0VA        -0.2543
     25 N25        -5.7530   14.5630   34.0140 N.pl3     1 0VA        -0.2323
     26 O26        -6.3610   15.8320   32.5160 O.2       1 0VA        -0.4049
     27 O27        -1.3910   15.6160   27.1670 O.3       1 0VA        -0.3798
     28 S28        -6.9470   20.5680   31.4500 S.3       1 0VA         0.0126
     29 CL1        -5.3660   10.0620   30.1370 Cl        1 0VA        -0.0833
     30 CL2        -1.2060   10.1490   34.0230 Cl        1 0VA        -0.0833
     31 H          -5.5561   16.9492   27.9989 H         1 0VA         0.0297
     32 H          -4.6597   18.6160   27.6617 H         1 0VA         0.0297
     33 H          -2.8312   18.1794   30.5667 H         1 0VA         0.0297
     34 H          -3.7694   16.4996   30.8653 H         1 0VA         0.0297
     35 H          -3.2091   17.6295   26.6345 H         1 0VA         0.0292
     36 H          -4.1161   15.9772   26.9431 H         1 0VA         0.0292
     37 H          -2.2658   15.5323   29.9263 H         1 0VA         0.0292
     38 H          -1.3656   17.1651   29.6185 H         1 0VA         0.0292
     39 H          -6.3418   11.9606   32.0913 H         1 0VA         0.0533
     40 H          -3.0831   12.0486   35.1771 H         1 0VA         0.0533
     41 H          -5.4527   18.3777   29.0842 H         1 0VA         0.0523
     42 H          -1.3788   15.8963   28.2929 H         1 0VA         0.0596
     43 H          -8.3364   18.5966   34.0929 H         1 0VA         0.0527
     44 H          -6.8721   19.2861   34.8357 H         1 0VA         0.0527
     45 H          -8.0970   20.3611   34.1179 H         1 0VA         0.0527
     46 H           0.0911   14.9362   28.4515 H         1 0VA         0.0524
     47 H          -1.1506   13.7368   28.0153 H         1 0VA         0.0524
     48 H           0.0921   14.2037   26.8284 H         1 0VA         0.0524
     49 H          -5.5276   13.1649   35.4633 H         1 0VA         0.0938
     50 H          -6.7954   12.8273   34.0981 H         1 0VA         0.0938
     51 H          -4.4873   17.6130   34.6906 H         1 0VA         0.1837
     52 H          -2.7916    8.7192   30.4251 H         1 0VA         0.1707
     53 H          -1.5305    8.7691   31.6614 H         1 0VA         0.1707
     54 H          -3.7804   15.6916   36.6328 H         1 0VA         0.3199
     55 H          -4.3886   14.0577   36.3467 H         1 0VA         0.3199
     56 H          -6.2467   14.8862   33.1820 H         1 0VA         0.3245
@<TRIPOS>BOND
     1    1    3 1  
     2    7    1 1  
     3    2    4 1  
     4    7    2 1  
     5    3   11 1  
     6    4   11 1  
     7    9    5 ar 
     8    5   12 ar 
     9    9    6 ar 
    10    6   13 ar 
    11   14    7 1  
    12    8   14 1  
    13    8   15 2  
    14   16    8 1  
    15   20    9 1  
    16   12   10 ar 
    17   13   10 ar 
    18   10   23 1  
    19   11   27 1  
    20   12   29 1  
    21   13   30 1  
    22   14   21 2  
    23   15   18 1  
    24   15   28 1  
    25   22   16 am 
    26   16   26 2  
    27   17   22 ar 
    28   17   24 ar 
    29   25   17 ar 
    30   27   19 1  
    31   20   25 1  
    32   21   28 1  
    33    1   31 1  
    34    1   32 1  
    35    2   33 1  
    36    2   34 1  
    37    3   35 1  
    38    3   36 1  
    39    4   37 1  
    40    4   38 1  
    41    5   39 1  
    42    6   40 1  
    43    7   41 1  
    44   11   42 1  
    45   18   43 1  
    46   18   44 1  
    47   18   45 1  
    48   19   46 1  
    49   19   47 1  
    50   19   48 1  
    51   20   49 1  
    52   20   50 1  
    53   22   51 1  
    54   23   52 1  
    55   23   53 1  
    56   24   54 1  
    57   24   55 1  
    58   25   56 1  
@<TRIPOS>SUBSTRUCTURE
     1 0VA         1

