### 
### Created by X-TOOL on Mon Sep 10 21:13:11 2018
### 

@<TRIPOS>MOLECULE
4fsl_ligand
   58    60     1     0     0
SMALL
GAST_HUCK


@<TRIPOS>ATOM
      1 C01        -4.7720   17.7340   28.8060 C.ar      1 0VB        -0.0537
      2 C02        -3.1750   16.8450   30.6260 C.ar      1 0VB        -0.0537
      3 C03        -3.8700   17.0690   27.7530 C.ar      1 0VB        -0.0256
      4 C04        -2.2580   16.1780   29.6150 C.ar      1 0VB        -0.0256
      5 C05        -3.2260   11.4000   34.9980 C.ar      1 0VB        -0.0671
      6 C06        -5.0910   11.2340   33.2520 C.ar      1 0VB        -0.0624
      7 C07        -4.4200   17.6590   30.2920 C.ar      1 0VB        -0.0066
      8 C08        -5.9540   17.9050   32.6240 C.2       1 0VB         0.0830
      9 C09        -4.6440   11.7990   34.5930 C.ar      1 0VB        -0.0188
     10 C10        -2.3080   10.4630   34.2200 C.ar      1 0VB        -0.0292
     11 C11        -2.7880    9.8610   32.8960 C.ar      1 0VB         0.0760
     12 C12        -2.6080   16.2830   28.1320 C.ar      1 0VB         0.0980
     13 C13        -4.1820   10.3030   32.4710 C.ar      1 0VB         0.0473
     14 C14        -5.3350   18.2810   31.3230 C.2       1 0VB         0.0346
     15 C15        -6.8100   18.9730   33.2510 C.2       1 0VB         0.0646
     16 C16        -5.8540   16.6390   33.4100 C.2       1 0VB         0.1859
     17 C17        -0.9820    9.4770   31.0730 C.2       1 0VB         0.1974
     18 C18        -5.2710   15.3170   35.5230 C.cat     1 0VB         0.3286
     19 C19        -0.9390   10.1680   34.8270 C.3       1 0VB        -0.0364
     20 C20        -7.6180   19.0020   34.5450 C.3       1 0VB         0.0041
     21 C21        -0.0050    8.7230   30.1700 C.3       1 0VB         0.0310
     22 C22        -0.4290   15.0020   27.5800 C.3       1 0VB         0.0611
     23 C23        -5.7020   12.7190   35.1310 C.3       1 0VB         0.1143
     24 N24        -5.7330   19.6700   30.9710 N.2       1 0VB        -0.2860
     25 N25        -5.3640   16.5790   34.7980 N.am      1 0VB        -0.2292
     26 N26        -4.8280   15.1340   36.9220 N.pl3     1 0VB        -0.2543
     27 N27        -1.9100    8.9770   32.1110 N.am      1 0VB        -0.2400
     28 N28        -5.7160   14.1370   34.7630 N.pl3     1 0VB        -0.2327
     29 O29        -6.2250   15.4950   32.6400 O.2       1 0VB        -0.4044
     30 O30        -0.9920   10.8940   30.8660 O.2       1 0VB        -0.3868
     31 O31        -1.6830   15.6230   27.2690 O.3       1 0VB        -0.3166
     32 S32        -6.7140   20.3290   32.1050 S.3       1 0VB         0.0180
     33 CL1        -5.0270    9.7940   31.0020 Cl        1 0VB        -0.0869
     34 H1         -5.6657   18.2609   28.4918 H         1 0VB         0.0646
     35 H2         -2.9226   16.7326   31.6742 H         1 0VB         0.0646
     36 H3         -4.1352   17.1587   26.7058 H         1 0VB         0.0562
     37 H4         -1.3748   15.6394   29.9390 H         1 0VB         0.0562
     38 H5         -2.8383   11.8197   35.9192 H         1 0VB         0.0461
     39 H6         -6.0637   11.4981   32.8529 H         1 0VB         0.0469
     40 H7         -0.8322   10.7164   35.7745 H         1 0VB         0.0361
     41 H8         -0.1516   10.4867   34.1281 H         1 0VB         0.0361
     42 H9         -0.8466    9.0883   35.0159 H         1 0VB         0.0361
     43 H10        -8.1117   19.9797   34.6472 H         1 0VB         0.0524
     44 H11        -6.9461   18.8394   35.4006 H         1 0VB         0.0524
     45 H12        -8.3788   18.2080   34.5201 H         1 0VB         0.0524
     46 H13         0.5194    9.4382   29.5193 H         1 0VB         0.0471
     47 H14        -0.5594    8.0024   29.5509 H         1 0VB         0.0471
     48 H15         0.7278    8.1861   30.7902 H         1 0VB         0.0471
     49 H16         0.0150   14.5919   26.6609 H         1 0VB         0.0581
     50 H17        -0.5917   14.1891   28.3029 H         1 0VB         0.0581
     51 H18         0.2520   15.7485   28.0147 H         1 0VB         0.0581
     52 H19        -5.6251   12.6795   36.2276 H         1 0VB         0.0934
     53 H20        -6.6703   12.3029   34.8161 H         1 0VB         0.0934
     54 H21        -5.0882   17.4249   35.2545 H         1 0VB         0.1837
     55 H22        -4.8014   14.1906   37.3346 H         1 0VB         0.3199
     56 H23        -4.5460   15.9499   37.4838 H         1 0VB         0.3199
     57 H24        -1.9426    7.9933   32.2877 H         1 0VB         0.2217
     58 H25        -6.0961   14.3400   33.8275 H         1 0VB         0.3245
@<TRIPOS>BOND
     1    1    3 ar 
     2    7    1 ar 
     3    2    4 ar 
     4    7    2 ar 
     5    3   12 ar 
     6    4   12 ar 
     7    9    5 ar 
     8    5   10 ar 
     9    9    6 ar 
    10    6   13 ar 
    11   14    7 1  
    12    8   14 1  
    13    8   15 2  
    14   16    8 1  
    15   23    9 1  
    16   10   11 ar 
    17   10   19 1  
    18   13   11 ar 
    19   11   27 1  
    20   12   31 1  
    21   13   33 1  
    22   14   24 2  
    23   15   20 1  
    24   15   32 1  
    25   25   16 am 
    26   16   29 2  
    27   17   21 1  
    28   27   17 am 
    29   17   30 2  
    30   18   25 ar 
    31   18   26 ar 
    32   28   18 ar 
    33   31   22 1  
    34   23   28 1  
    35   24   32 1  
    36    1   34 1  
    37    2   35 1  
    38    3   36 1  
    39    4   37 1  
    40    5   38 1  
    41    6   39 1  
    42   19   40 1  
    43   19   41 1  
    44   19   42 1  
    45   20   43 1  
    46   20   44 1  
    47   20   45 1  
    48   21   46 1  
    49   21   47 1  
    50   21   48 1  
    51   22   49 1  
    52   22   50 1  
    53   22   51 1  
    54   23   52 1  
    55   23   53 1  
    56   25   54 1  
    57   26   55 1  
    58   26   56 1  
    59   27   57 1  
    60   28   58 1  
@<TRIPOS>SUBSTRUCTURE
     1 0VB         1

