### 
### Created by X-TOOL on Mon Sep 10 21:13:16 2018
### 

@<TRIPOS>MOLECULE
4fxj_ligand
   23    23     1     0     0
SMALL
GAST_HUCK


@<TRIPOS>ATOM
      1 N          28.8380  -15.1150   33.4830 N.4       1 PHE         0.2341
      2 CA         28.7320  -16.5930   33.6580 C.3       1 PHE         0.0378
      3 C          28.9540  -17.3410   32.3450 C.2       1 PHE         0.0866
      4 O          29.3850  -18.4930   32.3380 O.co2     1 PHE        -0.5641
      5 CB         27.3830  -16.9740   34.2850 C.3       1 PHE         0.0361
      6 CG         26.1920  -16.7280   33.3910 C.ar      1 PHE        -0.0360
      7 CD1        25.6360  -17.7690   32.6510 C.ar      1 PHE        -0.0600
      8 CD2        25.6160  -15.4640   33.3030 C.ar      1 PHE        -0.0600
      9 CE1        24.5310  -17.5520   31.8320 C.ar      1 PHE        -0.0686
     10 CE2        24.5130  -15.2370   32.4830 C.ar      1 PHE        -0.0686
     11 CZ         23.9700  -16.2840   31.7460 C.ar      1 PHE        -0.0687
     12 OXT        28.7080  -16.8130   31.2600 O.co2     1 PHE        -0.5641
     13 H1         28.6857  -14.6599   34.3695 H         1 PHE         0.2012
     14 H2         28.1433  -14.8042   32.8221 H         1 PHE         0.2012
     15 H3         29.7566  -14.8823   33.1394 H         1 PHE         0.2012
     16 H4         29.5252  -16.9026   34.3544 H         1 PHE         0.1048
     17 H5         27.2514  -16.3845   35.2043 H         1 PHE         0.0500
     18 H6         27.4099  -18.0445   34.5365 H         1 PHE         0.0500
     19 H7         26.0691  -18.7607   32.7135 H         1 PHE         0.0557
     20 H8         26.0311  -14.6456   33.8800 H         1 PHE         0.0557
     21 H9         24.1089  -18.3718   31.2620 H         1 PHE         0.0599
     22 H10        24.0786  -14.2459   32.4194 H         1 PHE         0.0599
     23 H11        23.1119  -16.1112   31.1066 H         1 PHE         0.0559
@<TRIPOS>BOND
     1    1    2 1  
     2    2    3 1  
     3    2    5 1  
     4    3    4 ar 
     5    3   12 ar 
     6    5    6 1  
     7    6    7 ar 
     8    6    8 ar 
     9    7    9 ar 
    10    8   10 ar 
    11    9   11 ar 
    12   10   11 ar 
    13    1   13 1  
    14    1   14 1  
    15    1   15 1  
    16    2   16 1  
    17    5   17 1  
    18    5   18 1  
    19    7   19 1  
    20    8   20 1  
    21    9   21 1  
    22   10   22 1  
    23   11   23 1  
@<TRIPOS>SUBSTRUCTURE
     1 PHE         1

