### 
### Created by X-TOOL on Mon Sep 10 21:13:10 2018
### 

@<TRIPOS>MOLECULE
4fxq_ligand
   51    54     1     0     0
SMALL
GAST_HUCK


@<TRIPOS>ATOM
      1 N11       -32.2370  -75.8520   -2.3010 N.4       1 G9L         0.2369
      2 N12       -35.9510  -73.9580    0.5780 N.am      1 G9L        -0.2618
      3 N13       -36.6510  -72.9760    4.5990 N.ar      1 G9L        -0.2875
      4 OAA       -35.2180  -72.9950   -1.3420 O.2       1 G9L        -0.3965
      5 OAB       -36.7400  -73.4440    6.8820 O.3       1 G9L        -0.3144
      6 FAC       -35.6780  -78.4620    6.9810 F         1 G9L        -0.1852
      7 CAD       -35.5740  -77.9690    4.6840 C.ar      1 G9L        -0.0269
      8 CAE       -35.6890  -77.0370    3.6750 C.ar      1 G9L        -0.0549
      9 CAF       -36.1060  -76.2400    6.3620 C.ar      1 G9L        -0.0177
     10 CAG       -30.3990  -77.3630   -3.0480 C.3       1 G9L        -0.0434
     11 CAH       -30.6050  -75.8440   -3.6080 C.3       1 G9L        -0.0123
     12 CAI       -31.5640  -77.7830   -1.9770 C.3       1 G9L        -0.0123
     13 CAJ       -34.2320  -75.1080   -0.9480 C.3       1 G9L         0.0776
     14 CAK       -36.5890  -72.3080    2.2280 C.3       1 G9L         0.0063
     15 CAL       -30.8630  -75.3160   -3.0020 C.3       1 G9L        -0.0318
     16 CAM       -32.3140  -77.4730   -2.2050 C.3       1 G9L        -0.0318
     17 CAN       -33.2820  -74.8770   -2.1220 C.3       1 G9L        -0.0149
     18 CAO       -36.7810  -72.8300    0.8630 C.3       1 G9L         0.0449
     19 CAP       -35.9210  -75.0430    1.5210 C.3       1 G9L         0.0640
     20 CAR       -35.1380  -73.9540   -0.6040 C.2       1 G9L         0.1854
     21 CAS       -35.7940  -77.5740    6.0180 C.ar      1 G9L         0.1325
     22 CAT       -36.4460  -73.3320    3.2950 C.ar      1 G9L         0.0118
     23 CAU       -36.1390  -74.6550    2.9670 C.ar      1 G9L        -0.0045
     24 CAV       -36.5320  -73.8850    5.6180 C.ar      1 G9L         0.1598
     25 CAW       -36.0220  -75.6810    4.0180 C.ar      1 G9L        -0.0130
     26 CAX       -36.2210  -75.2930    5.3350 C.ar      1 G9L         0.0314
     27 H1        -31.9154  -75.7526   -1.3509 H         1 G9L         0.2035
     28 H2        -36.6285  -74.1652    7.4902 H         1 G9L         0.2550
     29 H3        -35.3166  -78.9964    4.4530 H         1 G9L         0.0630
     30 H4        -35.5311  -77.3214    2.6410 H         1 G9L         0.0605
     31 H5        -36.2533  -75.9549    7.3974 H         1 G9L         0.0615
     32 H6        -29.4195  -77.4292   -2.5518 H         1 G9L         0.0269
     33 H7        -30.4280  -78.0619   -3.8970 H         1 G9L         0.0269
     34 H8        -31.3582  -75.8600   -4.4095 H         1 G9L         0.0317
     35 H9        -29.6481  -75.4813   -4.0113 H         1 G9L         0.0317
     36 H10       -31.2990  -77.3878   -0.9853 H         1 G9L         0.0317
     37 H11       -31.6288  -78.8800   -1.9292 H         1 G9L         0.0317
     38 H12       -33.6234  -75.3361   -0.0605 H         1 G9L         0.0556
     39 H13       -34.8652  -75.9740   -1.1909 H         1 G9L         0.0556
     40 H14       -37.4583  -71.6811    2.4755 H         1 G9L         0.0438
     41 H15       -35.6791  -71.6899    2.2286 H         1 G9L         0.0438
     42 H16       -30.0769  -75.2359   -2.2368 H         1 G9L         0.0814
     43 H17       -31.0476  -74.3254   -3.4433 H         1 G9L         0.0814
     44 H18       -32.5953  -77.8835   -3.1860 H         1 G9L         0.0814
     45 H19       -33.0690  -77.7586   -1.4578 H         1 G9L         0.0814
     46 H20       -33.8848  -74.8596   -3.0419 H         1 G9L         0.0840
     47 H21       -32.8042  -73.8967   -1.9781 H         1 G9L         0.0840
     48 H22       -37.8329  -73.1296    0.7464 H         1 G9L         0.0546
     49 H23       -36.5457  -72.0305    0.1450 H         1 G9L         0.0546
     50 H24       -34.9379  -75.5307    1.4455 H         1 G9L         0.0663
     51 H25       -36.7078  -75.7584    1.2398 H         1 G9L         0.0663
@<TRIPOS>BOND
     1    1   15 1  
     2    1   16 1  
     3   17    1 1  
     4    2   18 1  
     5   19    2 1  
     6    2   20 am 
     7   22    3 ar 
     8    3   24 ar 
     9   20    4 2  
    10   24    5 1  
    11   21    6 1  
    12    8    7 ar 
    13    7   21 ar 
    14   25    8 ar 
    15   21    9 ar 
    16    9   26 ar 
    17   11   10 1  
    18   12   10 1  
    19   15   11 1  
    20   16   12 1  
    21   13   17 1  
    22   20   13 1  
    23   14   18 1  
    24   22   14 1  
    25   23   19 1  
    26   23   22 ar 
    27   23   25 ar 
    28   24   26 ar 
    29   25   26 ar 
    30    1   27 1  
    31    5   28 1  
    32    7   29 1  
    33    8   30 1  
    34    9   31 1  
    35   10   32 1  
    36   10   33 1  
    37   11   34 1  
    38   11   35 1  
    39   12   36 1  
    40   12   37 1  
    41   13   38 1  
    42   13   39 1  
    43   14   40 1  
    44   14   41 1  
    45   15   42 1  
    46   15   43 1  
    47   16   44 1  
    48   16   45 1  
    49   17   46 1  
    50   17   47 1  
    51   18   48 1  
    52   18   49 1  
    53   19   50 1  
    54   19   51 1  
@<TRIPOS>SUBSTRUCTURE
     1 G9L         1

