### 
### Created by X-TOOL on Mon Sep 10 21:13:15 2018
### 

@<TRIPOS>MOLECULE
4fxy_ligand
   71    76     1     0     0
SMALL
GAST_HUCK


@<TRIPOS>ATOM
      1 C5         48.5810    4.5140   45.6940 C.3       1 0W2         0.1304
      2 C6         46.3990    5.6120   45.8890 C.2       1 0W2         0.2599
      3 N1         47.5030    1.4950   43.5350 N.pl3     1 0W2        -0.1912
      4 C2         47.3970    3.1200   41.7860 C.3       1 0W2         0.0044
      5 N3         47.5340    5.1830   46.4490 N.am      1 0W2        -0.2521
      6 C4         48.1070    3.0960   45.3510 C.2       1 0W2         0.2242
      7 C11        48.3930    0.4660   43.4850 C.ar      1 0W2         0.1009
      8 C12        47.8980   -0.8420   43.7120 C.ar      1 0W2         0.1505
      9 C13        48.7370   -1.9600   43.6780 C.ar      1 0W2        -0.0398
     10 C14        50.1110   -1.7930   43.4100 C.ar      1 0W2        -0.0770
     11 C15        50.6340   -0.4990   43.1810 C.ar      1 0W2        -0.0776
     12 C16        49.7910    0.6160   43.2180 C.ar      1 0W2        -0.0435
     13 C31        44.1440    6.7050   46.1710 C.3       1 0W2         0.0480
     14 N4         45.4410    6.2200   46.6590 N.am      1 0W2        -0.2695
     15 O1         46.1840    5.4730   44.6880 O.2       1 0W2        -0.4007
     16 C66        49.9040    4.4780   46.4940 C.3       1 0W2        -0.0246
     17 O2         47.7590    2.3420   46.2530 O.2       1 0W2        -0.3924
     18 N2         47.9480    2.7470   44.0400 N.am      1 0W2        -0.1693
     19 F1         46.6090   -1.0490   43.9680 F         1 0W2        -0.1927
     20 C1         46.6750    1.8620   42.3600 C.3       1 0W2         0.0977
     21 C21        45.2060    2.0730   42.7630 C.ar      1 0W2        -0.0023
     22 C26        44.8190    2.2120   44.1280 C.ar      1 0W2        -0.0575
     23 C25        43.5050    2.3990   44.5040 C.ar      1 0W2        -0.0683
     24 C24        42.4750    2.4610   43.5520 C.ar      1 0W2        -0.0682
     25 C23        42.8030    2.3290   42.1810 C.ar      1 0W2        -0.0545
     26 C22        44.1570    2.1370   41.8060 C.ar      1 0W2         0.0434
     27 CL1        44.4460    1.9840   40.0960 Cl        1 0W2        -0.0771
     28 C3         48.1000    3.7440   42.9590 C.3       1 0W2         0.0625
     29 C36        43.7760    8.0940   46.7600 C.3       1 0W2        -0.0174
     30 C37        43.6750    8.0120   48.3130 C.3       1 0W2        -0.0453
     31 C38        42.5770    6.9840   48.7360 C.3       1 0W2        -0.0401
     32 C40        42.9300    5.5920   48.1480 C.3       1 0W2        -0.0453
     33 C32        43.0190    5.6560   46.5730 C.3       1 0W2        -0.0174
     34 C33        41.6350    6.1320   46.0270 C.3       1 0W2        -0.0453
     35 C34        41.2860    7.5280   46.5830 C.3       1 0W2        -0.0401
     36 C39        41.1960    7.4420   48.1520 C.3       1 0W2        -0.0473
     37 C35        42.4010    8.5360   46.1860 C.3       1 0W2        -0.0453
     38 H          48.7551    5.0672   44.7593 H         1 0W2         0.0795
     39 H          46.6662    3.8215   41.3572 H         1 0W2         0.0331
     40 H          48.1228    2.8283   41.0126 H         1 0W2         0.0331
     41 H          47.6689    5.3283   47.4291 H         1 0W2         0.1877
     42 H          48.3331   -2.9499   43.8568 H         1 0W2         0.0568
     43 H          50.7663   -2.6560   43.3795 H         1 0W2         0.0495
     44 H          51.6908   -0.3713   42.9763 H         1 0W2         0.0549
     45 H          50.2006    1.6042   43.0426 H         1 0W2         0.0503
     46 H          44.1888    6.7885   45.0751 H         1 0W2         0.0558
     47 H          45.6419    6.3429   47.6309 H         1 0W2         0.1848
     48 H          50.6772    3.9676   45.9010 H         1 0W2         0.0276
     49 H          49.7473    3.9347   47.4375 H         1 0W2         0.0276
     50 H          50.2285    5.5061   46.7124 H         1 0W2         0.0276
     51 H          46.7040    1.0563   41.6117 H         1 0W2         0.0738
     52 H          45.5827    2.1693   44.8961 H         1 0W2         0.0557
     53 H          43.2628    2.5001   45.5558 H         1 0W2         0.0601
     54 H          41.4464    2.6074   43.8613 H         1 0W2         0.0559
     55 H          42.0269    2.3743   41.4256 H         1 0W2         0.0605
     56 H          47.6262    4.6970   43.2369 H         1 0W2         0.0548
     57 H          49.1626    3.9153   42.7319 H         1 0W2         0.0548
     58 H          44.5476    8.8267   46.4812 H         1 0W2         0.0323
     59 H          43.4153    9.0037   48.7118 H         1 0W2         0.0271
     60 H          44.6452    7.6945   48.7227 H         1 0W2         0.0271
     61 H          42.5209    6.9255   49.8330 H         1 0W2         0.0301
     62 H          42.1513    4.8705   48.4363 H         1 0W2         0.0271
     63 H          43.8999    5.2654   48.5512 H         1 0W2         0.0271
     64 H          43.2656    4.6651   46.1641 H         1 0W2         0.0323
     65 H          40.8588    5.4156   46.3342 H         1 0W2         0.0271
     66 H          41.6760    6.1797   44.9288 H         1 0W2         0.0271
     67 H          40.3217    7.8618   46.1723 H         1 0W2         0.0301
     68 H          40.9371    8.4309   48.5581 H         1 0W2         0.0271
     69 H          40.4203    6.7150   48.4344 H         1 0W2         0.0271
     70 H          42.4676    8.5862   45.0892 H         1 0W2         0.0271
     71 H          42.1469    9.5296   46.5838 H         1 0W2         0.0271
@<TRIPOS>BOND
     1    1    5 1  
     2    6    1 1  
     3    1   16 1  
     4    5    2 am 
     5    2   14 am 
     6    2   15 2  
     7    3    7 1  
     8   18    3 1  
     9    3   20 1  
    10   20    4 1  
    11    4   28 1  
    12    6   17 2  
    13    6   18 am 
    14    7    8 ar 
    15    7   12 ar 
    16    8    9 ar 
    17    8   19 1  
    18    9   10 ar 
    19   10   11 ar 
    20   11   12 ar 
    21   14   13 1  
    22   13   29 1  
    23   13   33 1  
    24   18   28 1  
    25   20   21 1  
    26   21   22 ar 
    27   21   26 ar 
    28   22   23 ar 
    29   23   24 ar 
    30   24   25 ar 
    31   25   26 ar 
    32   26   27 1  
    33   29   30 1  
    34   29   37 1  
    35   30   31 1  
    36   31   32 1  
    37   31   36 1  
    38   32   33 1  
    39   33   34 1  
    40   34   35 1  
    41   35   36 1  
    42   35   37 1  
    43    1   38 1  
    44    4   39 1  
    45    4   40 1  
    46    5   41 1  
    47    9   42 1  
    48   10   43 1  
    49   11   44 1  
    50   12   45 1  
    51   13   46 1  
    52   14   47 1  
    53   16   48 1  
    54   16   49 1  
    55   16   50 1  
    56   20   51 1  
    57   22   52 1  
    58   23   53 1  
    59   24   54 1  
    60   25   55 1  
    61   28   56 1  
    62   28   57 1  
    63   29   58 1  
    64   30   59 1  
    65   30   60 1  
    66   31   61 1  
    67   32   62 1  
    68   32   63 1  
    69   33   64 1  
    70   34   65 1  
    71   34   66 1  
    72   35   67 1  
    73   36   68 1  
    74   36   69 1  
    75   37   70 1  
    76   37   71 1  
@<TRIPOS>SUBSTRUCTURE
     1 0W2         1

