### 
### Created by X-TOOL on Mon Sep 10 21:13:11 2018
### 

@<TRIPOS>MOLECULE
4fxz_ligand
   22    21     1     0     0
SMALL
GAST_HUCK


@<TRIPOS>ATOM
      1 N          39.3920   -6.2140   16.1260 N.4       1 LEU         0.2327
      2 CA         40.6380   -6.9590   16.2500 C.3       1 LEU         0.0286
      3 C          40.6160   -8.2120   15.3810 C.2       1 LEU         0.0844
      4 O          39.6490   -8.4630   14.6600 O.co2     1 LEU        -0.5643
      5 CB         40.8950   -7.3360   17.7100 C.3       1 LEU         0.0047
      6 CG         40.9830   -6.1720   18.6990 C.3       1 LEU        -0.0400
      7 CD1        41.2230   -6.6830   20.1100 C.3       1 LEU        -0.0624
      8 CD2        42.0760   -5.2010   18.2860 C.3       1 LEU        -0.0624
      9 OXT        41.5650   -8.9960   15.3780 O.co2     1 LEU        -0.5643
     10 H          39.2380   -5.9719   15.1472 H         1 LEU         0.2010
     11 H          38.6188   -6.7887   16.4611 H         1 LEU         0.2010
     12 H          39.4500   -5.3616   16.6833 H         1 LEU         0.2010
     13 H          41.4477   -6.3164   15.9043 H         1 LEU         0.1024
     14 H          41.8665   -7.8297   17.7317 H         1 LEU         0.0341
     15 H          40.0439   -7.9402   18.0240 H         1 LEU         0.0341
     16 H          40.0314   -5.6405   18.6872 H         1 LEU         0.0298
     17 H          42.1841   -7.1955   20.1509 H         1 LEU         0.0232
     18 H          41.2284   -5.8421   20.8036 H         1 LEU         0.0232
     19 H          40.4280   -7.3765   20.3840 H         1 LEU         0.0232
     20 H          42.0853   -4.3535   18.9713 H         1 LEU         0.0232
     21 H          43.0410   -5.7068   18.3186 H         1 LEU         0.0232
     22 H          41.8832   -4.8485   17.2728 H         1 LEU         0.0232
@<TRIPOS>BOND
     1    1    2 1  
     2    2    3 1  
     3    2    5 1  
     4    3    4 ar 
     5    3    9 ar 
     6    5    6 1  
     7    6    7 1  
     8    6    8 1  
     9    1   10 1  
    10    1   11 1  
    11    1   12 1  
    12    2   13 1  
    13    5   14 1  
    14    5   15 1  
    15    6   16 1  
    16    7   17 1  
    17    7   18 1  
    18    7   19 1  
    19    8   20 1  
    20    8   21 1  
    21    8   22 1  
@<TRIPOS>SUBSTRUCTURE
     1 LEU         1

