### 
### Created by X-TOOL on Mon Sep 10 21:13:15 2018
### 

@<TRIPOS>MOLECULE
4fyo_ligand
   60    64     1     0     0
SMALL
GAST_HUCK


@<TRIPOS>ATOM
      1 C1          2.5140    1.2780   13.2690 C.ar      1 0VF         0.1653
      2 N2          1.7520    0.3320   13.8200 N.ar      1 0VF        -0.2464
      3 N3          3.7800    1.4470   13.6160 N.ar      1 0VF        -0.2642
      4 C4          2.2070   -0.4830   14.7610 C.ar      1 0VF         0.1442
      5 C5          4.3080    0.6840   14.5330 C.ar      1 0VF         0.1151
      6 C6          3.5680   -0.3410   15.1800 C.ar      1 0VF         0.0976
      7 N7          2.0050    2.0970   12.2860 N.pl3     1 0VF        -0.2792
      8 N8          4.2650   -1.0310   16.1050 N.2       1 0VF        -0.2940
      9 S9          5.9110    0.6030   15.2680 S.3       1 0VF         0.0160
     10 C10        -1.8510    4.2110   11.3750 C.2       1 0VF         0.2068
     11 N11         1.4150   -1.4710   15.3430 N.pl3     1 0VF        -0.2631
     12 C12         5.5180   -0.7570   16.3650 C.2       1 0VF         0.0786
     13 N13        -0.5120    4.3600   11.4340 N.am      1 0VF        -0.2807
     14 C14        -5.1640    8.6610   12.8400 C.2       1 0VF         0.0654
     15 C15        -0.8420   -0.8760   14.4790 C.ar      1 0VF        -0.0174
     16 C16        -2.2110   -1.1710   14.4240 C.ar      1 0VF         0.1111
     17 C17         0.5590    2.2540   12.1730 C.3       1 0VF         0.0559
     18 C18        -2.7110    5.3450   11.7720 C.ar      1 0VF         0.0522
     19 C19         0.0250   -1.6830   15.2250 C.ar      1 0VF         0.0454
     20 C20        -4.3110    7.5080   12.4690 C.ar      1 0VF         0.0142
     21 C21         2.6750    3.3700   11.9740 C.3       1 0VF         0.0352
     22 C22         0.4040    3.2900   11.0390 C.3       1 0VF         0.0639
     23 C23        -2.7160   -2.2700   15.1270 C.ar      1 0VF         0.1081
     24 O24        -2.3540    3.1720   10.9880 O.2       1 0VF        -0.3837
     25 O25        -4.9780    9.7510   12.3360 O.co2     1 0VF        -0.5596
     26 C26         1.8250    3.8810   10.7850 C.3       1 0VF        -0.0073
     27 C27        -3.7320    5.1770   12.7150 C.ar      1 0VF        -0.0386
     28 C28        -2.4960    6.5980   11.1790 C.ar      1 0VF        -0.0386
     29 C29        -3.2890    7.6720   11.5260 C.ar      1 0VF        -0.0423
     30 C30        -4.5250    6.2550   13.0600 C.ar      1 0VF        -0.0423
     31 C31        -1.8500   -3.0770   15.8580 C.ar      1 0VF        -0.0500
     32 O32        -6.1550    8.5010   13.7340 O.co2     1 0VF        -0.5596
     33 C33        -0.4970   -2.7810   15.9060 C.ar      1 0VF        -0.0573
     34 O34        -3.1070   -0.4140   13.7190 O.3       1 0VF        -0.3275
     35 O35        -4.0570   -2.5450   15.0520 O.3       1 0VF        -0.3320
     36 C36        -2.4740    0.2920   12.6500 C.3       1 0VF         0.0567
     37 C37        -4.5980   -2.8210   16.3490 C.3       1 0VF         0.0545
     38 H1          1.9150   -2.1413   15.9443 H         1 0VF         0.2145
     39 H2          6.1731   -1.2452   17.0850 H         1 0VF         0.1203
     40 H3         -0.1341    5.2276   11.7573 H         1 0VF         0.1849
     41 H4         -0.4528   -0.0190   13.9414 H         1 0VF         0.0432
     42 H5          0.1285    2.6305   13.1126 H         1 0VF         0.0548
     43 H6          0.0786    1.3014   11.9053 H         1 0VF         0.0548
     44 H7          3.7231    3.2113   11.6801 H         1 0VF         0.0526
     45 H8          2.6341    4.0652   12.8255 H         1 0VF         0.0526
     46 H9          0.0254    2.8010   10.1293 H         1 0VF         0.0577
     47 H10         2.2327    3.5167    9.8305 H         1 0VF         0.0308
     48 H11         1.7926    4.9805   10.7742 H         1 0VF         0.0308
     49 H12        -3.8994    4.2081   13.1714 H         1 0VF         0.0675
     50 H13        -1.7059    6.7224   10.4473 H         1 0VF         0.0675
     51 H14        -3.1214    8.6409   11.0696 H         1 0VF         0.0662
     52 H15        -5.3160    6.1311   13.7908 H         1 0VF         0.0662
     53 H16        -2.2343   -3.9391   16.3911 H         1 0VF         0.0484
     54 H17         0.1667   -3.4145   16.4832 H         1 0VF         0.0420
     55 H18        -3.2242    0.8871   12.1087 H         1 0VF         0.0573
     56 H19        -2.0092   -0.4275   11.9599 H         1 0VF         0.0573
     57 H20        -1.7014    0.9600   13.0585 H         1 0VF         0.0573
     58 H21        -5.6727   -3.0377   16.2594 H         1 0VF         0.0569
     59 H22        -4.4534   -1.9465   17.0003 H         1 0VF         0.0569
     60 H23        -4.0835   -3.6908   16.7834 H         1 0VF         0.0569
@<TRIPOS>BOND
     1    1    2 ar 
     2    1    3 ar 
     3    7    1 1  
     4    2    4 ar 
     5    3    5 ar 
     6    4    6 ar 
     7    4   11 1  
     8    5    6 ar 
     9    5    9 1  
    10    6    8 1  
    11   17    7 1  
    12   21    7 1  
    13   12    8 2  
    14    9   12 1  
    15   10   13 am 
    16   18   10 1  
    17   10   24 2  
    18   11   19 1  
    19   13   22 1  
    20   20   14 1  
    21   14   25 ar 
    22   14   32 ar 
    23   15   16 ar 
    24   19   15 ar 
    25   16   23 ar 
    26   16   34 1  
    27   22   17 1  
    28   27   18 ar 
    29   18   28 ar 
    30   19   33 ar 
    31   20   29 ar 
    32   30   20 ar 
    33   26   21 1  
    34   22   26 1  
    35   23   31 ar 
    36   23   35 1  
    37   27   30 ar 
    38   28   29 ar 
    39   31   33 ar 
    40   34   36 1  
    41   35   37 1  
    42   11   38 1  
    43   12   39 1  
    44   13   40 1  
    45   15   41 1  
    46   17   42 1  
    47   17   43 1  
    48   21   44 1  
    49   21   45 1  
    50   22   46 1  
    51   26   47 1  
    52   26   48 1  
    53   27   49 1  
    54   28   50 1  
    55   29   51 1  
    56   30   52 1  
    57   31   53 1  
    58   33   54 1  
    59   36   55 1  
    60   36   56 1  
    61   36   57 1  
    62   37   58 1  
    63   37   59 1  
    64   37   60 1  
@<TRIPOS>SUBSTRUCTURE
     1 0VF         1

