### 
### Created by X-TOOL on Mon Sep 10 21:13:09 2018
### 

@<TRIPOS>MOLECULE
4fys_ligand
  110   113     1     0     0
SMALL
GAST_HUCK


@<TRIPOS>ATOM
      1 N         110.1090   20.2790   21.9190 N.4       1 VAL         0.2381
      2 CA        109.6910   19.2860   20.8440 C.3       1 VAL         0.0673
      3 C         108.6920   19.9360   19.8990 C.2       1 VAL         0.2271
      4 O         107.9680   20.8730   20.2820 O.2       1 VAL        -0.3907
      5 CB        108.9260   18.0200   21.3850 C.3       1 VAL         0.0139
      6 CG1       109.8640   16.8990   21.7910 C.3       1 VAL        -0.0553
      7 CG2       107.9480   18.3690   22.5270 C.3       1 VAL        -0.0553
      8 N         108.6170   19.4050   18.6900 N.am      1 TYR        -0.2594
      9 CA        107.5280   19.7560   17.8010 C.3       1 TYR         0.1391
     10 C         106.4540   18.6890   17.9760 C.2       1 TYR         0.2057
     11 O         106.7470   17.5020   17.9530 O.2       1 TYR        -0.3942
     12 CB        107.9630   19.8220   16.3450 C.3       1 TYR         0.0164
     13 CG        106.8090   20.1890   15.4440 C.ar      1 TYR        -0.0493
     14 CD1       106.5550   21.5160   15.1100 C.ar      1 TYR        -0.0685
     15 CD2       105.9260   19.1990   14.9600 C.ar      1 TYR        -0.0685
     16 CE1       105.4750   21.8510   14.3010 C.ar      1 TYR        -0.0398
     17 CE2       104.8480   19.5330   14.1620 C.ar      1 TYR        -0.0398
     18 CZ        104.6360   20.8440   13.8300 C.ar      1 TYR         0.0805
     19 OH        103.5690   21.1450   13.0310 O.3       1 TYR        -0.3376
     20 N         105.2270   19.1310   18.1960 N.am      1 ILE        -0.2633
     21 CA        104.0770   18.2330   18.2520 C.3       1 ILE         0.1335
     22 C         103.0600   18.7250   17.2130 C.2       1 ILE         0.2043
     23 O         102.7190   19.9090   17.2190 O.2       1 ILE        -0.3944
     24 CB        103.4790   18.2590   19.6710 C.3       1 ILE        -0.0037
     25 CG1       104.3310   17.3840   20.5890 C.3       1 ILE        -0.0491
     26 CG2       102.0160   17.8040   19.6770 C.3       1 ILE        -0.0582
     27 CD1       104.1390   17.6990   22.0510 C.3       1 ILE        -0.0648
     28 N         102.5790   17.8590   16.3200 N.am      1 HIS        -0.2625
     29 CA        101.6030   18.3590   15.3410 C.3       1 HIS         0.1371
     30 C         100.2720   18.6920   15.9900 C.2       1 HIS         0.2079
     31 O          99.6720   17.8280   16.6380 O.2       1 HIS        -0.3940
     32 CB        101.3740   17.4620   14.1210 C.3       1 HIS         0.0145
     33 CG        100.4480   18.0850   13.1120 C.2       1 HIS        -0.0027
     34 ND1       100.7860   19.2120   12.3850 N.2       1 HIS        -0.3252
     35 CD2        99.1770   17.7780   12.7530 C.2       1 HIS         0.0291
     36 CE1        99.7760   19.5520   11.6030 C.2       1 HIS         0.0907
     37 NE2        98.7860   18.7000   11.8090 N.pl3     1 HIS        -0.2752
     38 N          99.8290   19.9580   15.8260 N.am      1 PRO        -0.2497
     39 CA         98.4980   20.4220   16.1720 C.3       1 PRO         0.1337
     40 C          97.4410   19.3240   16.0040 C.2       1 PRO         0.2037
     41 O          97.1830   18.8710   14.8880 O.2       1 PRO        -0.3944
     42 CB         98.2740   21.5490   15.1540 C.3       1 PRO        -0.0104
     43 CG         99.6190   22.1580   15.0030 C.3       1 PRO        -0.0281
     44 CD        100.6270   21.0550   15.2410 C.3       1 PRO         0.0369
     45 N          96.8750   18.8750   17.1200 N.am      1 PHE        -0.2677
     46 CA         95.7920   17.9030   17.0810 C.3       1 PHE         0.1039
     47 C          94.4590   18.6250   16.8890 C.2       1 PHE         0.0621
     48 O          94.1910   19.6610   17.5090 O.co2     1 PHE        -0.5664
     49 CB         95.7760   17.0410   18.3490 C.3       1 PHE         0.0159
     50 CG         94.7800   15.9080   18.3060 C.ar      1 PHE        -0.0392
     51 CD1        95.0160   14.7810   17.5130 C.ar      1 PHE        -0.0602
     52 CD2        93.6120   15.9620   19.0640 C.ar      1 PHE        -0.0602
     53 CE1        94.1000   13.7370   17.4720 C.ar      1 PHE        -0.0686
     54 CE2        92.6960   14.9190   19.0350 C.ar      1 PHE        -0.0686
     55 CZ         92.9380   13.8070   18.2430 C.ar      1 PHE        -0.0687
     56 OXT        93.6260   18.1840   16.0970 O.co2     1 PHE        -0.5664
     57 H1        110.5895   21.0549   21.4911 H         1 VAL         0.2015
     58 H2        110.7236   19.8242   22.5759 H         1 VAL         0.2015
     59 H3        109.2908   20.6156   22.4019 H         1 VAL         0.2015
     60 H4        110.5903   18.9676   20.2963 H         1 VAL         0.1101
     61 H5        108.3190   17.6399   20.5501 H         1 VAL         0.0376
     62 H6        109.2768   16.0448   22.1592 H         1 VAL         0.0236
     63 H7        110.5353   17.2529   22.5873 H         1 VAL         0.0236
     64 H8        110.4600   16.5863   20.9209 H         1 VAL         0.0236
     65 H9        107.2824   19.1829   22.2038 H         1 VAL         0.0236
     66 H10       108.5171   18.6903   23.4118 H         1 VAL         0.0236
     67 H11       107.3475   17.4826   22.7793 H         1 VAL         0.0236
     68 H12       109.3162   18.7572   18.3876 H         1 TYR         0.1886
     69 H13       107.1262   20.7379   18.0915 H         1 TYR         0.0821
     70 H14       108.3548   18.8395   16.0432 H         1 TYR         0.0453
     71 H15       108.7536   20.5797   16.2412 H         1 TYR         0.0453
     72 H16       107.2065   22.2971   15.4848 H         1 TYR         0.0530
     73 H17       106.0964   18.1602   15.2185 H         1 TYR         0.0530
     74 H18       105.2877   22.8861   14.0393 H         1 TYR         0.0525
     75 H19       104.1756   18.7627   13.8018 H         1 TYR         0.0525
     76 H20       103.5413   22.0827   12.8815 H         1 TYR         0.2458
     77 H21       105.0822   20.1116   18.3282 H         1 ILE         0.1883
     78 H22       104.3882   17.2066   18.0079 H         1 ILE         0.0803
     79 H23       103.5144   19.2934   20.0434 H         1 ILE         0.0345
     80 H24       105.3901   17.5364   20.3341 H         1 ILE         0.0267
     81 H25       104.0608   16.3313   20.4192 H         1 ILE         0.0267
     82 H26       101.4282   18.4506   19.0089 H         1 ILE         0.0235
     83 H27       101.6151   17.8718   20.6991 H         1 ILE         0.0235
     84 H28       101.9543   16.7629   19.3272 H         1 ILE         0.0235
     85 H29       104.7772   17.0377   22.6554 H         1 ILE         0.0230
     86 H30       103.0852   17.5420   22.3246 H         1 ILE         0.0230
     87 H31       104.4146   18.7471   22.2396 H         1 ILE         0.0230
     88 H32       102.8721   16.9029   16.3165 H         1 HIS         0.1885
     89 H33       102.0185   19.3022   14.9566 H         1 HIS         0.0817
     90 H34       100.9377   16.5108   14.4597 H         1 HIS         0.0420
     91 H35       102.3434   17.2694   13.6381 H         1 HIS         0.0420
     92 H36        98.5774   16.9552   13.1396 H         1 HIS         0.0729
     93 H37        99.7617   20.3903   10.9080 H         1 HIS         0.1199
     94 H38        97.8699   18.7227   11.3388 H         1 HIS         0.2361
     95 H39        98.4682   20.8024   17.2037 H         1 PRO         0.0802
     96 H40        97.5508   22.2847   15.5358 H         1 PRO         0.0313
     97 H41        97.9158   21.1462   14.1951 H         1 PRO         0.0313
     98 H42        99.7559   22.9619   15.7413 H         1 PRO         0.0287
     99 H43        99.7378   22.5673   13.9889 H         1 PRO         0.0287
    100 H44       101.0908   20.7391   14.2949 H         1 PRO         0.0524
    101 H45       101.4091   21.3850   15.9405 H         1 PRO         0.0524
    102 H46        97.1997   19.2117   18.0039 H         1 PHE         0.1877
    103 H47        95.9536   17.2389   16.2191 H         1 PHE         0.0749
    104 H48        95.5285   17.6873   19.2040 H         1 PHE         0.0467
    105 H49        96.7799   16.6143   18.4904 H         1 PHE         0.0467
    106 H50        95.9237   14.7210   16.9235 H         1 PHE         0.0557
    107 H51        93.4161   16.8292   19.6841 H         1 PHE         0.0557
    108 H52        94.2865   12.8728   16.8448 H         1 PHE         0.0599
    109 H53        91.7923   14.9740   19.6311 H         1 PHE         0.0599
    110 H54        92.2244   12.9912   18.2223 H         1 PHE         0.0559
@<TRIPOS>BOND
     1    1    2 1  
     2    2    3 1  
     3    2    5 1  
     4    3    4 2  
     5    3    8 am 
     6    5    6 1  
     7    5    7 1  
     8    8    9 1  
     9    9   10 1  
    10    9   12 1  
    11   10   11 2  
    12   10   20 am 
    13   12   13 1  
    14   13   14 ar 
    15   13   15 ar 
    16   14   16 ar 
    17   15   17 ar 
    18   16   18 ar 
    19   17   18 ar 
    20   18   19 1  
    21   20   21 1  
    22   21   22 1  
    23   21   24 1  
    24   22   23 2  
    25   22   28 am 
    26   24   25 1  
    27   24   26 1  
    28   25   27 1  
    29   28   29 1  
    30   29   30 1  
    31   29   32 1  
    32   30   31 2  
    33   30   38 am 
    34   32   33 1  
    35   33   34 1  
    36   33   35 2  
    37   34   36 2  
    38   35   37 1  
    39   36   37 1  
    40   38   39 1  
    41   38   44 1  
    42   39   40 1  
    43   39   42 1  
    44   40   41 2  
    45   40   45 am 
    46   42   43 1  
    47   43   44 1  
    48   45   46 1  
    49   46   47 1  
    50   46   49 1  
    51   47   48 ar 
    52   47   56 ar 
    53   49   50 1  
    54   50   51 ar 
    55   50   52 ar 
    56   51   53 ar 
    57   52   54 ar 
    58   53   55 ar 
    59   54   55 ar 
    60    1   57 1  
    61    1   58 1  
    62    1   59 1  
    63    2   60 1  
    64    5   61 1  
    65    6   62 1  
    66    6   63 1  
    67    6   64 1  
    68    7   65 1  
    69    7   66 1  
    70    7   67 1  
    71    8   68 1  
    72    9   69 1  
    73   12   70 1  
    74   12   71 1  
    75   14   72 1  
    76   15   73 1  
    77   16   74 1  
    78   17   75 1  
    79   19   76 1  
    80   20   77 1  
    81   21   78 1  
    82   24   79 1  
    83   25   80 1  
    84   25   81 1  
    85   26   82 1  
    86   26   83 1  
    87   26   84 1  
    88   27   85 1  
    89   27   86 1  
    90   27   87 1  
    91   28   88 1  
    92   29   89 1  
    93   32   90 1  
    94   32   91 1  
    95   35   92 1  
    96   36   93 1  
    97   37   94 1  
    98   39   95 1  
    99   42   96 1  
   100   42   97 1  
   101   43   98 1  
   102   43   99 1  
   103   44  100 1  
   104   44  101 1  
   105   45  102 1  
   106   46  103 1  
   107   49  104 1  
   108   49  105 1  
   109   51  106 1  
   110   52  107 1  
   111   53  108 1  
   112   54  109 1  
   113   55  110 1  
@<TRIPOS>SUBSTRUCTURE
     1 VAL         1

