### 
### Created by X-TOOL on Mon Sep 10 21:13:15 2018
### 

@<TRIPOS>MOLECULE
4fz3_ligand
  116   118     1     0     0
SMALL
GAST_HUCK


@<TRIPOS>ATOM
      1 C          18.8080  -38.0760   12.9110 C.2       1 ACE         0.1751
      2 O          20.0780  -38.3100   12.8530 O.2       1 ACE        -0.3972
      3 CH3        17.9960  -37.9640   14.1780 C.3       1 ACE         0.0258
      4 N          18.2130  -37.1550   12.0390 N.am      1 ARG        -0.2658
      5 CA         18.8520  -37.5940   10.8030 C.3       1 ARG         0.1310
      6 C          19.9530  -36.7010   10.3140 C.2       1 ARG         0.2040
      7 O          20.3460  -36.8570    9.1730 O.2       1 ARG        -0.3944
      8 CB         17.8670  -37.5190    9.6710 C.3       1 ARG        -0.0092
      9 CG         18.6280  -37.8570    8.3740 C.3       1 ARG        -0.0156
     10 CD         17.9370  -37.1650    7.0810 C.3       1 ARG         0.0627
     11 NE         18.3350  -38.1290    6.0740 N.pl3     1 ARG        -0.2723
     12 CZ         17.9290  -38.1720    4.8070 C.cat     1 ARG         0.2882
     13 NH1        17.1800  -37.2430    4.2680 N.pl3     1 ARG        -0.2849
     14 NH2        18.4510  -39.1460    4.0750 N.pl3     1 ARG        -0.2849
     15 N          20.4890  -35.7900   11.0830 N.am      1 HIS        -0.2625
     16 CA         21.1430  -34.6550   10.4620 C.3       1 HIS         0.1369
     17 C          22.2450  -35.1640    9.4620 C.2       1 HIS         0.2054
     18 O          23.2280  -35.7750    9.8760 O.2       1 HIS        -0.3942
     19 CB         21.6740  -33.7510   11.6180 C.3       1 HIS         0.0145
     20 CG         20.5800  -33.2010   12.5610 C.2       1 HIS        -0.0027
     21 ND1        19.6000  -32.3110   12.1450 N.2       1 HIS        -0.3252
     22 CD2        20.3670  -33.4090   13.8900 C.2       1 HIS         0.0291
     23 CE1        18.7790  -32.0310   13.1630 C.2       1 HIS         0.0907
     24 NE2        19.2410  -32.6750   14.2440 N.pl3     1 HIS        -0.2752
     25 N          22.0390  -35.0060    8.0760 N.am      1 LYS        -0.2636
     26 CA         22.9570  -35.5410    7.0430 C.3       1 LYS         0.1310
     27 C          23.1210  -34.4620    6.0470 C.2       1 LYS         0.2039
     28 O          22.1650  -33.7760    5.7340 O.2       1 LYS        -0.3944
     29 CB         22.3810  -36.7570    6.3030 C.3       1 LYS        -0.0122
     30 CG         22.8510  -38.1160    6.8390 C.3       1 LYS        -0.0440
     31 CD         22.2150  -39.2620    6.0350 C.3       1 LYS        -0.0124
     32 CE         22.4330  -40.6200    6.7010 C.3       1 LYS        -0.0354
     33 NZ         21.5530  -40.7480    7.8780 N.4       1 LYS         0.2185
     34 OH         29.2340  -28.9100    0.5980 O.2       1 ALY        -0.3974
     35 CH         29.9340  -29.8170    0.9380 C.2       1 ALY         0.1729
     36 CH3        31.4250  -29.6710    0.9020 C.3       1 ALY         0.0256
     37 NZ         29.4010  -30.9750    1.3000 N.am      1 ALY        -0.2872
     38 CE         27.9550  -31.1670    1.4120 C.3       1 ALY         0.0309
     39 CD         27.6230  -32.0980    2.5800 C.3       1 ALY        -0.0325
     40 CG         26.1070  -32.1520    2.8490 C.3       1 ALY        -0.0470
     41 CB         25.9000  -33.2840    3.8060 C.3       1 ALY        -0.0118
     42 CA         24.4190  -33.4920    4.1510 C.3       1 ALY         0.1373
     43 N          24.4030  -34.5720    5.1240 N.am      1 ALY        -0.2631
     44 C          23.6630  -34.0290    2.9290 C.2       1 ALY         0.2319
     45 O          23.9150  -35.1830    2.6280 O.2       1 ALY        -0.3808
     46 N          22.9120  -33.1710    2.0930 N.am      1 MCM        -0.2295
     47 CA         22.2490  -33.3380    0.9160 C.ar      1 MCM         0.0670
     48 C2         22.3670  -34.5700    0.2990 C.ar      1 MCM         0.0001
     49 C3         21.7270  -34.8040   -0.8960 C.ar      1 MCM         0.1301
     50 C4         21.2620  -36.3330   -2.6690 C.2       1 MCM         0.2426
     51 C5         20.4320  -35.4220   -3.3330 C.2       1 MCM         0.0039
     52 C6         20.2320  -34.1520   -2.7530 C.2       1 MCM        -0.0346
     53 C7         20.9160  -33.8310   -1.4720 C.ar      1 MCM         0.0189
     54 C8         20.7730  -32.5860   -0.8360 C.ar      1 MCM        -0.0630
     55 C9         21.4210  -32.3450    0.3680 C.ar      1 MCM        -0.0419
     56 C10        19.3520  -33.1110   -3.4040 C.3       1 MCM        -0.0261
     57 O1         21.9130  -36.0280   -1.4780 O.3       1 MCM        -0.2185
     58 O2         21.4960  -37.5620   -3.1570 O.2       1 MCM        -0.3892
     59 H1         16.9453  -37.7611   13.9234 H         1 ACE         0.0467
     60 H2         18.3892  -37.1419   14.7941 H         1 ACE         0.0467
     61 H3         18.0615  -38.9073   14.7401 H         1 ACE         0.0467
     62 H4         17.5539  -36.4228   12.2107 H         1 ARG         0.1882
     63 H5         19.2257  -38.6192   10.9418 H         1 ARG         0.0800
     64 H6         17.4455  -36.5051    9.6061 H         1 ARG         0.0313
     65 H7         17.0553  -38.2441    9.8303 H         1 ARG         0.0313
     66 H8         18.6316  -38.9483    8.2359 H         1 ARG         0.0301
     67 H9         19.6630  -37.4952    8.4624 H         1 ARG         0.0301
     68 H10        18.3465  -36.1641    6.8796 H         1 ARG         0.0689
     69 H11        16.8436  -37.1003    7.1818 H         1 ARG         0.0689
     70 H12        19.0014  -38.8565    6.3698 H         1 ARG         0.2642
     71 H13        16.8916  -37.3215    3.2823 H         1 ARG         0.2615
     72 H14        16.8793  -36.4337    4.8297 H         1 ARG         0.2615
     73 H15        19.0374  -39.8667    4.5196 H         1 ARG         0.2615
     74 H16        18.2702  -39.1822    3.0616 H         1 ARG         0.2615
     75 H17        20.4488  -35.8742   12.0786 H         1 HIS         0.1885
     76 H18        20.4049  -34.0793    9.8842 H         1 HIS         0.0817
     77 H19        22.2018  -32.8962   11.1699 H         1 HIS         0.0420
     78 H20        22.3793  -34.3429   12.2198 H         1 HIS         0.0420
     79 H21        20.9663  -34.0332   14.5512 H         1 HIS         0.0729
     80 H22        17.8957  -31.3954   13.1212 H         1 HIS         0.1199
     81 H23        18.8276  -32.6327   15.1865 H         1 HIS         0.2361
     82 H24        21.2282  -34.5050    7.7733 H         1 LYS         0.1883
     83 H25        23.9212  -35.8080    7.5003 H         1 LYS         0.0800
     84 H26        22.6753  -36.6855    5.2455 H         1 LYS         0.0312
     85 H27        21.2845  -36.7183    6.3819 H         1 LYS         0.0312
     86 H28        22.5584  -38.2092    7.8953 H         1 LYS         0.0269
     87 H29        23.9459  -38.1792    6.7548 H         1 LYS         0.0269
     88 H30        22.6640  -39.2830    5.0310 H         1 LYS         0.0317
     89 H31        21.1339  -39.0782    5.9495 H         1 LYS         0.0317
     90 H32        23.4825  -40.7062    7.0190 H         1 LYS         0.0813
     91 H33        22.2005  -41.4201    5.9829 H         1 LYS         0.0813
     92 H34        21.7015  -41.6453    8.3125 H         1 LYS         0.1994
     93 H35        20.5907  -40.6702    7.5881 H         1 LYS         0.1994
     94 H36        21.7655  -40.0160    8.5376 H         1 LYS         0.1994
     95 H37        31.8932  -30.6040    1.2488 H         1 ALY         0.0467
     96 H38        31.7283  -28.8424    1.5588 H         1 ALY         0.0467
     97 H39        31.7480  -29.4595   -0.1280 H         1 ALY         0.0467
     98 H40        30.0076  -31.7435    1.5035 H         1 ALY         0.1850
     99 H41        27.5758  -31.6089    0.4788 H         1 ALY         0.0520
    100 H42        27.4729  -30.1924    1.5786 H         1 ALY         0.0520
    101 H43        28.1331  -31.7329    3.4836 H         1 ALY         0.0285
    102 H44        27.9795  -33.1109    2.3416 H         1 ALY         0.0285
    103 H45        25.5588  -32.3369    1.9135 H         1 ALY         0.0268
    104 H46        25.7636  -31.2067    3.2946 H         1 ALY         0.0268
    105 H47        26.4522  -33.0692    4.7328 H         1 ALY         0.0313
    106 H48        26.2904  -34.2068    3.3521 H         1 ALY         0.0313
    107 H49        23.9597  -32.5699    4.5367 H         1 ALY         0.0806
    108 H50        25.1020  -35.2831    5.1997 H         1 ALY         0.1884
    109 H51        22.8555  -32.2361    2.4434 H         1 MCM         0.2293
    110 H52        22.9635  -35.3509    0.7568 H         1 MCM         0.0445
    111 H53        19.9526  -35.6873   -4.2741 H         1 MCM         0.0388
    112 H54        20.1575  -31.8148   -1.2849 H         1 MCM         0.0608
    113 H55        21.2890  -31.3989    0.8804 H         1 MCM         0.0462
    114 H56        18.9311  -33.5173   -4.3355 H         1 MCM         0.0431
    115 H57        19.9496  -32.2160   -3.6315 H         1 MCM         0.0431
    116 H58        18.5345  -32.8417   -2.7191 H         1 MCM         0.0431
@<TRIPOS>BOND
     1    1    2 2  
     2    1    3 1  
     3    4    1 am 
     4    5    4 1  
     5    6    5 1  
     6    5    8 1  
     7    6    7 2  
     8   15    6 am 
     9    8    9 1  
    10    9   10 1  
    11   10   11 1  
    12   11   12 ar 
    13   12   13 ar 
    14   12   14 ar 
    15   16   15 1  
    16   17   16 1  
    17   16   19 1  
    18   17   18 2  
    19   25   17 am 
    20   19   20 1  
    21   20   21 1  
    22   20   22 2  
    23   21   23 2  
    24   22   24 1  
    25   24   23 1  
    26   26   25 1  
    27   27   26 1  
    28   26   29 1  
    29   27   28 2  
    30   43   27 am 
    31   29   30 1  
    32   30   31 1  
    33   31   32 1  
    34   32   33 1  
    35   35   34 2  
    36   35   36 1  
    37   37   35 am 
    38   38   37 1  
    39   39   38 1  
    40   40   39 1  
    41   41   40 1  
    42   42   41 1  
    43   42   43 1  
    44   44   42 1  
    45   44   45 2  
    46   46   44 am 
    47   47   46 1  
    48   48   47 ar 
    49   47   55 ar 
    50   49   48 ar 
    51   49   53 ar 
    52   57   49 1  
    53   50   51 1  
    54   50   57 1  
    55   50   58 2  
    56   51   52 2  
    57   52   53 1  
    58   52   56 1  
    59   53   54 ar 
    60   54   55 ar 
    61    3   59 1  
    62    3   60 1  
    63    3   61 1  
    64    4   62 1  
    65    5   63 1  
    66    8   64 1  
    67    8   65 1  
    68    9   66 1  
    69    9   67 1  
    70   10   68 1  
    71   10   69 1  
    72   11   70 1  
    73   13   71 1  
    74   13   72 1  
    75   14   73 1  
    76   14   74 1  
    77   15   75 1  
    78   16   76 1  
    79   19   77 1  
    80   19   78 1  
    81   22   79 1  
    82   23   80 1  
    83   24   81 1  
    84   25   82 1  
    85   26   83 1  
    86   29   84 1  
    87   29   85 1  
    88   30   86 1  
    89   30   87 1  
    90   31   88 1  
    91   31   89 1  
    92   32   90 1  
    93   32   91 1  
    94   33   92 1  
    95   33   93 1  
    96   33   94 1  
    97   36   95 1  
    98   36   96 1  
    99   36   97 1  
   100   37   98 1  
   101   38   99 1  
   102   38  100 1  
   103   39  101 1  
   104   39  102 1  
   105   40  103 1  
   106   40  104 1  
   107   41  105 1  
   108   41  106 1  
   109   42  107 1  
   110   43  108 1  
   111   46  109 1  
   112   48  110 1  
   113   51  111 1  
   114   54  112 1  
   115   55  113 1  
   116   56  114 1  
   117   56  115 1  
   118   56  116 1  
@<TRIPOS>SUBSTRUCTURE
     1 ACE         1

