### 
### Created by X-TOOL on Mon Sep 10 21:13:15 2018
### 

@<TRIPOS>MOLECULE
4fz6_ligand
   50    54     1     0     0
SMALL
GAST_HUCK


@<TRIPOS>ATOM
      1 C1          3.7540   -0.6480   15.3380 C.2       1 0VG         0.1966
      2 N2          4.6620    0.2190   14.7740 N.pl3     1 0VG        -0.1470
      3 C3          2.4300   -0.7110   14.8520 C.2       1 0VG         0.1301
      4 N4          4.2770    1.0560   13.7370 N.2       1 0VG        -0.1673
      5 C5          2.0830    0.1350   13.8210 C.2       1 0VG        -0.0053
      6 C6          3.0430    1.0310   13.2760 C.2       1 0VG         0.0696
      7 N7         -0.4690   -1.2080   14.3360 N.ar      1 0VG        -0.2678
      8 C8         -1.7500   -1.4580   14.0720 C.ar      1 0VG         0.0994
      9 N9         -2.4270   -0.6880   13.1160 N.pl3     1 0VG        -0.2942
     10 N10         4.3660   -1.3020   16.3080 N.2       1 0VG        -0.3304
     11 N11         1.5730   -1.6270   15.4910 N.pl3     1 0VG        -0.2513
     12 C12         0.2330   -1.9030   15.2240 C.ar      1 0VG         0.1194
     13 C13         5.8380    0.0780   15.4390 C.2       1 0VG         0.0683
     14 C14         5.6260   -0.8680   16.3840 C.2       1 0VG        -0.0243
     15 C15         2.7290    1.9970   12.1840 C.ar      1 0VG         0.0003
     16 C16        -1.7790    0.4830   12.4640 C.3       1 0VG         0.0379
     17 C17        -3.9110   -0.5490   13.0740 C.3       1 0VG         0.0299
     18 C18        -2.4130   -2.4890   14.7470 C.ar      1 0VG        -0.0295
     19 C19        -0.3770   -2.9450   15.9280 C.ar      1 0VG        -0.0254
     20 C20        -1.7160   -3.2430   15.6870 C.ar      1 0VG        -0.0650
     21 C21        -4.1780    0.4900   11.9680 C.3       1 0VG        -0.0307
     22 C22        -2.9360    1.4040   12.0080 C.3       1 0VG        -0.0284
     23 C23         3.7140    2.3520   11.2440 C.ar      1 0VG        -0.0504
     24 C24         1.4720    2.6090   12.1320 C.ar      1 0VG        -0.0504
     25 C25        -0.9450    0.0220   11.2610 C.3       1 0VG        -0.0420
     26 C26         3.4310    3.2760   10.2490 C.ar      1 0VG        -0.0592
     27 C27         1.1960    3.5280   11.1290 C.ar      1 0VG        -0.0592
     28 C28         2.1710    3.8590   10.1960 C.ar      1 0VG        -0.0600
     29 H1          1.0698    0.1172   13.4223 H         1 0VG         0.0504
     30 H2          1.9935   -2.1669   16.2608 H         1 0VG         0.2182
     31 H3          6.7649    0.6174   15.2500 H         1 0VG         0.0842
     32 H4          6.3696   -1.2209   17.0970 H         1 0VG         0.0502
     33 H5         -1.1303    1.0104   13.1788 H         1 0VG         0.0553
     34 H6         -4.2943   -0.1923   14.0414 H         1 0VG         0.0520
     35 H7         -4.3833   -1.5106   12.8244 H         1 0VG         0.0520
     36 H8         -3.4564   -2.6980   14.5405 H         1 0VG         0.0505
     37 H9          0.1875   -3.5166   16.6557 H         1 0VG         0.0512
     38 H10        -2.2068   -4.0479   16.2220 H         1 0VG         0.0663
     39 H11        -5.0923    1.0630   12.1820 H         1 0VG         0.0285
     40 H12        -4.2726    0.0015   10.9870 H         1 0VG         0.0285
     41 H13        -2.7295    1.8202   11.0110 H         1 0VG         0.0288
     42 H14        -3.0827    2.2252   12.7250 H         1 0VG         0.0288
     43 H15         4.6984    1.9013   11.2977 H         1 0VG         0.0641
     44 H16         0.7173    2.3667   12.8714 H         1 0VG         0.0641
     45 H17        -0.4713    0.8945   10.7874 H         1 0VG         0.0252
     46 H18        -1.5985   -0.4807   10.5328 H         1 0VG         0.0252
     47 H19        -0.1675   -0.6781   11.6005 H         1 0VG         0.0252
     48 H20         4.1868    3.5411    9.5186 H         1 0VG         0.0622
     49 H21         0.2165    3.9890   11.0734 H         1 0VG         0.0622
     50 H22         1.9461    4.5799    9.4183 H         1 0VG         0.0632
@<TRIPOS>BOND
     1    1    2 1  
     2    3    1 1  
     3    1   10 2  
     4    2    4 1  
     5    2   13 1  
     6    3    5 2  
     7   11    3 1  
     8    6    4 2  
     9    5    6 1  
    10    6   15 1  
    11    7    8 ar 
    12   12    7 ar 
    13    8    9 1  
    14    8   18 ar 
    15    9   16 1  
    16    9   17 1  
    17   10   14 1  
    18   11   12 1  
    19   12   19 ar 
    20   13   14 2  
    21   15   23 ar 
    22   15   24 ar 
    23   16   22 1  
    24   16   25 1  
    25   17   21 1  
    26   18   20 ar 
    27   19   20 ar 
    28   21   22 1  
    29   23   26 ar 
    30   24   27 ar 
    31   26   28 ar 
    32   27   28 ar 
    33    5   29 1  
    34   11   30 1  
    35   13   31 1  
    36   14   32 1  
    37   16   33 1  
    38   17   34 1  
    39   17   35 1  
    40   18   36 1  
    41   19   37 1  
    42   20   38 1  
    43   21   39 1  
    44   21   40 1  
    45   22   41 1  
    46   22   42 1  
    47   23   43 1  
    48   24   44 1  
    49   25   45 1  
    50   25   46 1  
    51   25   47 1  
    52   26   48 1  
    53   27   49 1  
    54   28   50 1  
@<TRIPOS>SUBSTRUCTURE
     1 0VG         1

