### 
### Created by X-TOOL on Mon Sep 10 21:13:11 2018
### 

@<TRIPOS>MOLECULE
4fzc_ligand
   86    86     1     0     0
SMALL
GAST_HUCK


@<TRIPOS>ATOM
      1 O1         58.9450 -134.3180   36.6260 O.2       1 0W5        -0.3997
      2 C2         59.1590 -134.3730   35.4160 C.2       1 0W5         0.1801
      3 C27        57.9880 -134.1370   34.5320 C.2       1 0W5        -0.0067
      4 C28        56.7430 -133.8450   34.9890 C.2       1 0W5        -0.0636
      5 C29        55.5940 -133.6910   34.0820 C.2       1 0W5        -0.0592
      6 C30        54.3270 -133.3790   34.4180 C.2       1 0W5        -0.0617
      7 C31        53.3120 -133.3810   33.3080 C.3       1 0W5        -0.0138
      8 C32        51.9910 -132.6150   33.4800 C.3       1 0W5        -0.0391
      9 C33        51.2240 -132.9500   32.1690 C.3       1 0W5        -0.0504
     10 C34        49.8010 -132.3660   31.9770 C.3       1 0W5        -0.0526
     11 C35        49.3080 -132.9350   30.6010 C.3       1 0W5        -0.0507
     12 C36        47.8800 -132.5350   30.1100 C.3       1 0W5        -0.0467
     13 C37        47.7130 -130.9910   29.9410 C.3       1 0W5        -0.0627
     14 C38        47.6000 -133.2350   28.7380 C.3       1 0W5        -0.0627
     15 N          60.4160 -134.6490   34.8590 N.am      1 THR        -0.2680
     16 CA         61.7040 -134.9280   35.6130 C.3       1 THR         0.1552
     17 C          61.5020 -134.9370   37.1480 C.2       1 THR         0.2063
     18 O          61.3660 -133.8760   37.7550 O.2       1 THR        -0.3943
     19 CB         62.8940 -133.9720   35.2560 C.3       1 THR         0.0922
     20 OG1        62.5850 -132.6680   35.7220 O.3       1 THR        -0.3874
     21 CG2        63.1630 -133.9040   33.7370 C.3       1 THR        -0.0346
     22 N          61.4590 -136.1500   37.7530 N.am      1 LYO        -0.2636
     23 CA         61.2470 -136.3030   39.1920 C.3       1 LYO         0.1332
     24 C          62.5320 -136.1300   39.9880 C.2       1 LYO         0.2020
     25 O          63.6170 -136.2480   39.4130 O.2       1 LYO        -0.3945
     26 CB         60.6840 -137.7290   39.5030 C.3       1 LYO         0.0137
     27 CG         59.4490 -137.7320   40.4470 C.3       1 LYO         0.0613
     28 OG         58.4130 -136.9920   39.7860 O.3       1 LYO        -0.3915
     29 CD         58.9710 -139.1770   40.7640 C.3       1 LYO        -0.0064
     30 CE         59.7150 -139.8280   41.9880 C.3       1 LYO         0.0332
     31 NZ         61.1040 -139.3760   42.1290 N.am      1 LYO        -0.2869
     32 N14        62.3860 -135.8740   41.3210 N.am      1 0W6        -0.2821
     33 C15        63.5210 -135.7150   42.2260 C.3       1 0W6         0.0413
     34 C16        63.6000 -134.2320   42.6710 C.3       1 0W6        -0.0419
     35 C17        63.3380 -136.6600   43.4550 C.3       1 0W6        -0.0132
     36 C18        63.0040 -138.1400   43.0820 C.3       1 0W6         0.0393
     37 C19        61.5380 -138.5130   43.1190 C.2       1 0W6         0.1760
     38 O20        60.8080 -138.0270   44.0040 O.2       1 0W6        -0.3971
     39 H          58.1371 -134.2021   33.4542 H         1 0W5         0.0513
     40 H          56.5898 -133.7208   36.0610 H         1 0W5         0.0698
     41 H          55.7898 -133.8466   33.0211 H         1 0W5         0.0470
     42 H          54.0510 -133.1369   35.4443 H         1 0W5         0.0851
     43 H          53.0132 -134.4248   33.2115 H         1 0W5         0.0499
     44 H          53.8123 -132.8820   32.4781 H         1 0W5         0.0499
     45 H          52.1374 -131.5445   33.6237 H         1 0W5         0.0298
     46 H          51.4451 -132.9074   34.3770 H         1 0W5         0.0298
     47 H          51.0891 -134.0315   32.1854 H         1 0W5         0.0268
     48 H          51.8221 -132.5139   31.3688 H         1 0W5         0.0268
     49 H          49.8085 -131.2760   31.9830 H         1 0W5         0.0265
     50 H          49.1355 -132.6499   32.7922 H         1 0W5         0.0265
     51 H          49.2763 -134.0168   30.7306 H         1 0W5         0.0268
     52 H          49.9935 -132.5277   29.8578 H         1 0W5         0.0268
     53 H          47.1680 -132.8581   30.8695 H         1 0W5         0.0295
     54 H          47.8876 -130.5010   30.8989 H         1 0W5         0.0232
     55 H          48.4335 -130.6269   29.2085 H         1 0W5         0.0232
     56 H          46.7019 -130.7716   29.5981 H         1 0W5         0.0232
     57 H          48.3440 -132.9137   28.0091 H         1 0W5         0.0232
     58 H          47.6570 -134.3161   28.8648 H         1 0W5         0.0232
     59 H          46.6047 -132.9609   28.3881 H         1 0W5         0.0232
     60 H          60.4708 -134.6639   33.8406 H         1 THR         0.1862
     61 H          61.9823 -135.9261   35.2746 H         1 THR         0.0824
     62 H          63.7908 -134.3667   35.7337 H         1 THR         0.0639
     63 H          62.4585 -132.6910   36.6733 H         1 THR         0.2101
     64 H          63.4094 -134.8996   33.3680 H         1 THR         0.0257
     65 H          62.2722 -133.5365   33.2276 H         1 THR         0.0257
     66 H          63.9967 -133.2281   33.5469 H         1 THR         0.0257
     67 H          61.5790 -136.9872   37.1829 H         1 LYO         0.1883
     68 H          60.5412 -135.5259   39.4856 H         1 LYO         0.0801
     69 H          61.4752 -138.2855   40.0054 H         1 LYO         0.0337
     70 H          60.3665 -138.1640   38.5553 H         1 LYO         0.0337
     71 H          59.7091 -137.2768   41.4026 H         1 LYO         0.0596
     72 H          57.6307 -136.9725   40.3420 H         1 LYO         0.2098
     73 H          59.1801 -139.7914   39.8883 H         1 LYO         0.0310
     74 H          57.9114 -139.1247   41.0140 H         1 LYO         0.0310
     75 H          59.7337 -140.9059   41.8273 H         1 LYO         0.0521
     76 H          59.1801 -139.5368   42.8920 H         1 LYO         0.0521
     77 H          61.7904 -139.7187   41.4568 H         1 LYO         0.1850
     78 H          61.4433 -135.7902   41.7013 H         1 0W6         0.1854
     79 H          64.4512 -135.9823   41.7247 H         1 0W6         0.0554
     80 H          63.7334 -133.5977   41.7947 H         1 0W6         0.0252
     81 H          62.6773 -133.9578   43.1825 H         1 0W6         0.0252
     82 H          64.4446 -134.1015   43.3476 H         1 0W6         0.0252
     83 H          62.4969 -136.2766   44.0326 H         1 0W6         0.0312
     84 H          64.2844 -136.6707   43.9957 H         1 0W6         0.0312
     85 H          63.4996 -138.7644   43.8254 H         1 0W6         0.0503
     86 H          63.3314 -138.2794   42.0517 H         1 0W6         0.0503
@<TRIPOS>BOND
     1    1    2 2  
     2    2    3 1  
     3    2   15 am 
     4    3    4 2  
     5    4    5 1  
     6    5    6 2  
     7    6    7 1  
     8    7    8 1  
     9    8    9 1  
    10    9   10 1  
    11   10   11 1  
    12   11   12 1  
    13   12   13 1  
    14   12   14 1  
    15   15   16 1  
    16   16   17 1  
    17   16   19 1  
    18   17   18 2  
    19   17   22 am 
    20   19   20 1  
    21   19   21 1  
    22   22   23 1  
    23   23   24 1  
    24   23   26 1  
    25   24   25 2  
    26   24   32 am 
    27   26   27 1  
    28   27   28 1  
    29   27   29 1  
    30   29   30 1  
    31   30   31 1  
    32   31   37 am 
    33   32   33 1  
    34   33   34 1  
    35   33   35 1  
    36   35   36 1  
    37   36   37 1  
    38   37   38 2  
    39    3   39 1  
    40    4   40 1  
    41    5   41 1  
    42    6   42 1  
    43    7   43 1  
    44    7   44 1  
    45    8   45 1  
    46    8   46 1  
    47    9   47 1  
    48    9   48 1  
    49   10   49 1  
    50   10   50 1  
    51   11   51 1  
    52   11   52 1  
    53   12   53 1  
    54   13   54 1  
    55   13   55 1  
    56   13   56 1  
    57   14   57 1  
    58   14   58 1  
    59   14   59 1  
    60   15   60 1  
    61   16   61 1  
    62   19   62 1  
    63   20   63 1  
    64   21   64 1  
    65   21   65 1  
    66   21   66 1  
    67   22   67 1  
    68   23   68 1  
    69   26   69 1  
    70   26   70 1  
    71   27   71 1  
    72   28   72 1  
    73   29   73 1  
    74   29   74 1  
    75   30   75 1  
    76   30   76 1  
    77   31   77 1  
    78   32   78 1  
    79   33   79 1  
    80   34   80 1  
    81   34   81 1  
    82   34   82 1  
    83   35   83 1  
    84   35   84 1  
    85   36   85 1  
    86   36   86 1  
@<TRIPOS>SUBSTRUCTURE
     1 0W5         1

