### 
### Created by X-TOOL on Mon Sep 10 21:13:10 2018
### 

@<TRIPOS>MOLECULE
4fzg_ligand
   83    83     1     0     0
SMALL
GAST_HUCK


@<TRIPOS>ATOM
      1 C          58.7260 -134.5790   35.3740 C.2       1 MH9         0.1801
      2 O          58.3840 -135.3340   36.2910 O.2       1 MH9        -0.3997
      3 C1         57.6460 -133.9070   34.6030 C.2       1 MH9        -0.0067
      4 C2         56.3220 -134.0450   34.8340 C.2       1 MH9        -0.0636
      5 C3         55.3170 -133.3650   33.9950 C.2       1 MH9        -0.0592
      6 C4         53.9800 -133.4270   34.1480 C.2       1 MH9        -0.0617
      7 C5         53.0960 -132.6930   33.1600 C.3       1 MH9        -0.0138
      8 C6         51.6120 -133.1300   33.1930 C.3       1 MH9        -0.0391
      9 C7         50.8250 -132.3580   32.0920 C.3       1 MH9        -0.0504
     10 C8         49.3150 -132.7310   32.0290 C.3       1 MH9        -0.0528
     11 C9         48.6320 -131.9540   30.8580 C.3       1 MH9        -0.0533
     12 C10        47.1110 -132.2630   30.6700 C.3       1 MH9        -0.0559
     13 C11        46.5460 -131.4590   29.4540 C.3       1 MH9        -0.0653
     14 N          60.0590 -134.3290   35.0350 N.am      1 THR        -0.2680
     15 CA         61.2470 -134.9280   35.7180 C.3       1 THR         0.1552
     16 C          61.0560 -134.9680   37.2510 C.2       1 THR         0.2063
     17 O          60.6980 -133.9480   37.8510 O.2       1 THR        -0.3943
     18 CB         62.5910 -134.1980   35.3940 C.3       1 THR         0.0922
     19 OG1        62.5310 -132.8930   35.9550 O.3       1 THR        -0.3874
     20 CG2        62.8420 -134.0920   33.8740 C.3       1 THR        -0.0346
     21 N          61.2710 -136.1600   37.8550 N.am      1 LYO        -0.2636
     22 CA         61.0990 -136.3570   39.2880 C.3       1 LYO         0.1332
     23 C          62.3890 -136.2010   40.0600 C.2       1 LYO         0.2020
     24 O          63.4700 -136.3180   39.4690 O.2       1 LYO        -0.3945
     25 CB         60.5710 -137.7960   39.5830 C.3       1 LYO         0.0137
     26 CG         59.3270 -137.8440   40.5050 C.3       1 LYO         0.0613
     27 OG         58.2860 -137.1230   39.8270 O.3       1 LYO        -0.3915
     28 CD         58.8880 -139.3060   40.8090 C.3       1 LYO        -0.0064
     29 CE         59.5910 -139.9340   42.0660 C.3       1 LYO         0.0332
     30 NZ         60.9640 -139.4570   42.2490 N.am      1 LYO        -0.2869
     31 N14        62.2500 -135.9630   41.3960 N.am      1 0W6        -0.2821
     32 C15        63.3810 -135.8220   42.2960 C.3       1 0W6         0.0413
     33 C16        63.5420 -134.3330   42.6560 C.3       1 0W6        -0.0419
     34 C17        63.1480 -136.7070   43.5720 C.3       1 0W6        -0.0132
     35 C18        62.8220 -138.1980   43.2470 C.3       1 0W6         0.0393
     36 C19        61.3580 -138.5890   43.2480 C.2       1 0W6         0.1760
     37 O20        60.5990 -138.1210   44.1080 O.2       1 0W6        -0.3971
     38 H          57.9468 -133.2507   33.7863 H         1 MH9         0.0513
     39 H          55.9885 -134.6736   35.6597 H         1 MH9         0.0698
     40 H          55.6918 -132.7545   33.1734 H         1 MH9         0.0470
     41 H          53.5416 -133.9953   34.9683 H         1 MH9         0.0851
     42 H          53.4750 -132.9144   32.1623 H         1 MH9         0.0499
     43 H          53.1265 -131.6359   33.4238 H         1 MH9         0.0499
     44 H          51.1867 -132.9059   34.1713 H         1 MH9         0.0298
     45 H          51.5425 -134.2020   33.0082 H         1 MH9         0.0298
     46 H          51.2668 -132.6190   31.1303 H         1 MH9         0.0268
     47 H          50.8900 -131.2957   32.3275 H         1 MH9         0.0268
     48 H          48.8358 -132.4621   32.9704 H         1 MH9         0.0265
     49 H          49.2133 -133.8031   31.8604 H         1 MH9         0.0265
     50 H          49.1339 -132.2582   29.9395 H         1 MH9         0.0265
     51 H          48.7141 -130.8923   31.0907 H         1 MH9         0.0265
     52 H          46.5727 -131.9725   31.5722 H         1 MH9         0.0263
     53 H          46.9828 -133.3294   30.4845 H         1 MH9         0.0263
     54 H          46.6754 -130.3918   29.6340 H         1 MH9         0.0230
     55 H          47.0841 -131.7441   28.5500 H         1 MH9         0.0230
     56 H          45.4860 -131.6825   29.3332 H         1 MH9         0.0230
     57 H          60.2351 -133.6880   34.2614 H         1 THR         0.1862
     58 H          61.3172 -135.9415   35.3229 H         1 THR         0.0824
     59 H          63.4123 -134.7752   35.8189 H         1 THR         0.0639
     60 H          62.4108 -132.9596   36.9051 H         1 THR         0.2101
     61 H          62.8858 -135.0925   33.4436 H         1 THR         0.0257
     62 H          62.0299 -133.5312   33.4112 H         1 THR         0.0257
     63 H          63.7868 -133.5777   33.6981 H         1 THR         0.0257
     64 H          61.5653 -136.9522   37.2838 H         1 LYO         0.1883
     65 H          60.3903 -135.5922   39.6058 H         1 LYO         0.0801
     66 H          61.3702 -138.3314   40.0956 H         1 LYO         0.0337
     67 H          60.2784 -138.2317   38.6277 H         1 LYO         0.0337
     68 H          59.5529 -137.3935   41.4715 H         1 LYO         0.0596
     69 H          57.4917 -137.1276   40.3661 H         1 LYO         0.2098
     70 H          59.1636 -139.9130   39.9466 H         1 LYO         0.0310
     71 H          57.8173 -139.2872   41.0122 H         1 LYO         0.0310
     72 H          59.6302 -141.0136   41.9209 H         1 LYO         0.0521
     73 H          59.0179 -139.6450   42.9470 H         1 LYO         0.0521
     74 H          61.6748 -139.7874   41.5963 H         1 LYO         0.1850
     75 H          61.3088 -135.8803   41.7804 H         1 0W6         0.1854
     76 H          64.2998 -136.1638   41.8195 H         1 0W6         0.0554
     77 H          63.7171 -133.7576   41.7470 H         1 0W6         0.0252
     78 H          62.6337 -133.9780   43.1429 H         1 0W6         0.0252
     79 H          64.3887 -134.2134   43.3320 H         1 0W6         0.0252
     80 H          62.2914 -136.2937   44.1045 H         1 0W6         0.0312
     81 H          64.0706 -136.6931   44.1523 H         1 0W6         0.0312
     82 H          63.2911 -138.7871   44.0351 H         1 0W6         0.0503
     83 H          63.1783 -138.3692   42.2312 H         1 0W6         0.0503
@<TRIPOS>BOND
     1    1    2 2  
     2    1    3 1  
     3    1   14 am 
     4    3    4 2  
     5    4    5 1  
     6    5    6 2  
     7    6    7 1  
     8    7    8 1  
     9    8    9 1  
    10    9   10 1  
    11   10   11 1  
    12   11   12 1  
    13   12   13 1  
    14   14   15 1  
    15   15   16 1  
    16   15   18 1  
    17   16   17 2  
    18   16   21 am 
    19   18   19 1  
    20   18   20 1  
    21   21   22 1  
    22   22   23 1  
    23   22   25 1  
    24   23   24 2  
    25   23   31 am 
    26   25   26 1  
    27   26   27 1  
    28   26   28 1  
    29   28   29 1  
    30   29   30 1  
    31   30   36 am 
    32   31   32 1  
    33   32   33 1  
    34   32   34 1  
    35   34   35 1  
    36   35   36 1  
    37   36   37 2  
    38    3   38 1  
    39    4   39 1  
    40    5   40 1  
    41    6   41 1  
    42    7   42 1  
    43    7   43 1  
    44    8   44 1  
    45    8   45 1  
    46    9   46 1  
    47    9   47 1  
    48   10   48 1  
    49   10   49 1  
    50   11   50 1  
    51   11   51 1  
    52   12   52 1  
    53   12   53 1  
    54   13   54 1  
    55   13   55 1  
    56   13   56 1  
    57   14   57 1  
    58   15   58 1  
    59   18   59 1  
    60   19   60 1  
    61   20   61 1  
    62   20   62 1  
    63   20   63 1  
    64   21   64 1  
    65   22   65 1  
    66   25   66 1  
    67   25   67 1  
    68   26   68 1  
    69   27   69 1  
    70   28   70 1  
    71   28   71 1  
    72   29   72 1  
    73   29   73 1  
    74   30   74 1  
    75   31   75 1  
    76   32   76 1  
    77   33   77 1  
    78   33   78 1  
    79   33   79 1  
    80   34   80 1  
    81   34   81 1  
    82   35   82 1  
    83   35   83 1  
@<TRIPOS>SUBSTRUCTURE
     1 MH9         1

