### 
### Created by X-TOOL on Mon Sep 10 21:13:13 2018
### 

@<TRIPOS>MOLECULE
4fzj_ligand
   20    21     1     0     0
SMALL
GAST_HUCK


@<TRIPOS>ATOM
      1 OAC        11.8720    4.2050  -15.5300 O.co2     1 0W1        -0.5660
      2 CAH        12.5200    3.3810  -14.8140 C.2       1 0W1         0.0598
      3 OAD        11.9180    2.3900  -14.3240 O.co2     1 0W1        -0.5660
      4 CAJ        13.8560    3.5350  -14.6120 C.2       1 0W1         0.0505
      5 CAE        14.6450    4.3700  -15.3170 C.2       1 0W1        -0.0655
      6 SAG        14.8420    2.6860  -13.3780 S.3       1 0W1        -0.0049
      7 CAL        16.3050    3.5390  -13.9710 C.2       1 0W1         0.1516
      8 CAK        15.9570    4.3910  -14.9900 C.2       1 0W1         0.0058
      9 CAI        17.1050    5.0100  -15.3640 C.2       1 0W1         0.0092
     10 CAA        17.2600    6.0600  -16.4800 C.3       1 0W1        -0.0278
     11 NAF        18.1290    4.6010  -14.6160 N.2       1 0W1        -0.2333
     12 NAM        17.6290    3.6810  -13.7440 N.pl3     1 0W1        -0.2034
     13 CAB        18.4680    2.9260  -12.7040 C.3       1 0W1         0.0555
     14 H1         14.2450    4.9977  -16.1119 H         1 0W1         0.0452
     15 H2         18.3122    6.3745  -16.5440 H         1 0W1         0.0381
     16 H3         16.6298    6.9324  -16.2527 H         1 0W1         0.0381
     17 H4         16.9489    5.6231  -17.4404 H         1 0W1         0.0381
     18 H5         19.5137    3.2623  -12.7624 H         1 0W1         0.0584
     19 H6         18.4183    1.8460  -12.9068 H         1 0W1         0.0584
     20 H7         18.0734    3.1286  -11.6974 H         1 0W1         0.0584
@<TRIPOS>BOND
     1    1    2 ar 
     2    2    3 ar 
     3    2    4 1  
     4    4    5 2  
     5    4    6 1  
     6    5    8 1  
     7    6    7 1  
     8    7    8 2  
     9    7   12 1  
    10    8    9 1  
    11    9   10 1  
    12    9   11 2  
    13   11   12 1  
    14   12   13 1  
    15    5   14 1  
    16   10   15 1  
    17   10   16 1  
    18   10   17 1  
    19   13   18 1  
    20   13   19 1  
    21   13   20 1  
@<TRIPOS>SUBSTRUCTURE
     1 0W1         1

