### 
### Created by X-TOOL on Mon Sep 10 21:13:12 2018
### 

@<TRIPOS>MOLECULE
4g0c_ligand
   19    19     1     0     0
SMALL
GAST_HUCK


@<TRIPOS>ATOM
      1 C1         -5.1110    2.1470   16.0550 C.2       1 AZM         0.2562
      2 C2         -4.5240    4.0650   14.7520 C.2       1 AZM         0.2252
      3 C3         -5.2850    5.8830   13.3520 C.2       1 AZM         0.2120
      4 C4         -4.8750    7.1140   12.3920 C.3       1 AZM         0.0337
      5 N1         -5.0080   -0.5080   16.3480 N.am      1 AZM        -0.2565
      6 N2         -3.5120    3.3460   15.2980 N.2       1 AZM        -0.2573
      7 N3         -3.7950    2.3970   15.9430 N.2       1 AZM        -0.2476
      8 N4         -4.3570    5.1240   13.9490 N.am      1 AZM        -0.1925
      9 O1         -5.5660    0.9360   18.4100 O.2       1 AZM        -0.1452
     10 O2         -7.3140    0.8490   16.6270 O.2       1 AZM        -0.1452
     11 O3         -6.4740    5.6200   13.4870 O.2       1 AZM        -0.3804
     12 S1         -5.8200    0.8340   16.9100 S.o2      1 AZM         0.0991
     13 S2         -5.9820    3.2970   15.2110 S.3       1 AZM         0.0874
     14 H          -5.2354    6.9208   11.3816 H         1 AZM         0.0474
     15 H          -5.3237    8.0327   12.7697 H         1 AZM         0.0474
     16 H          -3.7899    7.2169   12.3786 H         1 AZM         0.0474
     17 H          -4.4673   -1.0842   16.9930 H         1 AZM         0.1638
     18 H          -5.0516   -0.7534   15.3589 H         1 AZM         0.1638
     19 H          -3.3890    5.3891   13.7670 H         1 AZM         0.2411
@<TRIPOS>BOND
     1    1    7 2  
     2    1   12 1  
     3   13    1 1  
     4    2    6 2  
     5    8    2 1  
     6    2   13 1  
     7    3    4 1  
     8    3    8 am 
     9    3   11 2  
    10   12    5 am 
    11    6    7 1  
    12   12    9 2  
    13   12   10 2  
    14    4   14 1  
    15    4   15 1  
    16    4   16 1  
    17    5   17 1  
    18    5   18 1  
    19    8   19 1  
@<TRIPOS>SUBSTRUCTURE
     1 AZM         1

