### 
### Created by X-TOOL on Mon Sep 10 21:13:10 2018
### 

@<TRIPOS>MOLECULE
4g0k_ligand
   58    59     1     0     0
SMALL
GAST_HUCK


@<TRIPOS>ATOM
      1 C13       -63.2290   32.3510   30.3630 C.3       1 0VS         0.0192
      2 C15       -64.4530   32.5430   32.6820 C.2       1 0VS         0.0846
      3 C20       -58.4430   31.8920   28.6370 C.3       1 0VS         0.1058
      4 C22       -57.7580   33.5630   26.9010 C.3       1 0VS         0.0220
      5 C28       -59.1150   36.8250   31.2860 C.3       1 0VS        -0.0251
      6 O01       -58.8470   39.1630   30.1710 O.2       1 0VS        -0.3653
      7 C02       -57.8870   38.4140   29.9430 C.2       1 0VS         0.1616
      8 C03       -56.7550   38.8820   29.0720 C.ar      1 0VS         0.0493
      9 C04       -55.6710   37.9880   28.8400 C.ar      1 0VS         0.0501
     10 C05       -55.6230   36.5960   29.4390 C.2       1 0VS         0.1715
     11 C06       -56.7590   36.1070   30.3160 C.2       1 0VS         0.0833
     12 S07       -56.5820   34.4770   31.1840 S.3       1 0VS        -0.0946
     13 C08       -57.0400   32.8710   30.3850 C.3       1 0VS         0.0376
     14 C09       -58.5140   32.8380   29.8340 C.3       1 0VS         0.1214
     15 N10       -59.5100   32.5590   30.8840 N.am      1 0VS        -0.2750
     16 C11       -60.7730   33.2350   30.8940 C.2       1 0VS         0.1768
     17 C12       -62.0280   32.4840   31.3630 C.3       1 0VS         0.0439
     18 C14       -64.5440   32.7360   31.0880 C.3       1 0VS         0.0304
     19 O16       -65.2800   33.1010   33.4680 O.co2     1 0VS        -0.5643
     20 O17       -63.9460   31.4310   32.9360 O.co2     1 0VS        -0.5643
     21 N18       -64.8670   34.1290   30.7490 N.4       1 0VS         0.2328
     22 O19       -60.8590   34.4100   30.5170 O.2       1 0VS        -0.3971
     23 N21       -57.7380   32.2480   27.5470 N.4       1 0VS         0.2623
     24 C23       -57.5120   33.3310   25.3440 C.2       1 0VS         0.0813
     25 O24       -58.0740   34.1330   24.5600 O.co2     1 0VS        -0.5645
     26 O25       -56.7460   32.3570   25.0390 O.co2     1 0VS        -0.5645
     27 O26       -58.2280   30.7010   28.9570 O.3       1 0VS        -0.3507
     28 C27       -57.8240   37.0310   30.5270 C.2       1 0VS         0.0327
     29 O29       -54.6350   35.8870   29.1850 O.2       1 0VS        -0.3644
     30 C30       -54.6150   38.4360   28.0250 C.ar      1 0VS        -0.0391
     31 C31       -54.6490   39.7310   27.4530 C.ar      1 0VS        -0.0524
     32 C32       -55.7130   40.6220   27.6790 C.ar      1 0VS        -0.0524
     33 C33       -56.7700   40.1870   28.4920 C.ar      1 0VS        -0.0392
     34 H1        -63.2967   31.3128   30.0059 H         1 0VS         0.0363
     35 H2        -63.0708   33.0236   29.5071 H         1 0VS         0.0363
     36 H3        -59.4800   31.8898   28.2702 H         1 0VS         0.1208
     37 H4        -56.9625   34.1987   27.3169 H         1 0VS         0.0989
     38 H5        -58.7337   34.0455   27.0599 H         1 0VS         0.0989
     39 H6        -59.7123   37.7480   31.2507 H         1 0VS         0.0389
     40 H7        -58.8889   36.5744   32.3329 H         1 0VS         0.0389
     41 H8        -59.6833   36.0028   30.8266 H         1 0VS         0.0389
     42 H9        -56.9291   32.0685   31.1291 H         1 0VS         0.0428
     43 H10       -56.3514   32.6912   29.5463 H         1 0VS         0.0428
     44 H11       -58.7627   33.8371   29.4469 H         1 0VS         0.0649
     45 H12       -59.3017   31.8901   31.5976 H         1 0VS         0.1857
     46 H13       -61.7157   31.4650   31.6350 H         1 0VS         0.0505
     47 H14       -62.4038   33.0033   32.2569 H         1 0VS         0.0505
     48 H15       -65.3487   32.0857   30.7146 H         1 0VS         0.1026
     49 H16       -65.7209   34.3982   31.2121 H         1 0VS         0.2010
     50 H17       -64.9848   34.2134   29.7515 H         1 0VS         0.2010
     51 H18       -64.1169   34.7309   31.0509 H         1 0VS         0.2010
     52 H19       -58.0142   31.5966   26.8291 H         1 0VS         0.2056
     53 H20       -56.7734   32.0886   27.7923 H         1 0VS         0.2056
     54 H21       -58.7397   30.4839   29.7274 H         1 0VS         0.2155
     55 H22       -53.7695   37.7852   27.8337 H         1 0VS         0.0681
     56 H23       -53.8274   40.0459   26.8198 H         1 0VS         0.0662
     57 H24       -55.7163   41.6128   27.2393 H         1 0VS         0.0662
     58 H25       -57.6074   40.8486   28.6821 H         1 0VS         0.0681
@<TRIPOS>BOND
     1   17    1 1  
     2    1   18 1  
     3   18    2 1  
     4    2   19 ar 
     5    2   20 ar 
     6   14    3 1  
     7    3   23 1  
     8    3   27 1  
     9   23    4 1  
    10    4   24 1  
    11   28    5 1  
    12    7    6 2  
    13    7    8 1  
    14   28    7 1  
    15    9    8 ar 
    16    8   33 ar 
    17   10    9 1  
    18    9   30 ar 
    19   11   10 1  
    20   10   29 2  
    21   12   11 1  
    22   11   28 2  
    23   13   12 1  
    24   14   13 1  
    25   15   14 1  
    26   16   15 am 
    27   16   17 1  
    28   16   22 2  
    29   18   21 1  
    30   24   25 ar 
    31   24   26 ar 
    32   30   31 ar 
    33   31   32 ar 
    34   32   33 ar 
    35    1   34 1  
    36    1   35 1  
    37    3   36 1  
    38    4   37 1  
    39    4   38 1  
    40    5   39 1  
    41    5   40 1  
    42    5   41 1  
    43   13   42 1  
    44   13   43 1  
    45   14   44 1  
    46   15   45 1  
    47   17   46 1  
    48   17   47 1  
    49   18   48 1  
    50   21   49 1  
    51   21   50 1  
    52   21   51 1  
    53   23   52 1  
    54   23   53 1  
    55   27   54 1  
    56   30   55 1  
    57   31   56 1  
    58   32   57 1  
    59   33   58 1  
@<TRIPOS>SUBSTRUCTURE
     1 0VS         1

