### 
### Created by X-TOOL on Mon Sep 10 21:13:09 2018
### 

@<TRIPOS>MOLECULE
4g0l_ligand
   36    35     1     0     0
SMALL
GAST_HUCK


@<TRIPOS>ATOM
      1 N1        -65.5350   34.5080   32.4700 N.4       1 GSH         0.2328
      2 CA1       -64.5430   33.6370   33.0700 C.3       1 GSH         0.0304
      3 C1        -65.0250   33.1830   34.4160 C.2       1 GSH         0.0846
      4 O11       -65.2190   34.0070   35.3360 O.co2     1 GSH        -0.5643
      5 O12       -65.2380   31.9700   34.6300 O.co2     1 GSH        -0.5643
      6 CB1       -63.2310   34.3960   33.2310 C.3       1 GSH         0.0193
      7 CG1       -62.0980   33.4530   33.6170 C.3       1 GSH         0.0441
      8 CD1       -60.8610   33.7990   32.8220 C.2       1 GSH         0.1785
      9 OE1       -60.8510   34.9190   31.9670 O.2       1 GSH        -0.3969
     10 N2        -59.8120   32.9970   32.9790 N.am      1 GSH        -0.2648
     11 CA2       -58.5460   33.2700   32.3270 C.3       1 GSH         0.1395
     12 C2        -58.4950   32.6790   30.9500 C.2       1 GSH         0.2039
     13 O2        -58.8770   31.3390   30.7310 O.2       1 GSH        -0.3944
     14 CB2       -57.3990   32.7120   33.1620 C.3       1 GSH         0.0311
     15 SG2       -56.7230   33.9320   34.3150 S.3       1 GSH        -0.1735
     16 N3        -58.0780   33.4810   29.9750 N.am      1 GSH        -0.2722
     17 CA3       -57.5820   32.9530   28.7190 C.3       1 GSH         0.0833
     18 C3        -57.6380   33.9870   27.6200 C.2       1 GSH         0.0570
     19 O31       -58.2330   35.0720   27.7990 O.co2     1 GSH        -0.5669
     20 O32       -57.0910   33.7710   26.5170 O.co2     1 GSH        -0.5669
     21 H1        -65.2112   34.8131   31.5655 H         1 GSH         0.2010
     22 H2        -65.6805   35.3101   33.0629 H         1 GSH         0.2010
     23 H3        -66.4029   34.0063   32.3644 H         1 GSH         0.2010
     24 H4        -64.3836   32.7619   32.4228 H         1 GSH         0.1026
     25 H5        -63.3495   35.1564   34.0169 H         1 GSH         0.0363
     26 H6        -62.9810   34.8880   32.2795 H         1 GSH         0.0363
     27 H7        -62.3944   32.4160   33.4008 H         1 GSH         0.0505
     28 H8        -61.8844   33.5570   34.6910 H         1 GSH         0.0505
     29 H9        -59.8982   32.1875   33.5597 H         1 GSH         0.1883
     30 H10       -58.4265   34.3603   32.2435 H         1 GSH         0.0808
     31 H11       -56.5965   32.3844   32.4847 H         1 GSH         0.0422
     32 H12       -57.7682   31.8500   33.7371 H         1 GSH         0.0422
     33 H13       -55.9708   33.5150   34.8408 H         1 GSH         0.1019
     34 H14       -58.1071   34.4713   30.1111 H         1 GSH         0.1873
     35 H15       -58.1969   32.0887   28.4275 H         1 GSH         0.0689
     36 H16       -56.5386   32.6319   28.8540 H         1 GSH         0.0689
@<TRIPOS>BOND
     1    1    2 1  
     2    2    3 1  
     3    2    6 1  
     4    3    4 ar 
     5    3    5 ar 
     6    6    7 1  
     7    7    8 1  
     8    8    9 2  
     9    8   10 am 
    10   10   11 1  
    11   11   12 1  
    12   11   14 1  
    13   12   13 2  
    14   12   16 am 
    15   14   15 1  
    16   16   17 1  
    17   17   18 1  
    18   18   19 ar 
    19   18   20 ar 
    20    1   21 1  
    21    1   22 1  
    22    1   23 1  
    23    2   24 1  
    24    6   25 1  
    25    6   26 1  
    26    7   27 1  
    27    7   28 1  
    28   10   29 1  
    29   11   30 1  
    30   14   31 1  
    31   14   32 1  
    32   15   33 1  
    33   16   34 1  
    34   17   35 1  
    35   17   36 1  
@<TRIPOS>SUBSTRUCTURE
     1 GSH         1

