### 
### Created by X-TOOL on Mon Sep 10 21:13:12 2018
### 

@<TRIPOS>MOLECULE
4g11_ligand
   41    43     1     0     0
SMALL
GAST_HUCK


@<TRIPOS>ATOM
      1 O17       -42.8510   16.4030  -34.5880 O.2       1 0W7        -0.3797
      2 C14       -43.6060   16.6460  -33.6580 C.2       1 0W7         0.2278
      3 N15       -44.9420   16.7010  -33.7450 N.am      1 0W7        -0.2311
      4 C16       -45.6640   16.4970  -34.9370 C.ar      1 0W7         0.0665
      5 C19       -47.0560   16.5830  -34.9220 C.ar      1 0W7        -0.0412
      6 C20       -47.7790   16.3860  -36.1000 C.ar      1 0W7        -0.0755
      7 C23       -45.0190   16.2100  -36.1420 C.ar      1 0W7        -0.0412
      8 C22       -45.7420   16.0110  -37.3160 C.ar      1 0W7        -0.0755
      9 C21       -47.1290   16.0960  -37.2970 C.ar      1 0W7        -0.0772
     10 C13       -43.0170   16.8810  -32.2890 C.3       1 0W7         0.1359
     11 C2        -42.7580   15.5110  -31.7050 C.2       1 0W7         0.1721
     12 N3        -41.5020   14.9970  -31.6720 N.am      1 0W7        -0.1993
     13 C4        -41.2820   13.7630  -31.1530 C.2       1 0W7         0.1812
     14 O18       -40.1310   13.2810  -31.1180 O.2       1 0W7        -0.4280
     15 C5        -42.3450   13.0180  -30.6600 C.2       1 0W7         0.0016
     16 N1        -43.8050   14.7940  -31.2310 N.2       1 0W7        -0.2709
     17 C6        -43.6290   13.5590  -30.7010 C.2       1 0W7         0.0773
     18 N7        -44.7290   12.8190  -30.2100 N.pl3     1 0W7        -0.2909
     19 C8        -45.9620   13.6270  -30.2540 C.3       1 0W7         0.0554
     20 C12       -44.4670   12.3310  -28.8410 C.3       1 0W7         0.0554
     21 C11       -45.6660   11.5410  -28.3230 C.3       1 0W7         0.0683
     22 O10       -46.8460   12.3460  -28.3970 O.3       1 0W7        -0.3757
     23 C9        -47.1380   12.8160  -29.7160 C.3       1 0W7         0.0683
     24 H         -45.4688   16.9031  -32.8953 H         1 0W7         0.2259
     25 H         -47.5789   16.8038  -33.9915 H         1 0W7         0.0502
     26 H         -48.8663   16.4601  -36.0826 H         1 0W7         0.0577
     27 H         -43.9314   16.1405  -36.1643 H         1 0W7         0.0502
     28 H         -45.2210   15.7891  -38.2474 H         1 0W7         0.0577
     29 H         -47.7026   15.9372  -38.2102 H         1 0W7         0.0487
     30 H         -43.6972   17.4556  -31.6603 H         1 0W7         0.0812
     31 H         -42.0980   17.4640  -32.3498 H         1 0W7         0.0812
     32 H         -40.7207   15.5406  -32.0388 H         1 0W7         0.2563
     33 H         -42.1777   12.0235  -30.2465 H         1 0W7         0.0161
     34 H         -46.1662   13.9132  -31.2857 H         1 0W7         0.0548
     35 H         -45.8293   14.5171  -29.6390 H         1 0W7         0.0548
     36 H         -44.2927   13.1845  -28.1858 H         1 0W7         0.0548
     37 H         -43.5918   11.6815  -28.8557 H         1 0W7         0.0548
     38 H         -45.4888   11.2562  -27.2859 H         1 0W7         0.0580
     39 H         -45.8002   10.6482  -28.9338 H         1 0W7         0.0580
     40 H         -47.3136   11.9620  -30.3702 H         1 0W7         0.0580
     41 H         -48.0247   13.4491  -29.6828 H         1 0W7         0.0580
@<TRIPOS>BOND
     1    1    2 2  
     2    2    3 am 
     3    2   10 1  
     4    3    4 1  
     5    4    5 ar 
     6    4    7 ar 
     7    5    6 ar 
     8    6    9 ar 
     9    7    8 ar 
    10    8    9 ar 
    11   10   11 1  
    12   11   12 1  
    13   11   16 2  
    14   12   13 am 
    15   13   14 2  
    16   13   15 1  
    17   15   17 2  
    18   16   17 1  
    19   17   18 1  
    20   18   19 1  
    21   18   20 1  
    22   19   23 1  
    23   20   21 1  
    24   21   22 1  
    25   22   23 1  
    26    3   24 1  
    27    5   25 1  
    28    6   26 1  
    29    7   27 1  
    30    8   28 1  
    31    9   29 1  
    32   10   30 1  
    33   10   31 1  
    34   12   32 1  
    35   15   33 1  
    36   19   34 1  
    37   19   35 1  
    38   20   36 1  
    39   20   37 1  
    40   21   38 1  
    41   21   39 1  
    42   23   40 1  
    43   23   41 1  
@<TRIPOS>SUBSTRUCTURE
     1 0W7         1

