### 
### Created by X-TOOL on Mon Sep 10 21:13:15 2018
### 

@<TRIPOS>MOLECULE
4g16_ligand
   41    44     1     0     0
SMALL
GAST_HUCK


@<TRIPOS>ATOM
      1 C8         38.3130  -12.1150   26.6580 C.ar      1 0VM         0.0778
      2 C9         37.6040  -13.3660   26.3650 C.ar      1 0VM        -0.0090
      3 C10        36.9700  -14.0690   27.4800 C.ar      1 0VM         0.0875
      4 C11        37.0640  -13.4960   28.8350 C.ar      1 0VM         0.0225
      5 C13        37.7740  -12.2480   29.1050 C.ar      1 0VM        -0.0588
      6 C14        38.4240  -11.5270   27.9960 C.ar      1 0VM        -0.0470
      7 N3         36.2740  -15.1900   27.5750 N.pl3     1 0VM        -0.2241
      8 C12        35.9500  -15.3230   28.8750 C.2       1 0VM         0.2364
      9 N4         36.3900  -14.3600   29.6300 N.2       1 0VM        -0.3007
     10 C15        35.5360  -20.4790   28.4140 C.ar      1 0VM         0.1227
     11 C16        36.5900  -19.6120   27.9300 C.ar      1 0VM        -0.0324
     12 C17        36.4900  -18.2130   28.2590 C.ar      1 0VM        -0.0422
     13 C18        35.3520  -17.7460   29.0460 C.ar      1 0VM         0.0617
     14 C19        34.3100  -18.6160   29.5280 C.ar      1 0VM        -0.0422
     15 C20        34.3930  -20.0360   29.2090 C.ar      1 0VM        -0.0324
     16 N1         35.1780  -16.4480   29.3960 N.pl3     1 0VM        -0.2294
     17 C7         38.9300  -11.4480   25.6020 C.1       1 0VM         0.0873
     18 N2         39.4330  -10.9230   24.7110 N.1       1 0VM        -0.3368
     19 C1         32.8600  -23.5990   25.3620 C.ar      1 0VM        -0.0170
     20 C2         33.6870  -24.4440   26.1560 C.ar      1 0VM        -0.0219
     21 C3         34.6620  -23.8830   27.0900 C.ar      1 0VM         0.1058
     22 C4         34.7610  -22.4590   27.1930 C.ar      1 0VM         0.2256
     23 N5         33.9520  -21.6510   26.4070 N.ar      1 0VM        -0.2340
     24 C6         33.0220  -22.1660   25.5110 C.ar      1 0VM         0.0284
     25 O1         35.6440  -21.8750   28.0960 O.3       1 0VM        -0.2198
     26 C5         35.5420  -24.8580   27.8630 C.3       1 0VM         0.3736
     27 F1         36.7680  -24.3650   28.1550 F         1 0VM        -0.2299
     28 F3         35.7040  -25.9740   27.0940 F         1 0VM        -0.2299
     29 F2         34.9190  -25.1890   29.0160 F         1 0VM        -0.2299
     30 H1         37.5518  -13.7564   25.3551 H         1 0VM         0.0643
     31 H2         37.8224  -11.8550   30.1141 H         1 0VM         0.0539
     32 H3         38.9616  -10.6006   28.1629 H         1 0VM         0.0598
     33 H4         36.0290  -15.8324   26.8080 H         1 0VM         0.2320
     34 H5         37.4175  -19.9985   27.3461 H         1 0VM         0.0546
     35 H6         37.2502  -17.5155   27.9264 H         1 0VM         0.0521
     36 H7         33.4854  -18.2248   30.1129 H         1 0VM         0.0521
     37 H8         33.6371  -20.7351   29.5480 H         1 0VM         0.0546
     38 H9         34.4418  -16.2382   30.0851 H         1 0VM         0.2205
     39 H10        32.1349  -24.0128   24.6706 H         1 0VM         0.0701
     40 H11        33.5921  -25.5201   26.0664 H         1 0VM         0.0921
     41 H12        32.4137  -21.4913   24.9196 H         1 0VM         0.1017
@<TRIPOS>BOND
     1    2    1 ar 
     2    6    1 ar 
     3    1   17 1  
     4    3    2 ar 
     5    4    3 ar 
     6    7    3 1  
     7    4    5 ar 
     8    9    4 1  
     9    5    6 ar 
    10    8    7 1  
    11    8    9 2  
    12   16    8 1  
    13   10   11 ar 
    14   10   15 ar 
    15   25   10 1  
    16   11   12 ar 
    17   12   13 ar 
    18   14   13 ar 
    19   13   16 1  
    20   15   14 ar 
    21   17   18 3  
    22   20   19 ar 
    23   19   24 ar 
    24   21   20 ar 
    25   22   21 ar 
    26   21   26 1  
    27   22   23 ar 
    28   22   25 1  
    29   23   24 ar 
    30   26   27 1  
    31   26   28 1  
    32   26   29 1  
    33    2   30 1  
    34    5   31 1  
    35    6   32 1  
    36    7   33 1  
    37   11   34 1  
    38   12   35 1  
    39   14   36 1  
    40   15   37 1  
    41   16   38 1  
    42   19   39 1  
    43   20   40 1  
    44   24   41 1  
@<TRIPOS>SUBSTRUCTURE
     1 0VM         1

