### 
### Created by X-TOOL on Mon Sep 10 21:13:15 2018
### 

@<TRIPOS>MOLECULE
4g17_ligand
   40    42     1     0     0
SMALL
GAST_HUCK


@<TRIPOS>ATOM
      1 C4         38.2090  -11.9990   26.8590 C.ar      1 0VN         0.0788
      2 C5         37.7720  -13.3880   26.5570 C.ar      1 0VN        -0.0079
      3 C6         37.1810  -14.1170   27.6870 C.ar      1 0VN         0.0895
      4 C8         37.0590  -13.4390   29.0340 C.ar      1 0VN         0.0264
      5 C9         37.5080  -12.0470   29.2790 C.ar      1 0VN        -0.0574
      6 C10        38.0990  -11.3010   28.1680 C.ar      1 0VN        -0.0461
      7 N3         36.6610  -15.3770   27.8340 N.pl3     1 0VN        -0.2212
      8 C11        36.2690  -15.4490   29.1190 C.2       1 0VN         0.2497
      9 N4         36.4700  -14.3710   29.8700 N.2       1 0VN        -0.2937
     10 N1         35.6250  -16.6230   29.6770 N.pl3     1 0VN        -0.2038
     11 C7         38.8110  -11.2910   25.8100 C.1       1 0VN         0.0882
     12 N2         39.2560  -10.7250   24.9180 N.1       1 0VN        -0.3361
     13 C12        34.7080  -20.2060   27.9140 C.ar      1 0VN        -0.0668
     14 C13        36.0230  -19.5890   27.5820 C.ar      1 0VN        -0.0480
     15 C14        36.3530  -18.3500   28.1870 C.ar      1 0VN        -0.0038
     16 C15        35.3460  -17.7970   29.0910 C.ar      1 0VN         0.1060
     17 C16        34.0410  -18.3510   29.4640 C.ar      1 0VN        -0.0038
     18 C17        33.7010  -19.6120   28.8540 C.ar      1 0VN        -0.0480
     19 C18        34.3590  -21.5640   27.2110 C.3       1 0VN        -0.0612
     20 C1         32.8310  -21.6430   26.7810 C.3       1 0VN        -0.0931
     21 C2         34.6910  -22.7100   28.1810 C.3       1 0VN        -0.0931
     22 C3         35.1260  -21.8450   25.8660 C.3       1 0VN        -0.0931
     23 H1         37.8817  -13.8307   25.5736 H         1 0VN         0.0647
     24 H2         37.4009  -11.5933   30.2576 H         1 0VN         0.0546
     25 H3         38.4429  -10.2807   28.2936 H         1 0VN         0.0600
     26 H4         36.5865  -16.1109   27.1151 H         1 0VN         0.2329
     27 H5         35.3415  -16.5439   30.6640 H         1 0VN         0.2367
     28 H6         36.7086  -20.0742   26.8967 H         1 0VN         0.0814
     29 H7         37.2921  -17.8450   27.9917 H         1 0VN         0.0647
     30 H8         33.3750  -17.8452   30.1537 H         1 0VN         0.0647
     31 H9         32.7607  -20.1084   29.0649 H         1 0VN         0.0814
     32 H10        32.6366  -22.6101   26.2943 H         1 0VN         0.0108
     33 H11        32.6051  -20.8272   26.0786 H         1 0VN         0.0108
     34 H12        32.1937  -21.5465   27.6724 H         1 0VN         0.0108
     35 H13        35.7496  -22.6478   28.4733 H         1 0VN         0.0108
     36 H14        34.5031  -23.6747   27.6869 H         1 0VN         0.0108
     37 H15        34.0579  -22.6273   29.0767 H         1 0VN         0.0108
     38 H16        34.9104  -21.0416   25.1463 H         1 0VN         0.0108
     39 H17        34.7958  -22.8083   25.4499 H         1 0VN         0.0108
     40 H18        36.2079  -21.8815   26.0615 H         1 0VN         0.0108
@<TRIPOS>BOND
     1    2    1 ar 
     2    6    1 ar 
     3    1   11 1  
     4    3    2 ar 
     5    4    3 ar 
     6    7    3 1  
     7    4    5 ar 
     8    9    4 1  
     9    5    6 ar 
    10    8    7 1  
    11    8    9 2  
    12   10    8 1  
    13   16   10 1  
    14   11   12 3  
    15   14   13 ar 
    16   13   18 ar 
    17   13   19 1  
    18   15   14 ar 
    19   15   16 ar 
    20   16   17 ar 
    21   17   18 ar 
    22   19   20 1  
    23   19   21 1  
    24   19   22 1  
    25    2   23 1  
    26    5   24 1  
    27    6   25 1  
    28    7   26 1  
    29   10   27 1  
    30   14   28 1  
    31   15   29 1  
    32   17   30 1  
    33   18   31 1  
    34   20   32 1  
    35   20   33 1  
    36   20   34 1  
    37   21   35 1  
    38   21   36 1  
    39   21   37 1  
    40   22   38 1  
    41   22   39 1  
    42   22   40 1  
@<TRIPOS>SUBSTRUCTURE
     1 0VN         1

