### 
### Created by X-TOOL on Mon Sep 10 21:13:09 2018
### 

@<TRIPOS>MOLECULE
4g19_ligand
   36    35     1     0     0
SMALL
GAST_HUCK


@<TRIPOS>ATOM
      1 N1        -19.6490   55.1380  125.8500 N.4       1 GSH         0.2328
      2 CA1       -20.2940   55.5480  127.0850 C.3       1 GSH         0.0304
      3 C1        -21.5580   54.7670  127.3050 C.2       1 GSH         0.0846
      4 O11       -22.2800   54.4540  126.3220 O.co2     1 GSH        -0.5643
      5 O12       -21.8940   54.4200  128.4660 O.co2     1 GSH        -0.5643
      6 CB1       -20.6440   57.0240  126.9640 C.3       1 GSH         0.0193
      7 CG1       -21.5910   57.4400  128.0820 C.3       1 GSH         0.0441
      8 CD1       -21.5920   58.9540  128.1790 C.2       1 GSH         0.1785
      9 OE1       -20.9560   59.7310  127.1890 O.2       1 GSH        -0.3969
     10 N2        -22.2170   59.5130  129.2130 N.am      1 GSH        -0.2648
     11 CA2       -22.0220   60.9320  129.4580 C.3       1 GSH         0.1395
     12 C2        -20.8080   61.1830  130.3020 C.2       1 GSH         0.2039
     13 O2        -20.6790   60.4800  131.5060 O.2       1 GSH        -0.3944
     14 CB2       -23.2530   61.4490  130.1800 C.3       1 GSH         0.0311
     15 SG2       -24.6200   61.7590  129.0360 S.3       1 GSH        -0.1735
     16 N3        -19.8850   62.0690  129.9150 N.am      1 GSH        -0.2722
     17 CA3       -18.9450   62.5010  130.9300 C.3       1 GSH         0.0833
     18 C3        -18.1940   63.7570  130.5770 C.2       1 GSH         0.0570
     19 O31       -17.1680   64.0780  131.2130 O.co2     1 GSH        -0.5669
     20 O32       -18.5800   64.4830  129.6520 O.co2     1 GSH        -0.5669
     21 H1        -18.8040   55.6717  125.7190 H         1 GSH         0.2010
     22 H2        -20.2727   55.3008  125.0751 H         1 GSH         0.2010
     23 H3        -19.4226   54.1570  125.8988 H         1 GSH         0.2010
     24 H4        -19.6103   55.3895  127.9320 H         1 GSH         0.1026
     25 H5        -21.1292   57.2028  125.9931 H         1 GSH         0.0363
     26 H6        -19.7226   57.6212  127.0289 H         1 GSH         0.0363
     27 H7        -21.2514   57.0081  129.0349 H         1 GSH         0.0505
     28 H8        -22.6071   57.0826  127.8589 H         1 GSH         0.0505
     29 H9        -22.8078   58.9683  129.8081 H         1 GSH         0.1883
     30 H10       -21.9059   61.4555  128.4976 H         1 GSH         0.0808
     31 H11       -22.9974   62.3881  130.6925 H         1 GSH         0.0422
     32 H12       -23.5715   60.7015  130.9215 H         1 GSH         0.0422
     33 H13       -25.4167   62.1000  129.5508 H         1 GSH         0.1019
     34 H14       -19.8453   62.4145  128.9774 H         1 GSH         0.1873
     35 H15       -18.2140   61.6947  131.0896 H         1 GSH         0.0689
     36 H16       -19.5012   62.6814  131.8617 H         1 GSH         0.0689
@<TRIPOS>BOND
     1    1    2 1  
     2    2    3 1  
     3    2    6 1  
     4    3    4 ar 
     5    3    5 ar 
     6    6    7 1  
     7    7    8 1  
     8    8    9 2  
     9    8   10 am 
    10   10   11 1  
    11   11   12 1  
    12   11   14 1  
    13   12   13 2  
    14   12   16 am 
    15   14   15 1  
    16   16   17 1  
    17   17   18 1  
    18   18   19 ar 
    19   18   20 ar 
    20    1   21 1  
    21    1   22 1  
    22    1   23 1  
    23    2   24 1  
    24    6   25 1  
    25    6   26 1  
    26    7   27 1  
    27    7   28 1  
    28   10   29 1  
    29   11   30 1  
    30   14   31 1  
    31   14   32 1  
    32   15   33 1  
    33   16   34 1  
    34   17   35 1  
    35   17   36 1  
@<TRIPOS>SUBSTRUCTURE
     1 GSH         1

