### 
### Created by X-TOOL on Mon Sep 10 21:13:15 2018
### 

@<TRIPOS>MOLECULE
4g1f_ligand
   41    43     1     0     0
SMALL
GAST_HUCK


@<TRIPOS>ATOM
      1 C1         46.2790   -0.6950   13.4330 C.3       1 0WG         0.0496
      2 N2         44.8760   -0.3800   13.1320 N.am      1 0WG        -0.1893
      3 C3         44.2490    0.6510   13.8210 C.ar      1 0WG         0.1421
      4 N4         44.9040    1.3400   14.7430 N.ar      1 0WG        -0.2723
      5 C5         44.3330    2.3150   15.4360 C.ar      1 0WG         0.1043
      6 N6         45.0890    2.9910   16.3810 N.pl3     1 0WG        -0.3257
      7 C7         42.9990    2.6660   15.2380 C.ar      1 0WG         0.0452
      8 C8         42.4020    3.7770   16.0670 C.3       1 0WG        -0.0032
      9 N9         41.8760    3.2090   17.3140 N.4       1 0WG         0.2287
     10 C10        42.2440    1.9790   14.2710 C.ar      1 0WG         0.0040
     11 C11        40.8110    2.3300   14.0670 C.ar      1 0WG        -0.0075
     12 C12        40.4140    3.4020   13.2600 C.ar      1 0WG        -0.0503
     13 C13        39.0670    3.6890   13.1190 C.ar      1 0WG        -0.0575
     14 C14        38.1090    2.9250   13.7700 C.ar      1 0WG        -0.0581
     15 C15        38.4940    1.8650   14.5710 C.ar      1 0WG        -0.0508
     16 C16        39.8370    1.5650   14.7270 C.ar      1 0WG         0.0214
     17 BR1        40.3520    0.1080   15.8240 Br        1 0WG        -0.0484
     18 C18        42.8900    0.9410   13.5440 C.ar      1 0WG         0.0884
     19 C19        42.2150    0.1330   12.5130 C.2       1 0WG         0.2210
     20 O20        41.0620    0.3580   12.2100 O.2       1 0WG        -0.3902
     21 N21        42.9090   -0.8670   11.9020 N.am      1 0WG        -0.1710
     22 C22        42.2450   -1.6920   10.8790 C.3       1 0WG         0.0482
     23 C23        44.2000   -1.1120   12.2200 C.2       1 0WG         0.3257
     24 O24        44.7910   -2.0130   11.6480 O.2       1 0WG        -0.3825
     25 H1         46.6565    0.0038   14.1940 H         1 0WG         0.0559
     26 H2         46.8808   -0.5999   12.5172 H         1 0WG         0.0559
     27 H3         46.3502   -1.7247   13.8133 H         1 0WG         0.0559
     28 H4         44.6655    3.7520   16.9309 H         1 0WG         0.1761
     29 H5         46.0743    2.7323   16.5333 H         1 0WG         0.1761
     30 H6         41.5863    4.2581   15.5074 H         1 0WG         0.0944
     31 H7         43.1771    4.5223   16.2988 H         1 0WG         0.0944
     32 H8         41.4748    3.9441   17.8750 H         1 0WG         0.2005
     33 H9         42.6248    2.7676   17.8243 H         1 0WG         0.2005
     34 H10        41.1671    2.5254   17.0991 H         1 0WG         0.2005
     35 H11        41.1564    4.0039   12.7485 H         1 0WG         0.0640
     36 H12        38.7577    4.5188   12.4938 H         1 0WG         0.0643
     37 H13        37.0573    3.1591   13.6507 H         1 0WG         0.0632
     38 H14        37.7437    1.2685   15.0772 H         1 0WG         0.0647
     39 H15        41.2064   -1.3526   10.7517 H         1 0WG         0.0540
     40 H16        42.2503   -2.7450   11.1970 H         1 0WG         0.0540
     41 H17        42.7821   -1.5946    9.9240 H         1 0WG         0.0540
@<TRIPOS>BOND
     1    1    2 1  
     2    2    3 1  
     3    2   23 am 
     4    3    4 ar 
     5    3   18 ar 
     6    4    5 ar 
     7    5    6 1  
     8    5    7 ar 
     9    7    8 1  
    10    7   10 ar 
    11    8    9 1  
    12   10   11 1  
    13   10   18 ar 
    14   11   12 ar 
    15   11   16 ar 
    16   12   13 ar 
    17   13   14 ar 
    18   14   15 ar 
    19   15   16 ar 
    20   16   17 1  
    21   18   19 1  
    22   19   20 2  
    23   19   21 am 
    24   21   22 1  
    25   21   23 am 
    26   23   24 2  
    27    1   25 1  
    28    1   26 1  
    29    1   27 1  
    30    6   28 1  
    31    6   29 1  
    32    8   30 1  
    33    8   31 1  
    34    9   32 1  
    35    9   33 1  
    36    9   34 1  
    37   12   35 1  
    38   13   36 1  
    39   14   37 1  
    40   15   38 1  
    41   22   39 1  
    42   22   40 1  
    43   22   41 1  
@<TRIPOS>SUBSTRUCTURE
     1 0WG         1

