### 
### Created by X-TOOL on Mon Sep 10 21:13:09 2018
### 

@<TRIPOS>MOLECULE
4g2f_ligand
   44    47     1     0     0
SMALL
GAST_HUCK


@<TRIPOS>ATOM
      1 O1         -9.5810    8.4270   53.9710 O.3       1 C07        -0.3276
      2 C7         -9.2290    7.7920   52.8640 C.2       1 C07         0.1750
      3 C8         -8.9370    6.3330   52.9210 C.2       1 C07        -0.0319
      4 C13        -9.0440    5.6030   54.2410 C.3       1 C07        -0.0421
      5 C12        -8.8080    4.1010   54.0820 C.3       1 C07        -0.0504
      6 C11        -7.7220    3.7870   53.0570 C.3       1 C07        -0.0496
      7 C10        -8.2310    4.1530   51.6700 C.3       1 C07        -0.0404
      8 C9         -8.5480    5.6300   51.6780 C.3       1 C07         0.0058
      9 C14        -8.4730    6.4380   50.4400 C.ar      1 C07         0.0556
     10 C17        -8.7780    7.8830   50.4990 C.ar      1 C07         0.1560
     11 N3         -8.6940    8.5890   49.3500 N.ar      1 C07        -0.2710
     12 C16        -8.3410    8.0050   48.1900 C.ar      1 C07         0.0503
     13 N2         -8.0510    6.6980   48.0720 N.ar      1 C07        -0.2780
     14 C15        -8.0880    5.8640   49.1320 C.ar      1 C07         0.1150
     15 N1         -7.7990    4.5480   49.0170 N.pl3     1 C07        -0.3233
     16 N          -9.1490    8.4860   51.7250 N.pl3     1 C07        -0.1953
     17 C2         -9.4430    9.8570   51.7900 C.ar      1 C07         0.0740
     18 C3         -8.5700   10.7190   52.4240 C.ar      1 C07        -0.0149
     19 C4         -8.8680   12.0680   52.4900 C.ar      1 C07         0.0707
     20 O          -8.0070   12.9100   53.1200 O.3       1 C07        -0.3406
     21 C5        -10.0460   12.5670   51.9320 C.ar      1 C07        -0.0521
     22 C6        -10.9620   11.7420   51.2890 C.ar      1 C07        -0.0783
     23 C1        -10.6940   10.3850   51.1980 C.ar      1 C07        -0.0302
     24 C         -11.6460    9.4520   50.5090 C.3       1 C07        -0.0384
     25 H1         -9.5958    7.8131   54.6958 H         1 C07         0.2430
     26 H2        -10.0503    5.7630   54.6554 H         1 C07         0.0326
     27 H3         -8.2930    6.0096   54.9343 H         1 C07         0.0326
     28 H4         -9.7468    3.6285   53.7576 H         1 C07         0.0278
     29 H5         -8.5057    3.6861   55.0549 H         1 C07         0.0278
     30 H6         -7.4818    2.7141   53.0907 H         1 C07         0.0269
     31 H7         -6.8190    4.3723   53.2850 H         1 C07         0.0269
     32 H8         -9.1380    3.5755   51.4383 H         1 C07         0.0296
     33 H9         -7.4577    3.9389   50.9175 H         1 C07         0.0296
     34 H10        -9.6028    5.3959   51.4716 H         1 C07         0.0480
     35 H11        -8.2876    8.6233   47.3012 H         1 C07         0.0981
     36 H12        -7.5319    4.1574   48.1021 H         1 C07         0.1764
     37 H13        -7.8460    3.9362   49.8443 H         1 C07         0.1764
     38 H14        -7.6562   10.3404   52.8675 H         1 C07         0.0437
     39 H15        -8.3475   13.7960   53.0819 H         1 C07         0.2456
     40 H16       -10.2528   13.6288   52.0020 H         1 C07         0.0425
     41 H17       -11.8712   12.1534   50.8656 H         1 C07         0.0497
     42 H18       -11.2480    8.4273   50.5482 H         1 C07         0.0349
     43 H19       -11.7654    9.7591   49.4595 H         1 C07         0.0349
     44 H20       -12.6225    9.4855   51.0142 H         1 C07         0.0349
@<TRIPOS>BOND
     1    1    2 1  
     2    2    3 2  
     3    2   16 1  
     4    3    4 1  
     5    3    8 1  
     6    4    5 1  
     7    5    6 1  
     8    6    7 1  
     9    7    8 1  
    10    8    9 1  
    11    9   10 ar 
    12    9   14 ar 
    13   10   11 ar 
    14   10   16 1  
    15   11   12 ar 
    16   12   13 ar 
    17   13   14 ar 
    18   14   15 1  
    19   16   17 1  
    20   17   18 ar 
    21   17   23 ar 
    22   18   19 ar 
    23   19   20 1  
    24   19   21 ar 
    25   21   22 ar 
    26   22   23 ar 
    27   23   24 1  
    28    1   25 1  
    29    4   26 1  
    30    4   27 1  
    31    5   28 1  
    32    5   29 1  
    33    6   30 1  
    34    6   31 1  
    35    7   32 1  
    36    7   33 1  
    37    8   34 1  
    38   12   35 1  
    39   15   36 1  
    40   15   37 1  
    41   18   38 1  
    42   20   39 1  
    43   21   40 1  
    44   22   41 1  
    45   24   42 1  
    46   24   43 1  
    47   24   44 1  
@<TRIPOS>SUBSTRUCTURE
     1 C07         1

