### 
### Created by X-TOOL on Mon Sep 10 21:13:14 2018
### 

@<TRIPOS>MOLECULE
4g2j_ligand
   54    58     1     0     0
SMALL
GAST_HUCK


@<TRIPOS>ATOM
      1 C1         74.6260   55.6070   41.8780 C.3       1 0WF        -0.0004
      2 C2         74.1550   54.1890   41.5330 C.3       1 0WF         0.0675
      3 C3         75.1000   53.2060   42.2230 C.2       1 0WF         0.1972
      4 N1         74.9610   53.1180   43.6090 N.am      1 0WF        -0.1933
      5 C4         75.8190   52.3070   44.4230 C.2       1 0WF         0.2128
      6 O1         75.6320   52.3080   45.6320 O.2       1 0WF        -0.4052
      7 C5         76.8030   51.5990   43.6680 C.2       1 0WF         0.0727
      8 C6         77.8690   50.7190   44.0040 C.2       1 0WF         0.0033
      9 N2         78.5380   50.3560   42.8810 N.2       1 0WF        -0.2265
     10 N3         77.9130   50.9810   41.8220 N.pl3     1 0WF        -0.1954
     11 C7         76.8460   51.7440   42.2650 C.2       1 0WF         0.1307
     12 N4         75.9870   52.5360   41.4960 N.2       1 0WF        -0.2687
     13 C8         78.4180   50.9100   40.4380 C.3       1 0WF         0.0797
     14 C9         79.9130   51.2610   40.3490 C.3       1 0WF        -0.0213
     15 C10        80.3530   50.5810   39.0560 C.3       1 0WF        -0.0501
     16 C11        79.5460   49.2830   38.9910 C.3       1 0WF        -0.0501
     17 C12        78.2890   49.4960   39.8400 C.3       1 0WF        -0.0213
     18 N5         74.2300   54.0510   40.0550 N.4       1 0WF         0.2631
     19 C13        73.8490   52.6860   39.5300 C.3       1 0WF         0.0074
     20 C14        72.7270   53.3340   38.6670 C.3       1 0WF         0.1599
     21 C15        73.0680   54.6990   39.3310 C.3       1 0WF         0.0074
     22 O2         71.4370   52.9810   39.0790 O.3       1 0WF        -0.3041
     23 C16        70.9500   51.7820   38.6380 C.ar      1 0WF         0.0920
     24 C17        69.5830   51.6120   38.8950 C.ar      1 0WF        -0.0331
     25 C18        68.9790   50.4220   38.5240 C.ar      1 0WF        -0.0706
     26 C19        69.7190   49.4190   37.9030 C.ar      1 0WF        -0.0729
     27 C20        71.0700   49.6050   37.6540 C.ar      1 0WF        -0.0706
     28 C21        71.7050   50.7890   38.0220 C.ar      1 0WF        -0.0331
     29 H1         74.5858   55.7517   42.9677 H         1 0WF         0.0320
     30 H2         73.9706   56.3409   41.3863 H         1 0WF         0.0320
     31 H3         75.6594   55.7456   41.5276 H         1 0WF         0.0320
     32 H4         73.1232   54.0249   41.8771 H         1 0WF         0.1162
     33 H5         74.2336   53.6417   44.0524 H         1 0WF         0.2544
     34 H6         78.1118   50.3864   45.0121 H         1 0WF         0.0665
     35 H7         77.8394   51.6183   39.8268 H         1 0WF         0.0663
     36 H8         80.4644   50.8610   41.2127 H         1 0WF         0.0295
     37 H9         80.0601   52.3496   40.2922 H         1 0WF         0.0295
     38 H10        81.4311   50.3641   39.0817 H         1 0WF         0.0266
     39 H11        80.1279   51.2190   38.1887 H         1 0WF         0.0266
     40 H12        80.1383   48.4489   39.3953 H         1 0WF         0.0266
     41 H13        79.2663   49.0634   37.9501 H         1 0WF         0.0266
     42 H14        77.3877   49.4264   39.2133 H         1 0WF         0.0295
     43 H15        78.2371   48.7447   40.6418 H         1 0WF         0.0295
     44 H16        75.1331   54.3658   39.7366 H         1 0WF         0.2064
     45 H17        73.4797   51.9946   40.3017 H         1 0WF         0.0846
     46 H18        74.6388   52.1933   38.9439 H         1 0WF         0.0846
     47 H19        72.8530   53.2562   37.5770 H         1 0WF         0.0759
     48 H20        73.3629   55.4841   38.6193 H         1 0WF         0.0846
     49 H21        72.2816   55.0842   39.9968 H         1 0WF         0.0846
     50 H22        69.0093   52.3966   39.3749 H         1 0WF         0.0542
     51 H23        67.9234   50.2705   38.7183 H         1 0WF         0.0589
     52 H24        69.2380   48.4916   37.6139 H         1 0WF         0.0523
     53 H25        71.6385   48.8205   37.1676 H         1 0WF         0.0589
     54 H26        72.7626   50.9333   37.8328 H         1 0WF         0.0542
@<TRIPOS>BOND
     1    1    2 1  
     2    2    3 1  
     3    2   18 1  
     4    3    4 1  
     5    3   12 2  
     6    4    5 am 
     7    5    6 2  
     8    5    7 1  
     9    7    8 1  
    10    7   11 2  
    11    8    9 2  
    12    9   10 1  
    13   10   11 1  
    14   10   13 1  
    15   11   12 1  
    16   13   14 1  
    17   13   17 1  
    18   14   15 1  
    19   15   16 1  
    20   16   17 1  
    21   18   19 1  
    22   18   21 1  
    23   19   20 1  
    24   20   21 1  
    25   20   22 1  
    26   22   23 1  
    27   23   24 ar 
    28   23   28 ar 
    29   24   25 ar 
    30   25   26 ar 
    31   26   27 ar 
    32   27   28 ar 
    33    1   29 1  
    34    1   30 1  
    35    1   31 1  
    36    2   32 1  
    37    4   33 1  
    38    8   34 1  
    39   13   35 1  
    40   14   36 1  
    41   14   37 1  
    42   15   38 1  
    43   15   39 1  
    44   16   40 1  
    45   16   41 1  
    46   17   42 1  
    47   17   43 1  
    48   18   44 1  
    49   19   45 1  
    50   19   46 1  
    51   20   47 1  
    52   21   48 1  
    53   21   49 1  
    54   24   50 1  
    55   25   51 1  
    56   26   52 1  
    57   27   53 1  
    58   28   54 1  
@<TRIPOS>SUBSTRUCTURE
     1 0WF         1

