### 
### Created by X-TOOL on Mon Sep 10 21:13:14 2018
### 

@<TRIPOS>MOLECULE
4g2l_ligand
   51    55     1     0     0
SMALL
GAST_HUCK


@<TRIPOS>ATOM
      1 C1         70.3970   52.8950   36.6390 C.ar      1 0WL        -0.0158
      2 C2         70.4220   53.4460   37.9220 C.ar      1 0WL         0.0214
      3 C3         71.5960   52.5460   36.0120 C.ar      1 0WL         0.0214
      4 C4         78.3710   51.2040   44.0620 C.2       1 0WL         0.0033
      5 C5         77.3080   52.0880   43.7880 C.2       1 0WL         0.0727
      6 C6         77.3400   52.1830   42.4400 C.2       1 0WL         0.1307
      7 C7         72.6850   53.2680   37.8280 C.ar      1 0WL         0.1178
      8 C8         76.3160   52.8100   44.5210 C.2       1 0WL         0.2128
      9 C9         75.6930   53.5650   42.3160 C.2       1 0WL         0.1972
     10 C10        79.8180   49.8520   39.0260 C.3       1 0WL        -0.0501
     11 C11        80.8070   50.8860   39.4510 C.3       1 0WL        -0.0501
     12 C12        78.7720   49.8650   40.0900 C.3       1 0WL        -0.0213
     13 C13        80.0680   51.8760   40.2790 C.3       1 0WL        -0.0213
     14 C14        74.0410   54.7870   39.3040 C.3       1 0WL        -0.0058
     15 C15        74.2980   52.8520   39.8110 C.3       1 0WL        -0.0058
     16 C16        74.0090   53.5070   38.4970 C.3       1 0WL         0.1076
     17 C17        78.7170   51.2790   40.5780 C.3       1 0WL         0.0797
     18 C18        75.1190   55.8900   41.7050 C.3       1 0WL        -0.0004
     19 C19        74.7420   54.4390   41.5500 C.3       1 0WL         0.0677
     20 N20        71.5890   53.6490   38.5590 N.ar      1 0WL        -0.2634
     21 N21        72.7920   52.7230   36.5820 N.ar      1 0WL        -0.2634
     22 N22        79.0300   50.7790   42.9740 N.2       1 0WL        -0.2265
     23 N23        76.5700   52.8950   41.6410 N.2       1 0WL        -0.2687
     24 N24        78.3650   51.4040   41.9960 N.pl3     1 0WL        -0.1954
     25 N25        75.5350   53.5420   43.6830 N.am      1 0WL        -0.1933
     26 N26        74.9920   54.1000   40.1320 N.4       1 0WL         0.2630
     27 O27        76.1590   52.8020   45.7280 O.2       1 0WL        -0.4052
     28 H1         69.4518   52.7388   36.1319 H         1 0WL         0.0720
     29 H2         69.4913   53.7128   38.4095 H         1 0WL         0.0920
     30 H3         71.5544   52.1125   35.0193 H         1 0WL         0.0920
     31 H4         78.6349   50.8925   45.0716 H         1 0WL         0.0665
     32 H5         80.2945   48.8626   38.9632 H         1 0WL         0.0266
     33 H6         79.3814   50.1113   38.0502 H         1 0WL         0.0266
     34 H7         81.2410   51.3795   38.5689 H         1 0WL         0.0266
     35 H8         81.6092   50.4214   40.0431 H         1 0WL         0.0266
     36 H9         79.0487   49.1858   40.9098 H         1 0WL         0.0295
     37 H10        77.7986   49.5629   39.6762 H         1 0WL         0.0295
     38 H11        79.9501   52.8189   39.7250 H         1 0WL         0.0295
     39 H12        80.6124   52.0666   41.2156 H         1 0WL         0.0295
     40 H13        73.0950   55.0511   39.7992 H         1 0WL         0.0851
     41 H14        74.4338   55.6656   38.7714 H         1 0WL         0.0851
     42 H15        74.9388   51.9595   39.7589 H         1 0WL         0.0851
     43 H16        73.4153   52.6340   40.4302 H         1 0WL         0.0851
     44 H17        74.8100   53.3925   37.7518 H         1 0WL         0.0643
     45 H18        77.9523   51.8189   40.0004 H         1 0WL         0.0663
     46 H19        74.9535   56.2026   42.7466 H         1 0WL         0.0320
     47 H20        74.4987   56.5036   41.0352 H         1 0WL         0.0320
     48 H21        76.1799   56.0229   41.4465 H         1 0WL         0.0320
     49 H22        73.6981   54.2627   41.8486 H         1 0WL         0.1162
     50 H23        74.8041   54.0953   44.0826 H         1 0WL         0.2544
     51 H24        75.9639   54.1690   39.8738 H         1 0WL         0.2067
@<TRIPOS>BOND
     1    2    1 ar 
     2    3    1 ar 
     3   20    2 ar 
     4   21    3 ar 
     5    5    4 1  
     6    4   22 2  
     7    6    5 2  
     8    8    5 1  
     9   23    6 1  
    10    6   24 1  
    11   16    7 1  
    12    7   20 ar 
    13    7   21 ar 
    14   25    8 am 
    15    8   27 2  
    16   19    9 1  
    17    9   23 2  
    18    9   25 1  
    19   11   10 1  
    20   12   10 1  
    21   13   11 1  
    22   17   12 1  
    23   17   13 1  
    24   14   16 1  
    25   26   14 1  
    26   15   16 1  
    27   26   15 1  
    28   24   17 1  
    29   19   18 1  
    30   19   26 1  
    31   22   24 1  
    32    1   28 1  
    33    2   29 1  
    34    3   30 1  
    35    4   31 1  
    36   10   32 1  
    37   10   33 1  
    38   11   34 1  
    39   11   35 1  
    40   12   36 1  
    41   12   37 1  
    42   13   38 1  
    43   13   39 1  
    44   14   40 1  
    45   14   41 1  
    46   15   42 1  
    47   15   43 1  
    48   16   44 1  
    49   17   45 1  
    50   18   46 1  
    51   18   47 1  
    52   18   48 1  
    53   19   49 1  
    54   25   50 1  
    55   26   51 1  
@<TRIPOS>SUBSTRUCTURE
     1 0WL         1

