### 
### Created by X-TOOL on Mon Sep 10 21:13:17 2018
### 

@<TRIPOS>MOLECULE
4g2r_ligand
   34    35     1     0     0
SMALL
GAST_HUCK


@<TRIPOS>ATOM
      1 O1A       -32.3040  -24.4510   63.7820 O.co2     1 H1L        -0.5661
      2 C1        -32.7770  -25.6300   63.7910 C.2       1 H1L         0.0680
      3 O1B       -32.2030  -26.5370   64.4610 O.co2     1 H1L        -0.5661
      4 C2        -34.0300  -25.9710   63.0380 C.3       1 H1L         0.1286
      5 C2A       -35.1810  -25.7240   63.9560 C.3       1 H1L        -0.0224
      6 O2        -34.2120  -25.1880   61.9170 O.3       1 H1L        -0.3062
      7 C3        -33.7010  -25.4820   60.6720 C.ar      1 H1L         0.0856
      8 C4        -34.2470  -24.8280   59.5740 C.ar      1 H1L        -0.0379
      9 C5        -33.7570  -25.0880   58.3110 C.ar      1 H1L        -0.0323
     10 C6        -32.6630  -26.3910   60.5160 C.ar      1 H1L        -0.0379
     11 C7        -32.1760  -26.6540   59.2450 C.ar      1 H1L        -0.0323
     12 C8        -32.7310  -26.0170   58.1460 C.ar      1 H1L         0.1212
     13 O8        -32.2060  -26.2650   56.8900 O.3       1 H1L        -0.2218
     14 C9        -33.0070  -26.9410   55.9840 C.ar      1 H1L         0.2365
     15 N9        -34.3270  -27.1370   56.1650 N.ar      1 H1L        -0.2297
     16 C10       -35.0550  -27.8070   55.2720 C.ar      1 H1L         0.0347
     17 C11       -34.4790  -28.2890   54.1020 C.ar      1 H1L         0.0599
     18 C12       -35.3270  -29.0370   53.1270 C.3       1 H1L         0.3703
     19 F1        -34.6210  -29.2090   52.0120 F         1 H1L        -0.2292
     20 F2        -36.4410  -28.3380   52.9020 F         1 H1L        -0.2292
     21 F3        -35.6350  -30.2360   53.6310 F         1 H1L        -0.2292
     22 C13       -33.1070  -28.0910   53.8810 C.ar      1 H1L        -0.0091
     23 C14       -32.3600  -27.4070   54.8500 C.ar      1 H1L         0.1292
     24 CL1       -30.6480  -27.0940   54.7140 Cl        1 H1L        -0.0595
     25 H         -33.9986  -27.0293   62.7396 H         1 H1L         0.0815
     26 H         -36.1212  -25.9636   63.4378 H         1 H1L         0.0276
     27 H         -35.1883  -24.6665   64.2586 H         1 H1L         0.0276
     28 H         -35.0817  -26.3600   64.8480 H         1 H1L         0.0276
     29 H         -35.0540  -24.1170   59.7094 H         1 H1L         0.0524
     30 H         -34.1680  -24.5722   57.4507 H         1 H1L         0.0545
     31 H         -32.2378  -26.8899   61.3793 H         1 H1L         0.0524
     32 H         -31.3620  -27.3571   59.1107 H         1 H1L         0.0545
     33 H         -36.1087  -27.9782   55.4602 H         1 H1L         0.1054
     34 H         -32.6341  -28.4601   52.9781 H         1 H1L         0.0914
@<TRIPOS>BOND
     1    1    2 ar 
     2    2    3 ar 
     3    2    4 1  
     4    4    5 1  
     5    4    6 1  
     6    6    7 1  
     7    7    8 ar 
     8    7   10 ar 
     9    8    9 ar 
    10    9   12 ar 
    11   10   11 ar 
    12   11   12 ar 
    13   12   13 1  
    14   13   14 1  
    15   14   15 ar 
    16   14   23 ar 
    17   15   16 ar 
    18   16   17 ar 
    19   17   18 1  
    20   17   22 ar 
    21   18   19 1  
    22   18   20 1  
    23   18   21 1  
    24   22   23 ar 
    25   23   24 1  
    26    4   25 1  
    27    5   26 1  
    28    5   27 1  
    29    5   28 1  
    30    8   29 1  
    31    9   30 1  
    32   10   31 1  
    33   11   32 1  
    34   16   33 1  
    35   22   34 1  
@<TRIPOS>SUBSTRUCTURE
     1 H1L         1

