### 
### Created by X-TOOL on Mon Sep 10 21:13:14 2018
### 

@<TRIPOS>MOLECULE
4g2w_ligand
   64    66     1     0     0
SMALL
GAST_HUCK


@<TRIPOS>ATOM
      1 CAQ        25.2740  -20.4470   22.7100 C.3       1 NI0         0.0697
      2 CAO        23.9730  -21.1600   22.4980 C.3       1 NI0        -0.0146
      3 NBC        23.9090  -21.8460   21.2370 N.4       1 NI0         0.2354
      4 CAD        23.4160  -23.2150   21.2580 C.3       1 NI0        -0.0430
      5 CAP        25.0440  -21.5520   20.4150 C.3       1 NI0        -0.0146
      6 CAR        26.3350  -21.8740   21.1040 C.3       1 NI0         0.0697
      7 NBD        26.4370  -21.2250   22.3790 N.am      1 NI0        -0.2250
      8 SBE        27.9190  -20.6760   22.7910 S.o2      1 NI0         0.0668
      9 OAF        28.0710  -20.5790   24.2570 O.2       1 NI0        -0.1514
     10 OAG        28.9180  -21.5980   22.2020 O.2       1 NI0        -0.1514
     11 CAV        28.0580  -19.0290   22.1340 C.ar      1 NI0         0.1012
     12 CAJ        28.3690  -18.8750   20.7700 C.ar      1 NI0        -0.0293
     13 CAH        27.8430  -17.9220   22.9580 C.ar      1 NI0        -0.0408
     14 CAI        27.9490  -16.6220   22.4100 C.ar      1 NI0        -0.0263
     15 CAX        28.2580  -16.4580   21.0430 C.ar      1 NI0         0.1080
     16 OAU        28.3800  -15.1760   20.4820 O.3       1 NI0        -0.3130
     17 CAN        27.5360  -14.1100   20.8610 C.3       1 NI0         0.0719
     18 CAK        27.8670  -12.7420   20.2900 C.3       1 NI0        -0.0276
     19 CAA        29.0630  -12.6440   19.3190 C.3       1 NI0        -0.0628
     20 CAY        28.4620  -17.5930   20.2330 C.ar      1 NI0         0.0440
     21 CAZ        28.8330  -17.4900   18.7560 C.ar      1 NI0         0.0940
     22 NAS        28.1900  -18.2760   17.8700 N.ar      1 NI0        -0.2884
     23 NAT        29.8250  -16.6580   18.3710 N.ar      1 NI0        -0.2578
     24 CBB        30.1790  -16.5700   17.0490 C.ar      1 NI0         0.1700
     25 OAE        31.1870  -15.6950   16.6870 O.3       1 NI0        -0.3125
     26 CBA        29.5130  -17.3700   16.0870 C.ar      1 NI0         0.0362
     27 CAM        29.9060  -17.2930   14.5960 C.3       1 NI0        -0.0167
     28 CAC        31.0950  -18.1150   14.1860 C.3       1 NI0        -0.0565
     29 CAW        28.4900  -18.2530   16.5540 C.ar      1 NI0         0.0324
     30 CAL        27.6830  -19.1590   15.6430 C.3       1 NI0        -0.0067
     31 CAB        26.3560  -18.5030   15.2810 C.3       1 NI0        -0.0531
     32 H1         25.3413  -20.1612   23.7701 H         1 NI0         0.0531
     33 H2         25.2763  -19.5416   22.0853 H         1 NI0         0.0531
     34 H3         23.1581  -20.4222   22.5376 H         1 NI0         0.0830
     35 H4         23.8408  -21.8960   23.3047 H         1 NI0         0.0830
     36 H5         23.1613  -21.3677   20.7592 H         1 NI0         0.2032
     37 H6         23.4178  -23.6211   20.2357 H         1 NI0         0.0778
     38 H7         22.3908  -23.2295   21.6564 H         1 NI0         0.0778
     39 H8         24.0667  -23.8293   21.8977 H         1 NI0         0.0778
     40 H9         25.0329  -20.4810   20.1642 H         1 NI0         0.0830
     41 H10        24.9768  -22.1456   19.4914 H         1 NI0         0.0830
     42 H11        27.1695  -21.5427   20.4686 H         1 NI0         0.0531
     43 H12        26.3969  -22.9621   21.2529 H         1 NI0         0.0531
     44 H13        28.5344  -19.7445   20.1442 H         1 NI0         0.0640
     45 H14        27.5978  -18.0573   24.0052 H         1 NI0         0.0633
     46 H15        27.7931  -15.7533   23.0393 H         1 NI0         0.0551
     47 H16        27.5709  -14.0308   21.9576 H         1 NI0         0.0617
     48 H17        26.5140  -14.3651   20.5441 H         1 NI0         0.0617
     49 H18        28.0757  -12.0730   21.1379 H         1 NI0         0.0289
     50 H19        26.9762  -12.3854   19.7521 H         1 NI0         0.0289
     51 H20        29.1828  -11.6015   18.9889 H         1 NI0         0.0231
     52 H21        28.8795  -13.2864   18.4452 H         1 NI0         0.0231
     53 H22        29.9790  -12.9741   19.8309 H         1 NI0         0.0231
     54 H23        31.3225  -15.7408   15.7478 H         1 NI0         0.2548
     55 H24        30.1260  -16.2415   14.3596 H         1 NI0         0.0407
     56 H25        29.0432  -17.6296   14.0025 H         1 NI0         0.0407
     57 H26        31.2792  -17.9818   13.1097 H         1 NI0         0.0250
     58 H27        30.8967  -19.1765   14.3954 H         1 NI0         0.0250
     59 H28        31.9795  -17.7884   14.7525 H         1 NI0         0.0250
     60 H29        27.4879  -20.1108   16.1588 H         1 NI0         0.0456
     61 H30        28.2552  -19.3508   14.7233 H         1 NI0         0.0456
     62 H31        25.7842  -19.1721   14.6212 H         1 NI0         0.0255
     63 H32        26.5466  -17.5518   14.7625 H         1 NI0         0.0255
     64 H33        25.7793  -18.3117   16.1980 H         1 NI0         0.0255
@<TRIPOS>BOND
     1    1    2 1  
     2    1    7 1  
     3    2    3 1  
     4    3    4 1  
     5    3    5 1  
     6    5    6 1  
     7    6    7 1  
     8    7    8 am 
     9    8    9 2  
    10    8   10 2  
    11    8   11 1  
    12   11   12 ar 
    13   11   13 ar 
    14   12   20 ar 
    15   13   14 ar 
    16   14   15 ar 
    17   15   16 1  
    18   15   20 ar 
    19   16   17 1  
    20   17   18 1  
    21   18   19 1  
    22   20   21 1  
    23   21   22 ar 
    24   21   23 ar 
    25   22   29 ar 
    26   23   24 ar 
    27   24   25 1  
    28   24   26 ar 
    29   26   27 1  
    30   26   29 ar 
    31   27   28 1  
    32   29   30 1  
    33   30   31 1  
    34    1   32 1  
    35    1   33 1  
    36    2   34 1  
    37    2   35 1  
    38    3   36 1  
    39    4   37 1  
    40    4   38 1  
    41    4   39 1  
    42    5   40 1  
    43    5   41 1  
    44    6   42 1  
    45    6   43 1  
    46   12   44 1  
    47   13   45 1  
    48   14   46 1  
    49   17   47 1  
    50   17   48 1  
    51   18   49 1  
    52   18   50 1  
    53   19   51 1  
    54   19   52 1  
    55   19   53 1  
    56   25   54 1  
    57   27   55 1  
    58   27   56 1  
    59   28   57 1  
    60   28   58 1  
    61   28   59 1  
    62   30   60 1  
    63   30   61 1  
    64   31   62 1  
    65   31   63 1  
    66   31   64 1  
@<TRIPOS>SUBSTRUCTURE
     1 NI0         1

