### 
### Created by X-TOOL on Mon Sep 10 21:13:13 2018
### 

@<TRIPOS>MOLECULE
4g2y_ligand
   59    62     1     0     0
SMALL
GAST_HUCK


@<TRIPOS>ATOM
      1 CAP        32.0830  -31.8340  -44.2420 C.3       1 NI5         0.0697
      2 CAN        30.6780  -32.3160  -44.0860 C.3       1 NI5        -0.0146
      3 NBB        30.1270  -32.0730  -42.7810 N.4       1 NI5         0.2354
      4 CAB        28.8000  -32.6380  -42.5390 C.3       1 NI5        -0.0430
      5 CAO        30.3720  -30.7490  -42.3040 C.3       1 NI5        -0.0146
      6 CAQ        31.8060  -30.3500  -42.4110 C.3       1 NI5         0.0697
      7 NBC        32.2590  -30.5050  -43.7560 N.am      1 NI5        -0.2250
      8 SBD        33.4770  -29.5600  -44.3360 S.o2      1 NI5         0.0675
      9 OAD        33.3270  -28.1730  -43.8030 O.2       1 NI5        -0.1513
     10 OAE        33.4640  -29.5370  -45.8260 O.2       1 NI5        -0.1513
     11 CAU        35.0130  -30.3230  -43.7830 C.ar      1 NI5         0.1045
     12 CAH        35.4970  -30.0950  -42.4980 C.ar      1 NI5        -0.0221
     13 CAF        35.7120  -31.1570  -44.6370 C.ar      1 NI5        -0.0379
     14 CAG        36.8940  -31.7570  -44.2100 C.ar      1 NI5        -0.0226
     15 CAW        37.3780  -31.5260  -42.9200 C.ar      1 NI5         0.1159
     16 OAT        38.5430  -32.1210  -42.5200 O.3       1 NI5        -0.3101
     17 CAK        39.2410  -33.0060  -43.3450 C.3       1 NI5         0.0729
     18 CAI        40.2930  -33.7090  -42.5700 C.3       1 NI5        -0.0274
     19 CAA        41.0780  -32.7100  -41.7130 C.3       1 NI5        -0.0628
     20 CAX        36.6640  -30.7130  -42.0580 C.ar      1 NI5         0.0762
     21 CAY        37.1170  -30.3960  -40.7140 C.2       1 NI5         0.1576
     22 NAR        36.2270  -30.2610  -39.6840 N.2       1 NI5        -0.3001
     23 CAV        36.6810  -29.9070  -38.4120 C.2       1 NI5        -0.0025
     24 CAL        36.0160  -29.6900  -37.0910 C.3       1 NI5        -0.0124
     25 CAJ        37.0110  -28.9370  -36.2720 C.3       1 NI5        -0.0373
     26 CAM        38.3550  -29.3240  -36.7740 C.3       1 NI5        -0.0250
     27 CAZ        38.1010  -29.6820  -38.2080 C.2       1 NI5         0.0209
     28 CBA        38.9920  -29.8370  -39.3030 C.2       1 NI5         0.2022
     29 OAC        40.3360  -29.6270  -39.1130 O.2       1 NI5        -0.4162
     30 NAS        38.4820  -30.1760  -40.5270 N.am      1 NI5        -0.2083
     31 H1         32.3482  -31.8578  -45.3093 H         1 NI5         0.0531
     32 H2         32.7510  -32.5058  -43.6831 H         1 NI5         0.0531
     33 H3         30.6592  -33.3995  -44.2749 H         1 NI5         0.0830
     34 H4         30.0500  -31.8032  -44.8294 H         1 NI5         0.0830
     35 H5         30.7102  -32.6351  -42.1810 H         1 NI5         0.2032
     36 H6         28.4781  -32.3928  -41.5161 H         1 NI5         0.0778
     37 H7         28.8393  -33.7307  -42.6589 H         1 NI5         0.0778
     38 H8         28.0845  -32.2154  -43.2598 H         1 NI5         0.0778
     39 H9         30.0705  -30.6950  -41.2475 H         1 NI5         0.0830
     40 H10        29.7668  -30.0454  -42.8945 H         1 NI5         0.0830
     41 H11        32.4110  -30.9856  -41.7478 H         1 NI5         0.0531
     42 H12        31.9144  -29.2977  -42.1096 H         1 NI5         0.0531
     43 H13        34.9593  -29.4290  -41.8328 H         1 NI5         0.0669
     44 H14        35.3400  -31.3434  -45.6380 H         1 NI5         0.0657
     45 H15        37.4418  -32.4071  -44.8826 H         1 NI5         0.0559
     46 H16        39.7095  -32.4440  -44.1664 H         1 NI5         0.0619
     47 H17        38.5401  -33.7455  -43.7596 H         1 NI5         0.0619
     48 H18        40.9820  -34.2108  -43.2653 H         1 NI5         0.0289
     49 H19        39.8227  -34.4577  -41.9156 H         1 NI5         0.0289
     50 H20        41.8535  -33.2445  -41.1447 H         1 NI5         0.0231
     51 H21        40.3924  -32.2077  -41.0147 H         1 NI5         0.0231
     52 H22        41.5517  -31.9608  -42.3644 H         1 NI5         0.0231
     53 H23        35.7759  -30.6531  -36.6170 H         1 NI5         0.0442
     54 H24        35.0944  -29.1024  -37.2148 H         1 NI5         0.0442
     55 H25        36.9104  -29.2067  -35.2103 H         1 NI5         0.0304
     56 H26        36.8588  -27.8541  -36.3912 H         1 NI5         0.0304
     57 H27        38.7498  -30.1865  -36.2171 H         1 NI5         0.0361
     58 H28        39.0607  -28.4838  -36.6973 H         1 NI5         0.0361
     59 H29        39.1025  -30.2682  -41.3058 H         1 NI5         0.2502
@<TRIPOS>BOND
     1    1    2 1  
     2    1    7 1  
     3    2    3 1  
     4    3    4 1  
     5    3    5 1  
     6    5    6 1  
     7    6    7 1  
     8    7    8 am 
     9    8    9 2  
    10    8   10 2  
    11    8   11 1  
    12   11   12 ar 
    13   11   13 ar 
    14   12   20 ar 
    15   13   14 ar 
    16   14   15 ar 
    17   15   16 1  
    18   15   20 ar 
    19   16   17 1  
    20   17   18 1  
    21   18   19 1  
    22   20   21 1  
    23   21   22 2  
    24   21   30 am 
    25   22   23 1  
    26   23   24 1  
    27   23   27 2  
    28   24   25 1  
    29   25   26 1  
    30   26   27 1  
    31   27   28 1  
    32   28   29 2  
    33   28   30 am 
    34    1   31 1  
    35    1   32 1  
    36    2   33 1  
    37    2   34 1  
    38    3   35 1  
    39    4   36 1  
    40    4   37 1  
    41    4   38 1  
    42    5   39 1  
    43    5   40 1  
    44    6   41 1  
    45    6   42 1  
    46   12   43 1  
    47   13   44 1  
    48   14   45 1  
    49   17   46 1  
    50   17   47 1  
    51   18   48 1  
    52   18   49 1  
    53   19   50 1  
    54   19   51 1  
    55   19   52 1  
    56   24   53 1  
    57   24   54 1  
    58   25   55 1  
    59   25   56 1  
    60   26   57 1  
    61   26   58 1  
    62   30   59 1  
@<TRIPOS>SUBSTRUCTURE
     1 NI5         1

