### 
### Created by X-TOOL on Mon Sep 10 21:13:10 2018
### 

@<TRIPOS>MOLECULE
4g31_ligand
   51    55     1     0     0
SMALL
GAST_HUCK


@<TRIPOS>ATOM
      1 C         -47.7950   12.4100    9.3600 C.ar      1 0WH         0.1405
      2 F         -51.5090    9.3760   -2.5890 F         1 0WH        -0.2203
      3 N         -47.4850   11.7710   10.5920 N.ar      1 0WH        -0.2758
      4 O         -45.9760   12.3650    0.7820 O.2       1 0WH        -0.3573
      5 C01       -48.5860   14.6970   10.0840 C.3       1 0WH         0.0447
      6 F01       -51.0700   10.8910   -4.0580 F         1 0WH        -0.2203
      7 N01       -48.2930   13.7290    9.1100 N.pl3     1 0WH        -0.2518
      8 C02       -48.4190   13.8540    7.7540 C.2       1 0WH         0.0395
      9 F02       -50.6960    8.7590   -4.5210 F         1 0WH        -0.2203
     10 N02       -48.1720   12.3320    1.4600 N.am      1 0WH        -0.1772
     11 C03       -48.0490   12.6880    7.1650 C.2       1 0WH        -0.0124
     12 N03       -46.9610    9.7170    7.0010 N.pl3     1 0WH        -0.3157
     13 C04       -48.0380   12.5320    5.6890 C.ar      1 0WH        -0.0563
     14 N04       -46.8500    9.8630    9.4500 N.ar      1 0WH        -0.2728
     15 C05       -46.7340   12.2890    5.0010 C.ar      1 0WH        -0.0767
     16 C06       -46.6890   12.1840    3.6700 C.ar      1 0WH        -0.0423
     17 C07       -47.9180   12.3110    2.8980 C.ar      1 0WH         0.0925
     18 C08       -49.5960   12.4130    1.2240 C.2       1 0WH         0.0518
     19 C09       -50.2280   12.7160    2.5170 C.2       1 0WH        -0.0664
     20 C10       -49.1770   12.6030    3.5590 C.ar      1 0WH        -0.0325
     21 C11       -49.2340   12.7140    4.9080 C.ar      1 0WH        -0.0790
     22 C12       -47.0990   12.4010    0.4370 C.2       1 0WH         0.2587
     23 C13       -47.4390   12.5330   -0.9610 C.3       1 0WH         0.0931
     24 C14       -47.7300   11.2120   -1.6940 C.ar      1 0WH         0.0063
     25 C15       -46.6920   10.1890   -1.8540 C.ar      1 0WH        -0.0292
     26 C16       -46.9920    9.0340   -2.5220 C.ar      1 0WH        -0.0374
     27 C17       -48.3160    8.8470   -3.0900 C.ar      1 0WH        -0.0374
     28 C18       -49.2910    9.8340   -2.9350 C.ar      1 0WH         0.0414
     29 C19       -48.9790   11.0440   -2.2250 C.ar      1 0WH        -0.0283
     30 C20       -50.6940    9.6840   -3.5230 C.3       1 0WH         0.3751
     31 C21       -47.6310   11.7780    8.2100 C.ar      1 0WH         0.0532
     32 C22       -47.1590   10.4890    8.2180 C.ar      1 0WH         0.1172
     33 C23       -47.0110   10.4900   10.5800 C.ar      1 0WH         0.0507
     34 H         -47.9669   15.5783    9.9163 H         1 0WH         0.0575
     35 H         -49.6384   14.9723   10.0157 H         1 0WH         0.0575
     36 H         -48.3793   14.2892   11.0735 H         1 0WH         0.0575
     37 H         -48.7615   14.7464    7.2302 H         1 0WH         0.0959
     38 H         -47.1753   10.1311    6.0938 H         1 0WH         0.1824
     39 H         -46.6078    8.7616    7.0549 H         1 0WH         0.1824
     40 H         -45.8187   12.1973    5.5857 H         1 0WH         0.0488
     41 H         -45.7397   12.0046    3.1653 H         1 0WH         0.0540
     42 H         -50.1044   12.2757    0.2696 H         1 0WH         0.0952
     43 H         -51.2741   12.9754    2.6799 H         1 0WH         0.0239
     44 H         -50.1802   12.9399    5.3996 H         1 0WH         0.0472
     45 H         -46.5739   12.9785   -1.4520 H         1 0WH         0.0682
     46 H         -48.3545   13.1229   -1.0053 H         1 0WH         0.0682
     47 H         -45.6938   10.3470   -1.4457 H         1 0WH         0.0807
     48 H         -46.2380    8.2540   -2.6282 H         1 0WH         0.0683
     49 H         -48.5486    7.9341   -3.6383 H         1 0WH         0.0804
     50 H         -49.7330   11.8228   -2.1105 H         1 0WH         0.0785
     51 H         -46.7670    9.9915   11.5181 H         1 0WH         0.0981
@<TRIPOS>BOND
     1    1    3 ar 
     2    1    7 1  
     3   31    1 ar 
     4   30    2 1  
     5    3   33 ar 
     6   22    4 2  
     7    7    5 1  
     8   30    6 1  
     9    8    7 1  
    10   11    8 2  
    11   30    9 1  
    12   10   17 1  
    13   10   18 1  
    14   22   10 am 
    15   13   11 1  
    16   11   31 1  
    17   32   12 1  
    18   15   13 ar 
    19   21   13 ar 
    20   14   32 ar 
    21   33   14 ar 
    22   16   15 ar 
    23   17   16 ar 
    24   17   20 ar 
    25   18   19 2  
    26   19   20 1  
    27   20   21 ar 
    28   23   22 1  
    29   24   23 1  
    30   24   25 ar 
    31   29   24 ar 
    32   26   25 ar 
    33   27   26 ar 
    34   28   27 ar 
    35   28   29 ar 
    36   28   30 1  
    37   31   32 ar 
    38    5   34 1  
    39    5   35 1  
    40    5   36 1  
    41    8   37 1  
    42   12   38 1  
    43   12   39 1  
    44   15   40 1  
    45   16   41 1  
    46   18   42 1  
    47   19   43 1  
    48   21   44 1  
    49   23   45 1  
    50   23   46 1  
    51   25   47 1  
    52   26   48 1  
    53   27   49 1  
    54   29   50 1  
    55   33   51 1  
@<TRIPOS>SUBSTRUCTURE
     1 0WH         1

