### 
### Created by X-TOOL on Mon Sep 10 21:13:11 2018
### 

@<TRIPOS>MOLECULE
4g34_ligand
   45    49     1     0     0
SMALL
GAST_HUCK


@<TRIPOS>ATOM
      1 N1         47.0180   -9.9350    7.0460 N.pl3     1 924        -0.3220
      2 C2         47.2140  -10.6190    8.2440 C.ar      1 924         0.1076
      3 N3         46.8670  -10.0060    9.3830 N.ar      1 924        -0.2988
      4 C4         47.0400  -10.6300   10.5460 C.ar      1 924        -0.0165
      5 C5         47.5620  -11.8880   10.7040 C.ar      1 924        -0.0384
      6 C6         47.9120  -12.5040    9.5250 C.ar      1 924         0.0462
      7 S7         48.5950  -14.0780    9.4050 S.3       1 924        -0.0332
      8 C8         48.6580  -13.9650    7.6940 C.2       1 924         0.0041
      9 C9         48.1840  -12.7580    7.2220 C.2       1 924        -0.0191
     10 C10        48.1470  -12.5700    5.7850 C.ar      1 924        -0.0488
     11 C11        46.9230  -12.4340    5.1510 C.ar      1 924        -0.0738
     12 C12        46.8350  -12.3090    3.7800 C.ar      1 924        -0.0406
     13 C13        48.0130  -12.3230    3.0670 C.ar      1 924         0.0943
     14 N14        48.2080  -12.2130    1.6830 N.am      1 924        -0.1763
     15 C15        49.6250  -12.2820    1.3920 C.2       1 924         0.0524
     16 C16        50.3490  -12.4390    2.7180 C.2       1 924        -0.0655
     17 C17        49.2240  -12.4450    3.6860 C.ar      1 924        -0.0298
     18 C18        49.3190  -12.5800    5.0510 C.ar      1 924        -0.0749
     19 C19        47.2030  -12.3330    0.7390 C.2       1 924         0.2586
     20 O20        46.0080  -12.2190    0.9750 O.2       1 924        -0.3572
     21 C21        47.6820  -12.5850   -0.6600 C.3       1 924         0.0870
     22 C22        47.6830  -11.3020   -1.4080 C.ar      1 924        -0.0227
     23 C23        48.8780  -10.7000   -1.7390 C.ar      1 924        -0.0579
     24 C24        48.8870   -9.5020   -2.4270 C.ar      1 924        -0.0681
     25 C25        47.6980   -8.9060   -2.7890 C.ar      1 924        -0.0684
     26 C26        46.5000   -9.5050   -2.4630 C.ar      1 924        -0.0681
     27 C27        46.4950  -10.6990   -1.7720 C.ar      1 924        -0.0579
     28 C28        47.7510  -11.8990    8.2780 C.ar      1 924         0.0309
     29 H          47.2713  -10.3739    6.1608 H         1 924         0.1781
     30 H          46.6212   -8.9954    7.0542 H         1 924         0.1781
     31 H          46.7417  -10.0962   11.4483 H         1 924         0.0709
     32 H          47.6886  -12.3589   11.6789 H         1 924         0.0543
     33 H          49.0320  -14.7606    7.0496 H         1 924         0.0775
     34 H          46.0108  -12.4256    5.7475 H         1 924         0.0503
     35 H          45.8717  -12.2034    3.2811 H         1 924         0.0543
     36 H          50.0859  -12.2308    0.4056 H         1 924         0.0953
     37 H          51.4186  -12.5250    2.9093 H         1 924         0.0242
     38 H          50.2873  -12.6914    5.5390 H         1 924         0.0499
     39 H          47.0205  -13.2977   -1.1527 H         1 924         0.0677
     40 H          48.6908  -12.9971   -0.6349 H         1 924         0.0677
     41 H          49.8196  -11.1710   -1.4568 H         1 924         0.0561
     42 H          49.8344   -9.0281   -2.6836 H         1 924         0.0600
     43 H          47.7050   -7.9614   -3.3328 H         1 924         0.0561
     44 H          45.5589   -9.0363   -2.7505 H         1 924         0.0600
     45 H          45.5470  -11.1697   -1.5115 H         1 924         0.0561
@<TRIPOS>BOND
     1    1    2 1  
     2    2    3 ar 
     3    2   28 ar 
     4    3    4 ar 
     5    4    5 ar 
     6    5    6 ar 
     7    6    7 1  
     8    6   28 ar 
     9    7    8 1  
    10    8    9 2  
    11    9   10 1  
    12    9   28 1  
    13   10   11 ar 
    14   10   18 ar 
    15   11   12 ar 
    16   12   13 ar 
    17   13   14 1  
    18   13   17 ar 
    19   14   15 1  
    20   14   19 am 
    21   15   16 2  
    22   16   17 1  
    23   17   18 ar 
    24   19   20 2  
    25   19   21 1  
    26   21   22 1  
    27   22   23 ar 
    28   22   27 ar 
    29   23   24 ar 
    30   24   25 ar 
    31   25   26 ar 
    32   26   27 ar 
    33    1   29 1  
    34    1   30 1  
    35    4   31 1  
    36    5   32 1  
    37    8   33 1  
    38   11   34 1  
    39   12   35 1  
    40   15   36 1  
    41   16   37 1  
    42   18   38 1  
    43   21   39 1  
    44   21   40 1  
    45   23   41 1  
    46   24   42 1  
    47   25   43 1  
    48   26   44 1  
    49   27   45 1  
@<TRIPOS>SUBSTRUCTURE
     1 924         1

