### 
### Created by X-TOOL on Mon Sep 10 21:13:10 2018
### 

@<TRIPOS>MOLECULE
4g3e_ligand
   41    44     1     0     0
SMALL
GAST_HUCK


@<TRIPOS>ATOM
      1 C4         50.6600   30.1950   -2.8550 C.1       1 0WC        -0.1166
      2 C5         51.6720   29.8080   -2.3830 C.1       1 0WC        -0.0846
      3 C6         52.8860   29.3390   -1.7880 C.ar      1 0WC         0.0114
      4 C7         53.9080   28.9350   -2.6430 C.ar      1 0WC        -0.0617
      5 C8         55.1010   28.4840   -2.1260 C.ar      1 0WC        -0.0715
      6 C10        56.5000   27.9560    0.0230 C.2       1 0WC        -0.0568
      7 N12        54.7150   28.6720    1.4660 N.pl3     1 0WC        -0.2027
      8 C13        54.2900   28.8100    0.1300 C.ar      1 0WC         0.0892
      9 C15        53.9390   28.9580    2.5970 C.ar      1 0WC         0.1799
     10 C17        51.9580   29.8610    3.4200 C.ar      1 0WC         0.1783
     11 C20        53.4200   28.9810    4.9530 C.ar      1 0WC         0.0197
     12 C21        54.3060   28.6400    3.9360 C.ar      1 0WC         0.1083
     13 C26        46.1210   29.2260   -1.7610 C.2       1 0WC         0.0669
     14 C1         49.3540   32.1780   -3.3590 C.3       1 0WC        -0.0537
     15 C2         49.4160   30.6660   -3.5000 C.3       1 0WC         0.1304
     16 O3         49.3780   30.3720   -4.9060 O.3       1 0WC        -0.4231
     17 C9         55.2920   28.4170   -0.7580 C.ar      1 0WC        -0.0205
     18 C11        56.1430   28.3100    1.4720 C.2       1 0WC         0.0461
     19 C14        53.0780   29.2810   -0.4030 C.ar      1 0WC        -0.0225
     20 N16        52.7650   29.5630    2.4090 N.ar      1 0WC        -0.2266
     21 N18        50.7500   30.4660    3.1620 N.pl3     1 0WC        -0.3050
     22 N19        52.2670   29.5790    4.6730 N.ar      1 0WC        -0.2665
     23 CL         55.7950   27.8490    4.4090 Cl        1 0WC        -0.0711
     24 C23        48.2310   29.9950   -2.8330 C.2       1 0WC         0.1241
     25 N24        48.1600   28.7400   -2.5510 N.2       1 0WC        -0.2499
     26 C25        47.0530   28.2990   -1.9770 C.2       1 0WC         0.0593
     27 S27        46.7740   30.7500   -2.3530 S.3       1 0WC         0.0290
     28 H1         53.7639   28.9757   -3.7166 H         1 0WC         0.0537
     29 H2         55.8968   28.1791   -2.7960 H         1 0WC         0.0546
     30 H3         57.4072   27.4851   -0.3528 H         1 0WC         0.0321
     31 H4         53.6726   28.7568    5.9831 H         1 0WC         0.0868
     32 H5         45.1438   29.0710   -1.3060 H         1 0WC         0.1240
     33 H6         48.4347   32.5530   -3.8325 H         1 0WC         0.0142
     34 H7         50.2293   32.6283   -3.8500 H         1 0WC         0.0142
     35 H8         49.3531   32.4471   -2.2924 H         1 0WC         0.0142
     36 H9         50.1216   30.7799   -5.3339 H         1 0WC         0.1928
     37 H10        56.8107   28.2965    2.3322 H         1 0WC         0.0966
     38 H11        52.2858   29.6018    0.2637 H         1 0WC         0.0573
     39 H12        50.4857   30.6961    2.1934 H         1 0WC         0.1826
     40 H13        50.1097   30.6889    3.9374 H         1 0WC         0.1826
     41 H14        46.9137   27.2547   -1.7012 H         1 0WC         0.0846
@<TRIPOS>BOND
     1    1    2 3  
     2   15    1 1  
     3    2    3 1  
     4    3    4 ar 
     5    3   19 ar 
     6    4    5 ar 
     7    5   17 ar 
     8   17    6 1  
     9    6   18 2  
    10    8    7 1  
    11    7    9 1  
    12    7   18 1  
    13    8   17 ar 
    14   19    8 ar 
    15    9   12 ar 
    16    9   20 ar 
    17   20   10 ar 
    18   10   21 1  
    19   10   22 ar 
    20   12   11 ar 
    21   11   22 ar 
    22   12   23 1  
    23   13   26 2  
    24   27   13 1  
    25   15   14 1  
    26   15   16 1  
    27   24   15 1  
    28   24   25 2  
    29   24   27 1  
    30   25   26 1  
    31    4   28 1  
    32    5   29 1  
    33    6   30 1  
    34   11   31 1  
    35   13   32 1  
    36   14   33 1  
    37   14   34 1  
    38   14   35 1  
    39   16   36 1  
    40   18   37 1  
    41   19   38 1  
    42   21   39 1  
    43   21   40 1  
    44   26   41 1  
@<TRIPOS>SUBSTRUCTURE
     1 0WC         1

