### 
### Created by X-TOOL on Mon Sep 10 21:13:09 2018
### 

@<TRIPOS>MOLECULE
4g3f_ligand
   32    34     1     0     0
SMALL
GAST_HUCK


@<TRIPOS>ATOM
      1 C7         15.3260   10.2580    6.0930 C.ar      1 0WB        -0.0126
      2 C2         17.6930   10.5210    6.4540 C.ar      1 0WB         0.1082
      3 C10        15.8430   11.8820    3.5860 C.2       1 0WB         0.1982
      4 C4         16.3550    9.4700    8.1290 C.ar      1 0WB        -0.0487
      5 O1         18.8890   10.9660    5.9880 O.3       1 0WB        -0.3396
      6 C3         17.6040    9.9050    7.6940 C.ar      1 0WB        -0.0438
      7 C5         15.2340    9.6470    7.3370 C.ar      1 0WB         0.1111
      8 F6         14.0200    9.2180    7.7670 F         1 0WB        -0.1958
      9 C8         16.5630   10.7060    5.6610 C.ar      1 0WB         0.0959
     10 N9         16.7690   11.3240    4.4270 N.pl3     1 0WB        -0.2403
     11 N11        14.5530   11.9520    3.7250 N.2       1 0WB        -0.3093
     12 C12        13.9080   12.5610    2.7190 C.2       1 0WB         0.0082
     13 C13        14.6780   13.0230    1.7160 C.2       1 0WB         0.0108
     14 S14        16.3560   12.6480    2.0820 S.3       1 0WB         0.0206
     15 C15        12.4390   12.7580    2.6970 C.ar      1 0WB        -0.0143
     16 C16        11.7430   12.7120    3.8980 C.ar      1 0WB        -0.0235
     17 C17        10.3640   12.9190    3.9030 C.ar      1 0WB         0.0930
     18 C18         9.6970   13.1730    2.7040 C.ar      1 0WB        -0.0301
     19 C19        10.3920   13.2140    1.5100 C.ar      1 0WB        -0.0537
     20 C20        11.7640   13.0170    1.5010 C.ar      1 0WB        -0.0502
     21 C21         9.6580   12.8800    5.1500 C.1       1 0WB         0.0999
     22 N22         9.1210   12.8440    6.1520 N.1       1 0WB        -0.3282
     23 H1         14.4461   10.3818    5.4721 H         1 0WB         0.0491
     24 H2         16.2599    8.9889    9.0957 H         1 0WB         0.0480
     25 H3         19.4929   10.2357    5.9207 H         1 0WB         0.2432
     26 H4         18.4856    9.7658    8.3092 H         1 0WB         0.0498
     27 H5         17.7468   11.3661    4.1061 H         1 0WB         0.2184
     28 H6         14.3214   13.5418    0.8274 H         1 0WB         0.0672
     29 H7         12.2685   12.5164    4.8257 H         1 0WB         0.0699
     30 H8          8.6259   13.3394    2.7090 H         1 0WB         0.0691
     31 H9          9.8646   13.4001    0.5814 H         1 0WB         0.0632
     32 H10        12.3128   13.0638    0.5673 H         1 0WB         0.0664
@<TRIPOS>BOND
     1    1    7 ar 
     2    9    1 ar 
     3    2    5 1  
     4    2    6 ar 
     5    9    2 ar 
     6   10    3 1  
     7    3   11 2  
     8    3   14 1  
     9    6    4 ar 
    10    7    4 ar 
    11    7    8 1  
    12    9   10 1  
    13   11   12 1  
    14   12   13 2  
    15   12   15 1  
    16   13   14 1  
    17   15   16 ar 
    18   15   20 ar 
    19   16   17 ar 
    20   17   18 ar 
    21   17   21 1  
    22   18   19 ar 
    23   19   20 ar 
    24   21   22 3  
    25    1   23 1  
    26    4   24 1  
    27    5   25 1  
    28    6   26 1  
    29   10   27 1  
    30   13   28 1  
    31   16   29 1  
    32   18   30 1  
    33   19   31 1  
    34   20   32 1  
@<TRIPOS>SUBSTRUCTURE
     1 0WB         1

