### 
### Created by X-TOOL on Mon Sep 10 21:13:10 2018
### 

@<TRIPOS>MOLECULE
4g3g_ligand
   30    32     1     0     0
SMALL
GAST_HUCK


@<TRIPOS>ATOM
      1 C4         16.4670    9.3920    8.4170 C.ar      1 0WA        -0.0487
      2 C5         15.3410    9.4860    7.6060 C.ar      1 0WA         0.1111
      3 C7         15.4260   10.0450    6.3380 C.ar      1 0WA        -0.0126
      4 C8         16.6460   10.5270    5.8690 C.ar      1 0WA         0.0959
      5 C10        15.8470   11.6890    3.7900 C.2       1 0WA         0.1995
      6 C13        14.5270   12.8630    2.0040 C.2       1 0WA         0.0170
      7 C15        12.3950   12.5230    3.1820 C.ar      1 0WA        -0.0069
      8 C17        10.2660   12.9670    2.1910 C.ar      1 0WA         0.0056
      9 C20        11.7400   12.2990    4.4040 C.ar      1 0WA        -0.0324
     10 O1         18.9700   10.8760    6.2300 O.3       1 0WA        -0.3396
     11 C2         17.7760   10.4180    6.6870 C.ar      1 0WA         0.1082
     12 C3         17.6870    9.8530    7.9550 C.ar      1 0WA        -0.0438
     13 F6         14.1530    9.0270    8.0570 F         1 0WA        -0.1958
     14 N9         16.8150   11.1000    4.5940 N.pl3     1 0WA        -0.2402
     15 N11        14.5740   11.7560    4.0030 N.2       1 0WA        -0.3072
     16 C12        13.8540   12.3870    3.0710 C.2       1 0WA         0.0163
     17 S14        16.2120   12.4740    2.2550 S.3       1 0WA         0.0255
     18 C16        11.6390   12.8630    2.0530 C.ar      1 0WA        -0.0324
     19 N18         9.6830   12.7540    3.3610 N.ar      1 0WA        -0.3039
     20 C19        10.3630   12.4310    4.4560 C.ar      1 0WA         0.0056
     21 H1         16.3890    8.9590    9.4077 H         1 0WA         0.0480
     22 H2         14.5427   10.1064    5.7127 H         1 0WA         0.0491
     23 H3         14.1022   13.3887    1.1501 H         1 0WA         0.0725
     24 H4          9.6599   13.2261    1.3305 H         1 0WA         0.0807
     25 H5         12.3024   12.0277    5.2901 H         1 0WA         0.0682
     26 H6         19.6366   10.7340    6.8917 H         1 0WA         0.2432
     27 H7         18.5701    9.7742    8.5788 H         1 0WA         0.0498
     28 H8         17.7711   11.0801    4.2114 H         1 0WA         0.2184
     29 H9         12.1169   13.0400    1.0963 H         1 0WA         0.0682
     30 H10         9.8388   12.2707    5.3912 H         1 0WA         0.0807
@<TRIPOS>BOND
     1    2    1 ar 
     2    1   12 ar 
     3    3    2 ar 
     4    2   13 1  
     5    4    3 ar 
     6    4   11 ar 
     7   14    4 1  
     8    5   14 1  
     9    5   15 2  
    10   17    5 1  
    11   16    6 2  
    12    6   17 1  
    13    7    9 ar 
    14    7   16 1  
    15    7   18 ar 
    16   18    8 ar 
    17    8   19 ar 
    18    9   20 ar 
    19   11   10 1  
    20   11   12 ar 
    21   15   16 1  
    22   19   20 ar 
    23    1   21 1  
    24    3   22 1  
    25    6   23 1  
    26    8   24 1  
    27    9   25 1  
    28   10   26 1  
    29   12   27 1  
    30   14   28 1  
    31   18   29 1  
    32   20   30 1  
@<TRIPOS>SUBSTRUCTURE
     1 0WA         1

