### 
### Created by X-TOOL on Mon Sep 10 21:13:12 2018
### 

@<TRIPOS>MOLECULE
4g4p_ligand
   20    19     1     0     0
SMALL
GAST_HUCK


@<TRIPOS>ATOM
      1 N          27.6690   21.6780   28.4600 N.4       1 GLN         0.2328
      2 CA         27.2940   20.7900   27.3240 C.3       1 GLN         0.0304
      3 C          25.9120   21.1230   26.8390 C.2       1 GLN         0.0846
      4 O          25.1950   21.8720   27.5230 O.co2     1 GLN        -0.5643
      5 CB         27.3570   19.3160   27.7090 C.3       1 GLN         0.0192
      6 CG         26.3600   18.8510   28.7610 C.3       1 GLN         0.0437
      7 CD         26.5040   17.3670   29.0820 C.2       1 GLN         0.1738
      8 OE1        27.0650   16.5850   28.3040 O.2       1 GLN        -0.3973
      9 NE2        25.9840   16.9720   30.2420 N.am      1 GLN        -0.3009
     10 OXT        25.5230   20.6580   25.7540 O.co2     1 GLN        -0.5643
     11 H1         28.5973   21.4451   28.7763 H         1 GLN         0.2010
     12 H2         27.0147   21.5508   29.2161 H         1 GLN         0.2010
     13 H3         27.6488   22.6389   28.1562 H         1 GLN         0.2010
     14 H4         28.0059   20.9635   26.5036 H         1 GLN         0.1026
     15 H5         28.3678   19.1125   28.0921 H         1 GLN         0.0363
     16 H6         27.1839   18.7239   26.7983 H         1 GLN         0.0363
     17 H7         25.3415   19.0346   28.3882 H         1 GLN         0.0505
     18 H8         26.5231   19.4292   29.6824 H         1 GLN         0.0505
     19 H9         26.0431   16.0119   30.5153 H         1 GLN         0.1814
     20 H10        25.5343   17.6354   30.8401 H         1 GLN         0.1814
@<TRIPOS>BOND
     1    1    2 1  
     2    2    3 1  
     3    2    5 1  
     4    3    4 ar 
     5    3   10 ar 
     6    5    6 1  
     7    6    7 1  
     8    7    8 2  
     9    7    9 am 
    10    1   11 1  
    11    1   12 1  
    12    1   13 1  
    13    2   14 1  
    14    5   15 1  
    15    5   16 1  
    16    6   17 1  
    17    6   18 1  
    18    9   19 1  
    19    9   20 1  
@<TRIPOS>SUBSTRUCTURE
     1 GLN         1

