### 
### Created by X-TOOL on Mon Sep 10 21:13:09 2018
### 

@<TRIPOS>MOLECULE
4g55_ligand
   41    44     1     0     0
SMALL
GAST_HUCK


@<TRIPOS>ATOM
      1 CBA        47.8060   -5.4140   23.6060 C.ar      1 VH2         0.0075
      2 CAP        47.8210   -4.1760   24.3060 C.ar      1 VH2        -0.0522
      3 CAG        47.8760   -2.9210   23.6620 C.ar      1 VH2        -0.0611
      4 CAF        47.9700   -2.9430   22.2610 C.ar      1 VH2        -0.0612
      5 CAN        47.9880   -4.1530   21.5460 C.ar      1 VH2        -0.0540
      6 CAZ        47.8610   -5.4010   22.1860 C.ar      1 VH2        -0.0160
      7 CAO        47.8660   -6.5990   21.4590 C.ar      1 VH2        -0.0539
      8 CAH        47.8050   -7.8390   22.0920 C.ar      1 VH2        -0.0594
      9 CAK        47.7130   -7.8710   23.4800 C.ar      1 VH2        -0.0357
     10 CAW        47.6950   -6.6860   24.2280 C.ar      1 VH2         0.1034
     11 SBB        47.6230   -6.8910   25.9720 S.o2      1 VH2         0.0433
     12 OAB        46.6250   -5.9120   26.4900 O.2       1 VH2        -0.1623
     13 OAC        47.1820   -8.3380   26.3270 O.2       1 VH2        -0.1623
     14 NAR        49.1290   -6.4930   26.6050 N.2       1 VH2        -0.2242
     15 CAV        50.1280   -7.3110   26.5680 C.2       1 VH2         0.2158
     16 SAS        50.0480   -9.0220   26.1350 S.3       1 VH2         0.0449
     17 NAQ        51.3780   -6.9290   26.8670 N.am      1 VH2        -0.1863
     18 CAX        52.2550   -7.9340   26.7580 C.2       1 VH2         0.2620
     19 OAA        53.4430   -7.7070   26.9920 O.2       1 VH2        -0.3652
     20 CAY        51.7920   -9.1540   26.3770 C.2       1 VH2         0.1293
     21 CAE        52.6000  -10.2520   26.2510 C.2       1 VH2        -0.0247
     22 CAU        52.1410  -11.5420   25.9420 C.ar      1 VH2        -0.0244
     23 CAL        50.8950  -11.9940   26.3750 C.ar      1 VH2        -0.0541
     24 CAI        50.4790  -13.2680   26.0780 C.ar      1 VH2        -0.0535
     25 CAT        51.2790  -14.0800   25.3530 C.ar      1 VH2         0.0113
     26 BR         50.6940  -15.9160   24.8860 Br        1 VH2        -0.0509
     27 CAJ        52.5540  -13.7080   24.9280 C.ar      1 VH2        -0.0535
     28 CAM        52.9650  -12.4050   25.2280 C.ar      1 VH2        -0.0541
     29 H1         47.7885   -4.1972   25.3893 H         1 VH2         0.0624
     30 H2         47.8472   -1.9912   24.2185 H         1 VH2         0.0618
     31 H3         48.0300   -2.0061   21.7190 H         1 VH2         0.0618
     32 H4         48.1032   -4.1247   20.4685 H         1 VH2         0.0624
     33 H5         47.9186   -6.5602   20.3770 H         1 VH2         0.0624
     34 H6         47.8287   -8.7573   21.5164 H         1 VH2         0.0618
     35 H7         47.6544   -8.8258   23.9899 H         1 VH2         0.0637
     36 H8         51.6265   -5.9997   27.1401 H         1 VH2         0.2440
     37 H9         53.6700  -10.1155   26.4005 H         1 VH2         0.0603
     38 H10        50.2520  -11.3364   26.9487 H         1 VH2         0.0617
     39 H11        49.5138  -13.6206   26.4233 H         1 VH2         0.0639
     40 H12        53.1963  -14.3961   24.3905 H         1 VH2         0.0639
     41 H13        53.9397  -12.0632   24.8992 H         1 VH2         0.0617
@<TRIPOS>BOND
     1    1    2 ar 
     2    1    6 ar 
     3    1   10 ar 
     4    2    3 ar 
     5    3    4 ar 
     6    4    5 ar 
     7    5    6 ar 
     8    6    7 ar 
     9    7    8 ar 
    10    8    9 ar 
    11    9   10 ar 
    12   10   11 1  
    13   11   12 2  
    14   11   13 2  
    15   11   14 1  
    16   14   15 2  
    17   15   16 1  
    18   15   17 1  
    19   16   20 1  
    20   17   18 am 
    21   18   19 2  
    22   18   20 1  
    23   20   21 2  
    24   21   22 1  
    25   22   23 ar 
    26   22   28 ar 
    27   23   24 ar 
    28   24   25 ar 
    29   25   26 1  
    30   25   27 ar 
    31   27   28 ar 
    32    2   29 1  
    33    3   30 1  
    34    4   31 1  
    35    5   32 1  
    36    7   33 1  
    37    8   34 1  
    38    9   35 1  
    39   17   36 1  
    40   21   37 1  
    41   23   38 1  
    42   24   39 1  
    43   27   40 1  
    44   28   41 1  
@<TRIPOS>SUBSTRUCTURE
     1 VH2         1

