### 
### Created by X-TOOL on Mon Sep 10 21:13:13 2018
### 

@<TRIPOS>MOLECULE
4g5f_ligand
   20    21     1     0     0
SMALL
GAST_HUCK


@<TRIPOS>ATOM
      1 OAA        15.3510   12.9380    3.7350 O.co2     1 0JD        -0.5660
      2 CAJ        15.3980   11.8060    3.4780 C.2       1 0JD         0.0708
      3 OAB        15.6690   11.3670    2.3650 O.co2     1 0JD        -0.5660
      4 CAM        15.1710   10.6630    4.4500 C.3       1 0JD         0.1576
      5 OAI        14.5400   11.2010    5.5880 O.3       1 0JD        -0.3018
      6 CAL        14.0900   10.2450    6.4410 C.ar      1 0JD         0.1225
      7 CAF        13.6780   10.6390    7.6740 C.ar      1 0JD        -0.0413
      8 CAD        13.3580    9.6910    8.6100 C.ar      1 0JD        -0.0819
      9 CAC        13.4400    8.3710    8.3060 C.ar      1 0JD        -0.0819
     10 CAE        13.8380    7.9630    7.0570 C.ar      1 0JD        -0.0414
     11 CAK        14.1550    8.9000    6.1240 C.ar      1 0JD         0.1202
     12 OAH        14.3670    8.4670    4.8490 O.3       1 0JD        -0.3171
     13 CAG        14.4360    9.4920    3.8830 C.3       1 0JD         0.1097
     14 H1         16.1594   10.2900    4.7566 H         1 0JD         0.0844
     15 H2         13.6031   11.6932    7.9150 H         1 0JD         0.0509
     16 H3         13.0374    9.9972    9.5992 H         1 0JD         0.0495
     17 H4         13.1886    7.6310    9.0572 H         1 0JD         0.0495
     18 H5         13.8988    6.9075    6.8177 H         1 0JD         0.0509
     19 H6         14.9666    9.1220    2.9933 H         1 0JD         0.0658
     20 H7         13.4181    9.7994    3.6015 H         1 0JD         0.0658
@<TRIPOS>BOND
     1    1    2 ar 
     2    2    3 ar 
     3    2    4 1  
     4    4    5 1  
     5    4   13 1  
     6    5    6 1  
     7    6    7 ar 
     8    6   11 ar 
     9    7    8 ar 
    10    8    9 ar 
    11    9   10 ar 
    12   10   11 ar 
    13   11   12 1  
    14   12   13 1  
    15    4   14 1  
    16    7   15 1  
    17    8   16 1  
    18    9   17 1  
    19   10   18 1  
    20   13   19 1  
    21   13   20 1  
@<TRIPOS>SUBSTRUCTURE
     1 0JD         1

