### 
### Created by X-TOOL on Mon Sep 10 21:13:12 2018
### 

@<TRIPOS>MOLECULE
4g5y_ligand
   20    20     1     0     0
SMALL
GAST_HUCK


@<TRIPOS>ATOM
      1 CAA        13.8780   10.2280    6.7540 C.3       1 0OC         0.0176
      2 NAJ        13.9580    9.2120    7.7850 N.am      1 0OC        -0.2427
      3 CAB        13.7960    7.7860    7.4870 C.3       1 0OC         0.0176
      4 SAK        13.2480    9.7080    9.2370 S.o2      1 0OC         0.0585
      5 OAC        12.4750   10.9840    9.1880 O.2       1 0OC        -0.1532
      6 OAD        12.5210    8.5750    9.8230 O.2       1 0OC        -0.1532
      7 CAI        14.7200    9.9480   10.0240 C.2       1 0OC         0.0908
      8 CAF        15.4300    8.9000   10.4560 C.2       1 0OC        -0.0529
      9 CAE        16.5730    9.2870   11.0480 C.2       1 0OC        -0.0068
     10 SAH        16.6650   11.0170   10.9340 S.3       1 0OC        -0.0447
     11 CAG        15.1830   11.1930   10.1730 C.2       1 0OC         0.0176
     12 H1         14.3527    9.8553    5.8344 H         1 0OC         0.0442
     13 H2         14.3981   11.1361    7.0929 H         1 0OC         0.0442
     14 H3         12.8226   10.4635    6.5523 H         1 0OC         0.0442
     15 H4         14.2859    7.5535    6.5300 H         1 0OC         0.0442
     16 H5         12.7249    7.5450    7.4186 H         1 0OC         0.0442
     17 H6         14.2557    7.1893    8.2887 H         1 0OC         0.0442
     18 H7         15.1205    7.8621   10.3422 H         1 0OC         0.0422
     19 H8         17.3085    8.6335   11.5148 H         1 0OC         0.0711
     20 H9         14.7014   12.1203    9.8663 H         1 0OC         0.0730
@<TRIPOS>BOND
     1    1    2 1  
     2    2    3 1  
     3    2    4 am 
     4    4    5 2  
     5    4    6 2  
     6    4    7 1  
     7    7    8 1  
     8    7   11 2  
     9    8    9 2  
    10    9   10 1  
    11   10   11 1  
    12    1   12 1  
    13    1   13 1  
    14    1   14 1  
    15    3   15 1  
    16    3   16 1  
    17    3   17 1  
    18    8   18 1  
    19    9   19 1  
    20   11   20 1  
@<TRIPOS>SUBSTRUCTURE
     1 0OC         1

