### 
### Created by X-TOOL on Sun Sep  9 21:52:01 2018
### 

@<TRIPOS>MOLECULE
4g68_ligand
   52    54     1     0     0
SMALL
GAST_HUCK


@<TRIPOS>ATOM
      1 C1         -3.4270   23.8570   20.6840 C.2       1 NON         0.2656
      2 C2         -2.3300   24.4640   21.5900 C.3       1 NON         0.1832
      3 C3         -1.2390   23.4750   22.0250 C.3       1 NON         0.1280
      4 C4         -1.8590   22.1220   22.4160 C.3       1 NON         0.1199
      5 C5         -2.7290   21.5970   21.2750 C.3       1 NON         0.1057
      6 O1         -3.7470   24.5930   19.5460 O.2       1 NON        -0.3674
      7 O2         -1.7520   25.6330   21.1540 O.3       1 NON        -0.3674
      8 O3         -0.5440   24.0710   23.0590 O.3       1 NON        -0.3840
      9 O4         -0.9550   21.1920   22.9680 O.3       1 NON        -0.3400
     10 O5         -3.3760   22.4810   20.4850 O.3       1 NON        -0.2721
     11 C1B        -0.4330   21.3340   24.1360 C.3       1 NON         0.1880
     12 C2B        -0.7580   20.0400   24.8880 C.3       1 NON         0.1341
     13 C3B        -0.0130   20.1360   26.2390 C.3       1 NON         0.1141
     14 C4B         1.4530   20.2570   25.8900 C.3       1 NON         0.1134
     15 C5B         1.6920   21.4960   25.0050 C.3       1 NON         0.0796
     16 O2B        -2.1620   20.0500   25.1450 O.3       1 NON        -0.3841
     17 O3B        -0.2420   18.8500   26.8530 O.3       1 NON        -0.3864
     18 O4B         2.1360   20.4330   27.1360 O.3       1 NON        -0.3405
     19 O5B         0.9190   21.3340   23.8090 O.3       1 NON        -0.3460
     20 C1B         3.4460   19.9660   27.2430 C.3       1 NON         0.1880
     21 C2B         4.1510   20.7750   28.3270 C.3       1 NON         0.1341
     22 C3B         5.5570   20.1910   28.5080 C.3       1 NON         0.1137
     23 C4B         5.5330   18.6520   28.6900 C.3       1 NON         0.1069
     24 C5B         4.6170   17.9400   27.6530 C.3       1 NON         0.0792
     25 O2B         4.1500   22.1400   27.9620 O.3       1 NON        -0.3841
     26 O3B         6.1320   20.8570   29.6540 O.3       1 NON        -0.3864
     27 O4B         6.8400   18.0740   28.6270 O.3       1 NON        -0.3869
     28 O5B         3.3580   18.5990   27.5780 O.3       1 NON        -0.3461
     29 H1         -2.8635   24.7357   22.5128 H         1 NON         0.0881
     30 H2         -0.5482   23.3041   21.1862 H         1 NON         0.0673
     31 H3         -2.5573   22.3450   23.2361 H         1 NON         0.0652
     32 H4         -3.4938   20.9473   21.7254 H         1 NON         0.0640
     33 H5         -2.0773   20.9980   20.6220 H         1 NON         0.0640
     34 H6         -1.2434   26.0157   21.8592 H         1 NON         0.2136
     35 H7         -0.1849   24.8989   22.7619 H         1 NON         0.2102
     36 H8         -0.7596   22.2349   24.6761 H         1 NON         0.0937
     37 H9         -0.4582   19.1467   24.3205 H         1 NON         0.0671
     38 H10        -0.3602   20.9701   26.8665 H         1 NON         0.0648
     39 H11         1.8052   19.3519   25.3735 H         1 NON         0.0647
     40 H12         2.7597   21.5757   24.7528 H         1 NON         0.0587
     41 H13         1.3722   22.4039   25.5374 H         1 NON         0.0587
     42 H14        -2.3876   19.3084   25.6942 H         1 NON         0.2101
     43 H15        -1.1617   18.7659   27.0756 H         1 NON         0.2100
     44 H16         3.9800   20.0841   26.2886 H         1 NON         0.0937
     45 H17         3.6039   20.6710   29.2756 H         1 NON         0.0671
     46 H18         6.1596   20.4198   27.6166 H         1 NON         0.0647
     47 H19         5.1247   18.4518   29.6916 H         1 NON         0.0643
     48 H20         4.4628   16.8952   27.9607 H         1 NON         0.0587
     49 H21         5.0994   17.9638   26.6647 H         1 NON         0.0587
     50 H22         3.2538   22.4403   27.8659 H         1 NON         0.2101
     51 H23         7.0246   20.5566   29.7786 H         1 NON         0.2100
     52 H24         7.4058   18.5036   29.2577 H         1 NON         0.2100
@<TRIPOS>BOND
     1    1    2 1  
     2    1    6 2  
     3    1   10 1  
     4    2    3 1  
     5    2    7 1  
     6    3    4 1  
     7    3    8 1  
     8    4    5 1  
     9    4    9 1  
    10    5   10 1  
    11    9   11 1  
    12   11   12 1  
    13   11   19 1  
    14   12   13 1  
    15   12   16 1  
    16   13   14 1  
    17   13   17 1  
    18   14   15 1  
    19   14   18 1  
    20   15   19 1  
    21   18   20 1  
    22   20   21 1  
    23   20   28 1  
    24   21   22 1  
    25   21   25 1  
    26   22   23 1  
    27   22   26 1  
    28   23   24 1  
    29   23   27 1  
    30   24   28 1  
    31    2   29 1  
    32    3   30 1  
    33    4   31 1  
    34    5   32 1  
    35    5   33 1  
    36    7   34 1  
    37    8   35 1  
    38   11   36 1  
    39   12   37 1  
    40   13   38 1  
    41   14   39 1  
    42   15   40 1  
    43   15   41 1  
    44   16   42 1  
    45   17   43 1  
    46   20   44 1  
    47   21   45 1  
    48   22   46 1  
    49   23   47 1  
    50   24   48 1  
    51   24   49 1  
    52   25   50 1  
    53   26   51 1  
    54   27   52 1  
@<TRIPOS>SUBSTRUCTURE
     1 NON         1

