### 
### Created by X-TOOL on Mon Sep 10 21:13:09 2018
### 

@<TRIPOS>MOLECULE
4g69_ligand
  100   100     1     0     0
SMALL
GAST_HUCK


@<TRIPOS>ATOM
      1 N           0.8920  -13.2240   26.2650 N.4       1 TYR         0.2392
      2 CA          0.1790  -14.3860   26.7800 C.3       1 TYR         0.0730
      3 C          -1.0340  -14.7640   25.9410 C.2       1 TYR         0.2286
      4 O          -1.2000  -15.9390   25.6150 O.2       1 TYR        -0.3905
      5 CB         -0.2160  -14.1960   28.2440 C.3       1 TYR         0.0365
      6 CG          0.7680  -14.8250   29.2020 C.ar      1 TYR        -0.0460
      7 CD1         0.7610  -16.1980   29.4340 C.ar      1 TYR        -0.0684
      8 CD2         1.7110  -14.0510   29.8690 C.ar      1 TYR        -0.0684
      9 CE1         1.6650  -16.7830   30.3100 C.ar      1 TYR        -0.0398
     10 CE2         2.6230  -14.6290   30.7490 C.ar      1 TYR        -0.0398
     11 CZ          2.5940  -15.9940   30.9640 C.ar      1 TYR         0.0805
     12 OH          3.4930  -16.5710   31.8360 O.3       1 TYR        -0.3376
     13 N          -1.8740  -13.7820   25.6010 N.am      1 LEU        -0.2609
     14 CA         -3.0340  -14.0190   24.7380 C.3       1 LEU         0.1313
     15 C          -2.7520  -13.5670   23.3170 C.2       1 LEU         0.2039
     16 O          -2.3320  -12.4270   23.0920 O.2       1 LEU        -0.3944
     17 CB         -4.2690  -13.2780   25.2630 C.3       1 LEU        -0.0101
     18 CG         -4.7560  -13.7250   26.6370 C.3       1 LEU        -0.0425
     19 CD1        -6.0080  -12.9450   27.0720 C.3       1 LEU        -0.0625
     20 CD2        -5.0080  -15.2320   26.6330 C.3       1 LEU        -0.0625
     21 N          -2.9610  -14.4660   22.3610 N.am      1 VAL        -0.2635
     22 CA         -2.8490  -14.1150   20.9470 C.3       1 VAL         0.1333
     23 C          -4.1020  -14.5600   20.1890 C.2       1 VAL         0.2042
     24 O          -4.6110  -15.6520   20.4140 O.2       1 VAL        -0.3944
     25 CB         -1.5950  -14.7380   20.2940 C.3       1 VAL        -0.0063
     26 CG1        -1.5450  -14.3880   18.8150 C.3       1 VAL        -0.0584
     27 CG2        -0.3340  -14.2450   20.9980 C.3       1 VAL        -0.0584
     28 N          -4.5920  -13.7240   19.2810 N.am      1 THR        -0.2613
     29 CA         -5.8500  -14.0100   18.5970 C.3       1 THR         0.1565
     30 C          -5.7460  -13.8200   17.0900 C.2       1 THR         0.2065
     31 O          -5.3250  -12.7580   16.6240 O.2       1 THR        -0.3943
     32 CB         -6.9860  -13.1220   19.1240 C.3       1 THR         0.0924
     33 OG1        -7.1080  -13.3080   20.5390 O.3       1 THR        -0.3874
     34 CG2        -8.3230  -13.4900   18.4560 C.3       1 THR        -0.0346
     35 N          -6.1220  -14.8570   16.3360 N.am      1 SER        -0.2615
     36 CA         -6.2130  -14.7520   14.8860 C.3       1 SER         0.1539
     37 C          -7.6110  -14.3150   14.4940 C.2       1 SER         0.2056
     38 O          -8.5930  -14.7590   15.0770 O.2       1 SER        -0.3943
     39 CB         -5.8590  -16.0800   14.2040 C.3       1 SER         0.0843
     40 OG         -6.8010  -17.0860   14.5250 O.3       1 SER        -0.3903
     41 N          -7.6850  -13.4310   13.5060 N.am      1 VAL        -0.2692
     42 CA         -8.9500  -12.8790   13.0550 C.3       1 VAL         0.0967
     43 C          -9.0140  -12.8540   11.5280 C.2       1 VAL         0.0603
     44 O         -10.0380  -12.5000   10.9430 O.co2     1 VAL        -0.5666
     45 CB         -9.1610  -11.4550   13.6210 C.3       1 VAL        -0.0118
     46 CG1        -9.2510  -11.5010   15.1350 C.3       1 VAL        -0.0590
     47 CG2        -8.0390  -10.5140   13.1810 C.3       1 VAL        -0.0590
     48 OXT        -8.0340  -13.1950   10.8490 O.co2     1 VAL        -0.5666
     49 H           1.1399  -13.3839   25.2886 H         1 TYR         0.2017
     50 H           0.2935  -12.4010   26.3346 H         1 TYR         0.2017
     51 H           1.7399  -13.0766   26.8126 H         1 TYR         0.2017
     52 H           0.8790  -15.2189   26.7138 H         1 TYR         0.1120
     53 H          -1.1824  -14.6773   28.3942 H         1 TYR         0.0486
     54 H          -0.2414  -13.1253   28.4467 H         1 TYR         0.0486
     55 H           0.0329  -16.8244   28.9187 H         1 TYR         0.0530
     56 H           1.7370  -12.9744   29.7005 H         1 TYR         0.0530
     57 H           1.6429  -17.8592   30.4817 H         1 TYR         0.0525
     58 H           3.3554  -14.0083   31.2652 H         1 TYR         0.0525
     59 H           3.3400  -17.5180   31.8713 H         1 TYR         0.2458
     60 H          -1.7026  -12.8399   25.9525 H         1 LEU         0.1885
     61 H          -3.2295  -15.0913   24.7435 H         1 LEU         0.0800
     62 H          -5.0784  -13.4811   24.5618 H         1 LEU         0.0315
     63 H          -3.9896  -12.2285   25.3553 H         1 LEU         0.0315
     64 H          -3.9785  -13.5058   27.3688 H         1 LEU         0.0298
     65 H          -5.7743  -11.8813   27.1172 H         1 LEU         0.0232
     66 H          -6.8077  -13.1123   26.3504 H         1 LEU         0.0232
     67 H          -6.3262  -13.2905   28.0556 H         1 LEU         0.0232
     68 H          -5.7658  -15.4704   25.8867 H         1 LEU         0.0232
     69 H          -4.0817  -15.7533   26.3915 H         1 LEU         0.0232
     70 H          -5.3556  -15.5436   27.6180 H         1 LEU         0.0232
     71 H          -3.2049  -15.4220   22.6199 H         1 VAL         0.1883
     72 H          -2.7519  -13.0309   20.8892 H         1 VAL         0.0802
     73 H          -1.6489  -15.8220   20.3944 H         1 VAL         0.0343
     74 H          -2.4357  -14.7760   18.3208 H         1 VAL         0.0234
     75 H          -1.5071  -13.3047   18.7004 H         1 VAL         0.0234
     76 H          -0.6565  -14.8333   18.3674 H         1 VAL         0.0234
     77 H          -0.2761  -13.1594   20.9189 H         1 VAL         0.0234
     78 H          -0.3700  -14.5326   22.0487 H         1 VAL         0.0234
     79 H           0.5417  -14.6921   20.5274 H         1 VAL         0.0234
     80 H          -4.0820  -12.8693   19.0580 H         1 THR         0.1884
     81 H          -6.0711  -15.0570   18.8044 H         1 THR         0.0826
     82 H          -6.7515  -12.0829   18.8930 H         1 THR         0.0639
     83 H          -6.2828  -13.0646   20.9649 H         1 THR         0.2101
     84 H          -8.2394  -13.3515   17.3781 H         1 THR         0.0257
     85 H          -8.5613  -14.5314   18.6724 H         1 THR         0.0257
     86 H          -9.1118  -12.8468   18.8462 H         1 THR         0.0257
     87 H          -6.3507  -15.7431   16.7864 H         1 SER         0.1884
     88 H          -5.4916  -14.0069   14.5505 H         1 SER         0.0823
     89 H          -4.8765  -16.3991   14.5518 H         1 SER         0.0606
     90 H          -5.8644  -15.9295   13.1245 H         1 SER         0.0606
     91 H          -7.6727  -16.8123   14.2305 H         1 SER         0.2097
     92 H          -6.8245  -13.1297   13.0486 H         1 VAL         0.1875
     93 H          -9.7487  -13.5208   13.4267 H         1 VAL         0.0729
     94 H         -10.0987  -11.0670   13.2231 H         1 VAL         0.0336
     95 H         -10.0909  -12.1305   15.4288 H         1 VAL         0.0234
     96 H          -8.3270  -11.9134   15.5403 H         1 VAL         0.0234
     97 H          -9.3995  -10.4920   15.5197 H         1 VAL         0.0234
     98 H          -7.0841  -10.8950   13.5430 H         1 VAL         0.0234
     99 H          -8.0200  -10.4573   12.0926 H         1 VAL         0.0234
    100 H          -8.2159   -9.5213   13.5948 H         1 VAL         0.0234
@<TRIPOS>BOND
     1    1    2 1  
     2    2    3 1  
     3    2    5 1  
     4    3    4 2  
     5    3   13 am 
     6    5    6 1  
     7    6    7 ar 
     8    6    8 ar 
     9    7    9 ar 
    10    8   10 ar 
    11    9   11 ar 
    12   10   11 ar 
    13   11   12 1  
    14   13   14 1  
    15   14   15 1  
    16   14   17 1  
    17   15   16 2  
    18   15   21 am 
    19   17   18 1  
    20   18   19 1  
    21   18   20 1  
    22   21   22 1  
    23   22   23 1  
    24   22   25 1  
    25   23   24 2  
    26   23   28 am 
    27   25   26 1  
    28   25   27 1  
    29   28   29 1  
    30   29   30 1  
    31   29   32 1  
    32   30   31 2  
    33   30   35 am 
    34   32   33 1  
    35   32   34 1  
    36   35   36 1  
    37   36   37 1  
    38   36   39 1  
    39   37   38 2  
    40   37   41 am 
    41   39   40 1  
    42   41   42 1  
    43   42   43 1  
    44   42   45 1  
    45   43   44 ar 
    46   43   48 ar 
    47   45   46 1  
    48   45   47 1  
    49    1   49 1  
    50    1   50 1  
    51    1   51 1  
    52    2   52 1  
    53    5   53 1  
    54    5   54 1  
    55    7   55 1  
    56    8   56 1  
    57    9   57 1  
    58   10   58 1  
    59   12   59 1  
    60   13   60 1  
    61   14   61 1  
    62   17   62 1  
    63   17   63 1  
    64   18   64 1  
    65   19   65 1  
    66   19   66 1  
    67   19   67 1  
    68   20   68 1  
    69   20   69 1  
    70   20   70 1  
    71   21   71 1  
    72   22   72 1  
    73   25   73 1  
    74   26   74 1  
    75   26   75 1  
    76   26   76 1  
    77   27   77 1  
    78   27   78 1  
    79   27   79 1  
    80   28   80 1  
    81   29   81 1  
    82   32   82 1  
    83   33   83 1  
    84   34   84 1  
    85   34   85 1  
    86   34   86 1  
    87   35   87 1  
    88   36   88 1  
    89   39   89 1  
    90   39   90 1  
    91   40   91 1  
    92   41   92 1  
    93   42   93 1  
    94   45   94 1  
    95   46   95 1  
    96   46   96 1  
    97   46   97 1  
    98   47   98 1  
    99   47   99 1  
   100   47  100 1  
@<TRIPOS>SUBSTRUCTURE
     1 TYR         1

