### 
### Created by X-TOOL on Mon Sep 10 21:13:09 2018
### 

@<TRIPOS>MOLECULE
4g8m_ligand
   22    22     1     0     0
SMALL
GAST_HUCK


@<TRIPOS>ATOM
      1 CD          5.7850   25.8130   20.9120 C.2       1 G8M         0.0384
      2 OE1         4.8530   25.1800   20.3670 O.co2     1 G8M        -0.5687
      3 OE2         6.3420   25.3880   21.9490 O.co2     1 G8M        -0.5687
      4 CG          6.2570   27.1350   20.2690 C.3       1 G8M         0.0213
      5 C           7.6860   25.4090   17.6040 C.2       1 G8M         0.0848
      6 OXT         6.4760   25.4020   17.3190 O.co2     1 G8M        -0.5642
      7 O           8.5500   25.2250   16.7240 O.co2     1 G8M        -0.5642
      8 CA          8.1300   25.6480   19.0650 C.3       1 G8M         0.0330
      9 N           9.5980   25.4850   19.1450 N.4       1 G8M         0.2330
     10 CB          7.6510   27.0270   19.5990 C.3       1 G8M         0.0284
     11 C6          8.2680   27.6350   20.8750 C.3       1 G8M        -0.0399
     12 C7          6.8680   28.1110   21.2990 C.3       1 G8M        -0.0374
     13 H1          5.4653   27.5583   19.6334 H         1 G8M         0.0472
     14 H2          7.6673   24.8738   19.6946 H         1 G8M         0.1028
     15 H3          9.8553   24.5781   18.7880 H         1 G8M         0.2010
     16 H4          9.8930   25.5639   20.1056 H         1 G8M         0.2010
     17 H5         10.0461   26.2017   18.5959 H         1 G8M         0.2010
     18 H6          7.7422   27.7181   18.7481 H         1 G8M         0.0395
     19 H7          8.9846   28.4482   20.6876 H         1 G8M         0.0273
     20 H8          8.7199   26.8974   21.5545 H         1 G8M         0.0273
     21 H9          6.6103   27.8866   22.3446 H         1 G8M         0.0286
     22 H10         6.6681   29.1726   21.0917 H         1 G8M         0.0286
@<TRIPOS>BOND
     1    1    2 ar 
     2    1    3 ar 
     3    4    1 1  
     4   10    4 1  
     5    4   12 1  
     6    5    6 ar 
     7    5    7 ar 
     8    8    5 1  
     9    8    9 1  
    10    8   10 1  
    11   10   11 1  
    12   11   12 1  
    13    4   13 1  
    14    8   14 1  
    15    9   15 1  
    16    9   16 1  
    17    9   17 1  
    18   10   18 1  
    19   11   19 1  
    20   11   20 1  
    21   12   21 1  
    22   12   22 1  
@<TRIPOS>SUBSTRUCTURE
     1 G8M         1

