### 
### Created by X-TOOL on Mon Sep 10 21:13:09 2018
### 

@<TRIPOS>MOLECULE
4g8n_ligand
   22    22     1     0     0
SMALL
GAST_HUCK


@<TRIPOS>ATOM
      1 CD          1.9860   27.3620   13.9090 C.2       1 G8M         0.0384
      2 OE1         2.8600   26.5350   13.6120 O.co2     1 G8M        -0.5687
      3 OE2         0.8650   27.3010   13.3840 O.co2     1 G8M        -0.5687
      4 CG          2.2700   28.5120   14.9120 C.3       1 G8M         0.0213
      5 C           1.6040   30.9970   12.5490 C.2       1 G8M         0.0848
      6 OXT         1.7900   32.0730   11.9510 O.co2     1 G8M        -0.5642
      7 O           0.4920   30.6910   12.9940 O.co2     1 G8M        -0.5642
      8 CA          2.7960   30.0470   12.7640 C.3       1 G8M         0.0330
      9 N           3.9840   30.6510   12.1250 N.4       1 G8M         0.2330
     10 CB          3.0240   29.7040   14.2630 C.3       1 G8M         0.0284
     11 C6          4.3340   29.0240   14.7290 C.3       1 G8M        -0.0399
     12 C7          3.5160   28.2650   15.7860 C.3       1 G8M        -0.0374
     13 H1          1.3556   28.7769   15.4631 H         1 G8M         0.0472
     14 H2          2.5758   29.1018   12.2462 H         1 G8M         0.1028
     15 H3          3.7800   30.8519   11.1585 H         1 G8M         0.2010
     16 H4          4.7579   30.0074   12.1783 H         1 G8M         0.2010
     17 H5          4.2242   31.5057   12.6023 H         1 G8M         0.2010
     18 H6          2.8426   30.6424   14.8076 H         1 G8M         0.0395
     19 H7          5.0829   29.7150   15.1433 H         1 G8M         0.0273
     20 H8          4.8072   28.3812   13.9721 H         1 G8M         0.0273
     21 H9          3.7902   27.2062   15.9034 H         1 G8M         0.0286
     22 H10         3.4850   28.7475   16.7740 H         1 G8M         0.0286
@<TRIPOS>BOND
     1    1    2 ar 
     2    1    3 ar 
     3    4    1 1  
     4   10    4 1  
     5    4   12 1  
     6    5    6 ar 
     7    5    7 ar 
     8    8    5 1  
     9    8    9 1  
    10    8   10 1  
    11   10   11 1  
    12   11   12 1  
    13    4   13 1  
    14    8   14 1  
    15    9   15 1  
    16    9   16 1  
    17    9   17 1  
    18   10   18 1  
    19   11   19 1  
    20   11   20 1  
    21   12   21 1  
    22   12   22 1  
@<TRIPOS>SUBSTRUCTURE
     1 G8M         1

