### 
### Created by X-TOOL on Mon Sep 10 21:13:15 2018
### 

@<TRIPOS>MOLECULE
4g8o_ligand
   61    63     1     0     0
SMALL
GAST_HUCK


@<TRIPOS>ATOM
      1 F3         31.2210  -22.3020  -92.3710 F         1 96P        -0.2206
      2 C24        30.2060  -23.1570  -92.3030 C.3       1 96P         0.3741
      3 F1         29.1320  -22.4140  -92.0610 F         1 96P        -0.2206
      4 F2         30.0490  -23.6310  -93.5300 F         1 96P        -0.2206
      5 C23        30.4160  -24.2390  -91.2890 C.ar      1 96P         0.0397
      6 C22        29.3490  -24.7510  -90.5580 C.ar      1 96P        -0.0407
      7 C21        29.5490  -25.7670  -89.6310 C.ar      1 96P        -0.0382
      8 C20        30.8210  -26.2880  -89.4210 C.ar      1 96P         0.0010
      9 C25        31.6870  -24.7630  -91.0750 C.ar      1 96P         0.0010
     10 C19        31.8850  -25.7790  -90.1500 C.ar      1 96P         0.1515
     11 O12        33.1800  -26.3010  -89.9600 O.3       1 96P        -0.1927
     12 C1         33.9840  -25.7200  -89.0100 C.2       1 96P         0.3446
     13 O1         33.6500  -24.7690  -88.3370 O.2       1 96P        -0.3723
     14 N          35.1710  -26.3440  -88.9320 N.am      1 96P        -0.2560
     15 C2         36.2050  -25.9360  -87.9930 C.3       1 96P         0.0661
     16 C3         37.4320  -26.8180  -88.0930 C.3       1 96P         0.1336
     17 O7         37.4700  -27.7570  -89.2180 O.3       1 96P        -0.2713
     18 C12        38.4760  -27.6420  -90.1090 C.2       1 96P         0.2503
     19 C13        38.2860  -28.5380  -91.2880 C.ar      1 96P         0.0337
     20 C18        37.1270  -29.2950  -91.4340 C.ar      1 96P        -0.0312
     21 C17        36.9360  -30.0690  -92.5730 C.ar      1 96P         0.1141
     22 O11        35.8100  -30.8130  -92.7180 O.3       1 96P        -0.3389
     23 C16        37.9270  -30.1230  -93.5550 C.ar      1 96P         0.1498
     24 O10        37.7510  -30.8990  -94.6590 O.3       1 96P        -0.3381
     25 C15        39.0660  -29.3280  -93.4300 C.ar      1 96P         0.1141
     26 O9         40.0260  -29.3780  -94.3860 O.3       1 96P        -0.3389
     27 C14        39.2430  -28.5380  -92.3020 C.ar      1 96P        -0.0312
     28 O8         39.4050  -26.8830  -89.9730 O.2       1 96P        -0.3624
     29 C4         37.6840  -27.5610  -86.8060 C.3       1 96P         0.1077
     30 O2         39.0880  -27.6080  -86.4760 O.3       1 96P        -0.2763
     31 C5         39.4670  -28.5230  -85.5710 C.2       1 96P         0.2500
     32 O3         38.7840  -29.4650  -85.2490 O.2       1 96P        -0.3624
     33 C6         40.8210  -28.2430  -84.9970 C.ar      1 96P         0.0337
     34 C11        41.3500  -29.1140  -84.0510 C.ar      1 96P        -0.0312
     35 C10        42.5880  -28.8590  -83.4690 C.ar      1 96P         0.1141
     36 O6         43.0580  -29.6180  -82.4540 O.3       1 96P        -0.3389
     37 C9         43.3120  -27.7330  -83.8560 C.ar      1 96P         0.1498
     38 O5         44.5230  -27.4760  -83.2890 O.3       1 96P        -0.3381
     39 C8         42.8390  -26.9230  -84.8830 C.ar      1 96P         0.1141
     40 O4         43.5910  -25.8650  -85.2670 O.3       1 96P        -0.3389
     41 C7         41.5780  -27.1540  -85.4280 C.ar      1 96P        -0.0312
     42 H1         28.3523  -24.3539  -90.7128 H         1 96P         0.0776
     43 H2         28.7081  -26.1557  -89.0681 H         1 96P         0.0676
     44 H3         30.9785  -27.0803  -88.6981 H         1 96P         0.0803
     45 H4         32.5298  -24.3746  -91.6353 H         1 96P         0.0769
     46 H5         35.3505  -27.1166  -89.5410 H         1 96P         0.1871
     47 H6         35.8033  -25.9987  -86.9709 H         1 96P         0.0549
     48 H7         36.4941  -24.8972  -88.2103 H         1 96P         0.0549
     49 H8         38.2796  -26.1326  -88.2404 H         1 96P         0.0694
     50 H9         36.3710  -29.2810  -90.6572 H         1 96P         0.0477
     51 H10        35.8423  -31.2760  -93.5470 H         1 96P         0.2437
     52 H11        38.5121  -30.8233  -95.2225 H         1 96P         0.2422
     53 H12        40.7306  -28.7833  -94.1571 H         1 96P         0.2437
     54 H13        40.1282  -27.9192  -92.2094 H         1 96P         0.0477
     55 H14        37.3090  -28.5898  -86.9103 H         1 96P         0.0641
     56 H15        37.1445  -27.0548  -85.9920 H         1 96P         0.0641
     57 H16        40.7934  -29.9990  -83.7645 H         1 96P         0.0477
     58 H17        43.9114  -29.2962  -82.1883 H         1 96P         0.2437
     59 H18        44.8820  -26.6783  -83.6596 H         1 96P         0.2422
     60 H19        44.4376  -26.1726  -85.5691 H         1 96P         0.2437
     61 H20        41.1852  -26.4873  -86.1871 H         1 96P         0.0477
@<TRIPOS>BOND
     1    1    2 1  
     2    2    3 1  
     3    2    4 1  
     4    2    5 1  
     5    5    6 ar 
     6    5    9 ar 
     7    6    7 ar 
     8    7    8 ar 
     9    8   10 ar 
    10    9   10 ar 
    11   10   11 1  
    12   11   12 1  
    13   12   13 2  
    14   12   14 am 
    15   14   15 1  
    16   15   16 1  
    17   16   17 1  
    18   16   29 1  
    19   17   18 1  
    20   18   19 1  
    21   18   28 2  
    22   19   20 ar 
    23   19   27 ar 
    24   20   21 ar 
    25   21   22 1  
    26   21   23 ar 
    27   23   24 1  
    28   23   25 ar 
    29   25   26 1  
    30   25   27 ar 
    31   29   30 1  
    32   30   31 1  
    33   31   32 2  
    34   31   33 1  
    35   33   34 ar 
    36   33   41 ar 
    37   34   35 ar 
    38   35   36 1  
    39   35   37 ar 
    40   37   38 1  
    41   37   39 ar 
    42   39   40 1  
    43   39   41 ar 
    44    6   42 1  
    45    7   43 1  
    46    8   44 1  
    47    9   45 1  
    48   14   46 1  
    49   15   47 1  
    50   15   48 1  
    51   16   49 1  
    52   20   50 1  
    53   22   51 1  
    54   24   52 1  
    55   26   53 1  
    56   27   54 1  
    57   29   55 1  
    58   29   56 1  
    59   34   57 1  
    60   36   58 1  
    61   38   59 1  
    62   40   60 1  
    63   41   61 1  
@<TRIPOS>SUBSTRUCTURE
     1 96P         1

