### 
### Created by X-TOOL on Mon Sep 10 21:13:13 2018
### 

@<TRIPOS>MOLECULE
4g8r_ligand
   61    63     1     0     0
SMALL
GAST_HUCK


@<TRIPOS>ATOM
      1 F3        -31.4810  -17.9620   42.3120 F         1 96P        -0.2206
      2 C24       -30.3020  -18.5540   42.4370 C.3       1 96P         0.3741
      3 F1        -30.2260  -18.9700   43.6920 F         1 96P        -0.2206
      4 F2        -30.3770  -19.6580   41.6980 F         1 96P        -0.2206
      5 C23       -29.1550  -17.6750   42.0510 C.ar      1 96P         0.0397
      6 C22       -27.9980  -18.2190   41.5040 C.ar      1 96P        -0.0407
      7 C21       -26.9360  -17.4030   41.1470 C.ar      1 96P        -0.0382
      8 C20       -27.0150  -16.0310   41.3350 C.ar      1 96P         0.0010
      9 C25       -29.2300  -16.2970   42.2390 C.ar      1 96P         0.0010
     10 C19       -28.1630  -15.4820   41.8850 C.ar      1 96P         0.1515
     11 O12       -28.1840  -14.0900   42.1120 O.3       1 96P        -0.1927
     12 C1        -28.3820  -13.2630   41.0350 C.2       1 96P         0.3446
     13 O1        -29.2420  -13.4450   40.2010 O.2       1 96P        -0.3723
     14 N         -27.4540  -12.2940   40.9850 N.am      1 96P        -0.2560
     15 C2        -27.2280  -11.4940   39.7880 C.3       1 96P         0.0661
     16 C3        -26.4310  -12.2010   38.7060 C.3       1 96P         0.1336
     17 O7        -25.0870  -12.6560   39.0630 O.3       1 96P        -0.2713
     18 C12       -24.9420  -13.9160   39.5010 C.2       1 96P         0.2503
     19 C13       -23.7130  -14.0820   40.3350 C.ar      1 96P         0.0337
     20 C18       -22.7950  -13.0410   40.4690 C.ar      1 96P        -0.0312
     21 C17       -21.6960  -13.1870   41.3020 C.ar      1 96P         0.1141
     22 O11       -20.7550  -12.2120   41.4160 O.3       1 96P        -0.3389
     23 C16       -21.5100  -14.3670   42.0250 C.ar      1 96P         0.1498
     24 O10       -20.4260  -14.4910   42.8400 O.3       1 96P        -0.3381
     25 C15       -22.4390  -15.4020   41.8970 C.ar      1 96P         0.1141
     26 O9        -22.2440  -16.5540   42.5850 O.3       1 96P        -0.3389
     27 C14       -23.5310  -15.2630   41.0540 C.ar      1 96P        -0.0312
     28 O8        -25.6950  -14.8080   39.2120 O.2       1 96P        -0.3624
     29 C4        -26.2430  -11.2970   37.5230 C.3       1 96P         0.1077
     30 O2        -27.5430  -10.9510   36.9960 O.3       1 96P        -0.2763
     31 C5        -27.6740  -10.9170   35.6630 C.2       1 96P         0.2500
     32 O3        -26.7820  -11.1840   34.8950 O.2       1 96P        -0.3624
     33 C6        -29.0360  -10.4940   35.2470 C.ar      1 96P         0.0337
     34 C11       -29.3150  -10.3160   33.8950 C.ar      1 96P        -0.0312
     35 C10       -30.5500   -9.8300   33.5000 C.ar      1 96P         0.1141
     36 O6        -30.7610   -9.5800   32.1820 O.3       1 96P        -0.3389
     37 C9        -31.5330   -9.5420   34.4520 C.ar      1 96P         0.1498
     38 O5        -32.7490   -9.0590   34.0800 O.3       1 96P        -0.3381
     39 C8        -31.2530   -9.7390   35.8050 C.ar      1 96P         0.1141
     40 O4        -32.2050   -9.4740   36.7420 O.3       1 96P        -0.3389
     41 C7        -30.0100  -10.2080   36.2010 C.ar      1 96P        -0.0312
     42 H1        -27.9261  -19.2904   41.3555 H         1 96P         0.0776
     43 H2        -26.0403  -17.8387   40.7193 H         1 96P         0.0676
     44 H3        -26.1851  -15.3927   41.0539 H         1 96P         0.0803
     45 H4        -30.1258  -15.8586   42.6638 H         1 96P         0.0769
     46 H5        -26.8987  -12.1150   41.7972 H         1 96P         0.1871
     47 H6        -26.6822  -10.5845   40.0793 H         1 96P         0.0549
     48 H7        -28.2065  -11.2162   39.3693 H         1 96P         0.0549
     49 H8        -27.0157  -13.0812   38.4005 H         1 96P         0.0694
     50 H9        -22.9406  -12.1168   39.9215 H         1 96P         0.0477
     51 H10       -20.0840  -12.4910   42.0280 H         1 96P         0.2437
     52 H11       -20.4416  -15.3438   43.2583 H         1 96P         0.2422
     53 H12       -22.9532  -17.1576   42.3972 H         1 96P         0.2437
     54 H13       -24.2441  -16.0732   40.9537 H         1 96P         0.0477
     55 H14       -25.6559  -11.8150   36.7504 H         1 96P         0.0641
     56 H15       -25.7145  -10.3840   37.8346 H         1 96P         0.0641
     57 H16       -28.5649  -10.5580   33.1508 H         1 96P         0.0477
     58 H17       -31.6449   -9.2537   32.0603 H         1 96P         0.2437
     59 H18       -33.2844   -8.9229   34.8529 H         1 96P         0.2422
     60 H19       -31.8571   -9.6591   37.6064 H         1 96P         0.2437
     61 H20       -29.7958  -10.3523   37.2538 H         1 96P         0.0477
@<TRIPOS>BOND
     1    1    2 1  
     2    2    3 1  
     3    2    4 1  
     4    2    5 1  
     5    5    6 ar 
     6    5    9 ar 
     7    6    7 ar 
     8    7    8 ar 
     9    8   10 ar 
    10    9   10 ar 
    11   10   11 1  
    12   11   12 1  
    13   12   13 2  
    14   12   14 am 
    15   14   15 1  
    16   15   16 1  
    17   16   17 1  
    18   16   29 1  
    19   17   18 1  
    20   18   19 1  
    21   18   28 2  
    22   19   20 ar 
    23   19   27 ar 
    24   20   21 ar 
    25   21   22 1  
    26   21   23 ar 
    27   23   24 1  
    28   23   25 ar 
    29   25   26 1  
    30   25   27 ar 
    31   29   30 1  
    32   30   31 1  
    33   31   32 2  
    34   31   33 1  
    35   33   34 ar 
    36   33   41 ar 
    37   34   35 ar 
    38   35   36 1  
    39   35   37 ar 
    40   37   38 1  
    41   37   39 ar 
    42   39   40 1  
    43   39   41 ar 
    44    6   42 1  
    45    7   43 1  
    46    8   44 1  
    47    9   45 1  
    48   14   46 1  
    49   15   47 1  
    50   15   48 1  
    51   16   49 1  
    52   20   50 1  
    53   22   51 1  
    54   24   52 1  
    55   26   53 1  
    56   27   54 1  
    57   29   55 1  
    58   29   56 1  
    59   34   57 1  
    60   36   58 1  
    61   38   59 1  
    62   40   60 1  
    63   41   61 1  
@<TRIPOS>SUBSTRUCTURE
     1 96P         1

