### 
### Created by X-TOOL on Mon Sep 10 21:13:10 2018
### 

@<TRIPOS>MOLECULE
4g8v_ligand
   40    42     1     0     0
SMALL
GAST_HUCK


@<TRIPOS>ATOM
      1 C4         34.6030   -4.4220   12.3230 C.2       1 0EY         0.1613
      2 C5         35.5870   -4.2550   13.2680 C.2       1 0EY        -0.0599
      3 C6         36.2630   -3.0500   13.2830 C.3       1 0EY         0.0294
      4 C7         36.7840   -0.9060   12.5220 C.3       1 0EY         0.0698
      5 C8         36.4320    0.5440   12.5310 C.2       1 0EY         0.0592
      6 C9         36.4520    1.3550   13.6940 C.2       1 0EY         0.0742
      7 N1         35.9330   -2.1000   12.4320 N.am      1 0EY        -0.2480
      8 N3         34.3220   -3.4380   11.4420 N.am      1 0EY        -0.2003
      9 O2         34.6700   -1.3430   10.6220 O.2       1 0EY        -0.3904
     10 C2         34.9690   -2.2900   11.4680 C.2       1 0EY         0.2930
     11 O4         33.9270   -5.5920   12.2890 O.3       1 0EY        -0.3174
     12 N5         36.1760    1.4080   11.4760 N.2       1 0EY        -0.2244
     13 N6         36.0090    2.6160   11.9600 N.2       1 0EY        -0.0996
     14 N7         36.1190    2.6260   13.2560 N.pl3     1 0EY        -0.1506
     15 C1'        36.0810    3.7010   14.1990 C.3       1 0EY         0.2151
     16 O4'        35.9610    4.9830   13.6730 O.3       1 0EY        -0.3346
     17 C4'        37.2350    5.3490   13.0770 C.3       1 0EY         0.1138
     18 C5'        37.4370    6.8390   13.1620 C.3       1 0EY         0.0730
     19 O5'        38.6590    7.2200   12.5470 O.3       1 0EY        -0.3924
     20 C3'        38.2860    4.4850   13.7830 C.3       1 0EY         0.1148
     21 O3'        39.0840    3.7420   12.8760 O.3       1 0EY        -0.3864
     22 C2'        37.4880    3.6090   14.7660 C.3       1 0EY         0.1413
     23 O2'        37.4960    4.1740   16.0690 O.3       1 0EY        -0.3833
     24 H1         35.8253   -5.0442   13.9795 H         1 0EY        -0.0036
     25 H2         37.3245   -3.2789   13.1077 H         1 0EY         0.0522
     26 H3         36.1404   -2.6294   14.2920 H         1 0EY         0.0522
     27 H4         37.3411   -1.0486   13.4597 H         1 0EY         0.0637
     28 H5         37.4708   -1.0060   11.6686 H         1 0EY         0.0637
     29 H6         36.6802    1.0450   14.7127 H         1 0EY         0.0900
     30 H7         33.6088   -3.5832   10.7562 H         1 0EY         0.2278
     31 H8         33.0017   -5.4259   12.4259 H         1 0EY         0.2495
     32 H9         35.2988    3.5335   14.9540 H         1 0EY         0.1031
     33 H10        37.2301    5.0796   12.0105 H         1 0EY         0.0647
     34 H11        37.4569    7.1401   14.2198 H         1 0EY         0.0584
     35 H12        36.6040    7.3452   12.6522 H         1 0EY         0.0584
     36 H13        38.7650    8.1618   12.6125 H         1 0EY         0.2095
     37 H14        38.9613    5.1375   14.3559 H         1 0EY         0.0648
     38 H15        39.7164    3.2258   13.3618 H         1 0EY         0.2100
     39 H16        37.8620    2.5749   14.7912 H         1 0EY         0.0679
     40 H17        36.9988    3.6179   16.6571 H         1 0EY         0.2101
@<TRIPOS>BOND
     1    2    1 2  
     2    1    8 1  
     3    1   11 1  
     4    3    2 1  
     5    7    3 1  
     6    4    5 1  
     7    4    7 1  
     8    5    6 2  
     9    5   12 1  
    10    6   14 1  
    11    7   10 am 
    12    8   10 am 
    13   10    9 2  
    14   12   13 2  
    15   13   14 1  
    16   14   15 1  
    17   15   16 1  
    18   15   22 1  
    19   16   17 1  
    20   17   18 1  
    21   17   20 1  
    22   18   19 1  
    23   20   21 1  
    24   20   22 1  
    25   22   23 1  
    26    2   24 1  
    27    3   25 1  
    28    3   26 1  
    29    4   27 1  
    30    4   28 1  
    31    6   29 1  
    32    8   30 1  
    33   11   31 1  
    34   15   32 1  
    35   17   33 1  
    36   18   34 1  
    37   18   35 1  
    38   19   36 1  
    39   20   37 1  
    40   21   38 1  
    41   22   39 1  
    42   23   40 1  
@<TRIPOS>SUBSTRUCTURE
     1 0EY         1

