### 
### Created by X-TOOL on Mon Sep 10 21:13:10 2018
### 

@<TRIPOS>MOLECULE
4g8y_ligand
   43    45     1     0     0
SMALL
GAST_HUCK


@<TRIPOS>ATOM
      1 C4         35.4040    4.5910   23.8350 C.2       1 0FT         0.1540
      2 C5         36.6060    4.4390   23.1710 C.2       1 0FT        -0.0417
      3 C6         37.3060    3.2710   23.3550 C.3       1 0FT         0.0383
      4 C7         37.6160    1.1030   24.3390 C.3       1 0FT         0.0699
      5 C8         37.3070   -0.3690   23.9450 C.2       1 0FT         0.0592
      6 C9         37.5920   -1.0060   22.7200 C.2       1 0FT         0.0742
      7 N1         36.7910    2.2760   24.1570 N.am      1 0FT        -0.2467
      8 N3         34.9460    3.6090   24.6310 N.am      1 0FT        -0.2119
      9 O2         35.1960    1.6150   25.5160 O.2       1 0FT        -0.3927
     10 C2         35.6490    2.4670   24.8020 C.2       1 0FT         0.2877
     11 O4         34.6810    5.7490   23.6720 O.3       1 0FT        -0.3307
     12 C5A        37.1100    5.5170   22.2940 C.3       1 0FT        -0.0620
     13 N5         36.7750   -1.3770   24.7430 N.2       1 0FT        -0.2244
     14 N6         36.7120   -2.5160   24.0700 N.2       1 0FT        -0.0996
     15 N7         37.1480   -2.3370   22.8800 N.pl3     1 0FT        -0.1506
     16 C1'        37.2920   -3.3180   21.8620 C.3       1 0FT         0.2151
     17 O4'        37.1700   -4.6370   22.3370 O.3       1 0FT        -0.3346
     18 C4'        38.4910   -5.1430   22.7210 C.3       1 0FT         0.1138
     19 C5'        38.7920   -6.4210   21.9780 C.3       1 0FT         0.0730
     20 O5'        40.1000   -6.3910   21.4180 O.3       1 0FT        -0.3924
     21 C3'        39.4530   -3.9800   22.4550 C.3       1 0FT         0.1148
     22 O3'        39.7710   -3.2370   23.6260 O.3       1 0FT        -0.3864
     23 C2'        38.7240   -3.1650   21.3910 C.3       1 0FT         0.1413
     24 O2'        38.8430   -3.7740   20.1120 O.3       1 0FT        -0.3833
     25 H1         38.2809    3.5494   23.7817 H         1 0FT         0.0550
     26 H2         37.4544    2.8299   22.3583 H         1 0FT         0.0550
     27 H3         38.5516    1.3393   23.8109 H         1 0FT         0.0637
     28 H4         37.8057    1.0647   25.4218 H         1 0FT         0.0637
     29 H5         38.0556   -0.5656   21.8385 H         1 0FT         0.0900
     30 H6         34.0724    3.7251   25.1036 H         1 0FT         0.2211
     31 H7         34.5706    6.1733   24.5148 H         1 0FT         0.2426
     32 H8         36.3955    6.3533   22.2934 H         1 0FT         0.0260
     33 H9         37.2254    5.1327   21.2698 H         1 0FT         0.0260
     34 H10        38.0841    5.8672   22.6662 H         1 0FT         0.0260
     35 H11        36.5710   -3.1398   21.0506 H         1 0FT         0.1031
     36 H12        38.5041   -5.3712   23.7970 H         1 0FT         0.0647
     37 H13        38.0575   -6.5480   21.1691 H         1 0FT         0.0584
     38 H14        38.7191   -7.2682   22.6758 H         1 0FT         0.0584
     39 H15        40.2645   -7.2051   20.9566 H         1 0FT         0.2095
     40 H16        40.3956   -4.3669   22.0405 H         1 0FT         0.0648
     41 H17        38.9748   -2.8730   23.9947 H         1 0FT         0.2100
     42 H18        39.0583   -2.1175   21.3603 H         1 0FT         0.0679
     43 H19        38.4653   -4.6452   20.1409 H         1 0FT         0.2101
@<TRIPOS>BOND
     1    2    1 2  
     2    1    8 1  
     3    1   11 1  
     4    3    2 1  
     5    2   12 1  
     6    7    3 1  
     7    4    5 1  
     8    4    7 1  
     9    5    6 2  
    10    5   13 1  
    11    6   15 1  
    12    7   10 am 
    13    8   10 am 
    14   10    9 2  
    15   13   14 2  
    16   14   15 1  
    17   15   16 1  
    18   16   17 1  
    19   16   23 1  
    20   17   18 1  
    21   18   19 1  
    22   18   21 1  
    23   19   20 1  
    24   21   22 1  
    25   21   23 1  
    26   23   24 1  
    27    3   25 1  
    28    3   26 1  
    29    4   27 1  
    30    4   28 1  
    31    6   29 1  
    32    8   30 1  
    33   11   31 1  
    34   12   32 1  
    35   12   33 1  
    36   12   34 1  
    37   16   35 1  
    38   18   36 1  
    39   19   37 1  
    40   19   38 1  
    41   20   39 1  
    42   21   40 1  
    43   22   41 1  
    44   23   42 1  
    45   24   43 1  
@<TRIPOS>SUBSTRUCTURE
     1 0FT         1

