### 
### Created by X-TOOL on Mon Sep 10 21:13:09 2018
### 

@<TRIPOS>MOLECULE
4g90_ligand
   40    42     1     0     0
SMALL
GAST_HUCK


@<TRIPOS>ATOM
      1 C4         34.7790   -4.4180   12.4780 C.2       1 0G0         0.1903
      2 C5         35.8220   -4.2520   13.3750 C.2       1 0G0         0.1269
      3 C6         36.5390   -3.0690   13.3280 C.3       1 0G0         0.0646
      4 C7         37.0400   -0.9790   12.4450 C.3       1 0G0         0.0699
      5 C8         36.7230    0.4380   12.6640 C.2       1 0G0         0.0592
      6 C9         36.8410    1.1730   13.9310 C.2       1 0G0         0.0742
      7 N1         36.1880   -2.0880   12.4420 N.am      1 0G0        -0.2451
      8 N3         34.4830   -3.4180   11.5870 N.am      1 0G0        -0.2046
      9 O2         34.8580   -1.3830   10.7220 O.2       1 0G0        -0.3916
     10 C2         35.1760   -2.2700   11.5450 C.2       1 0G0         0.2903
     11 O4         34.0460   -5.6030   12.5030 O.3       1 0G0        -0.3228
     12 F5A        36.1210   -5.1930   14.2360 F         1 0G0        -0.2443
     13 N5         36.3940    1.3840   11.7060 N.2       1 0G0        -0.2244
     14 N6         36.2550    2.5580   12.3010 N.2       1 0G0        -0.0996
     15 N7         36.4910    2.4760   13.6070 N.pl3     1 0G0        -0.1506
     16 C1'        36.4840    3.5500   14.5910 C.3       1 0G0         0.2151
     17 O4'        36.2700    4.7600   13.9330 O.3       1 0G0        -0.3346
     18 C4'        37.5410    5.2470   13.4370 C.3       1 0G0         0.1138
     19 C5'        37.5050    6.7480   13.3070 C.3       1 0G0         0.0730
     20 O5'        38.7990    7.2760   13.0500 O.3       1 0G0        -0.3924
     21 C3'        38.5940    4.6810   14.3990 C.3       1 0G0         0.1148
     22 O3'        39.7130    4.1280   13.7250 O.3       1 0G0        -0.3864
     23 C2'        37.8380    3.6660   15.2830 C.3       1 0G0         0.1413
     24 O2'        37.6350    4.1820   16.5900 O.3       1 0G0        -0.3833
     25 H1         37.5817   -3.3391   13.1049 H         1 0G0         0.0558
     26 H2         36.4823   -2.6239   14.3323 H         1 0G0         0.0558
     27 H3         37.7874   -1.2128   13.2175 H         1 0G0         0.0637
     28 H4         37.5175   -1.0006   11.4543 H         1 0G0         0.0637
     29 H5         37.1363    0.7832   14.9040 H         1 0G0         0.0900
     30 H6         33.7255   -3.5490   10.9475 H         1 0G0         0.2244
     31 H7         34.3915   -6.1736   13.1794 H         1 0G0         0.2459
     32 H8         35.6932    3.3678   15.3336 H         1 0G0         0.1031
     33 H9         37.7288    4.8334   12.4352 H         1 0G0         0.0647
     34 H10        37.1216    7.1795   14.2434 H         1 0G0         0.0584
     35 H11        36.8361    7.0197   12.4771 H         1 0G0         0.0584
     36 H12        38.7446    8.2213   12.9733 H         1 0G0         0.2095
     37 H13        38.9672    5.4953   15.0375 H         1 0G0         0.0648
     38 H14        40.3320    3.7932   14.3632 H         1 0G0         0.2100
     39 H15        38.3627    2.7003   15.3284 H         1 0G0         0.0679
     40 H16        37.1242    4.9814   16.5379 H         1 0G0         0.2101
@<TRIPOS>BOND
     1    2    1 2  
     2    1    8 1  
     3    1   11 1  
     4    3    2 1  
     5    2   12 1  
     6    7    3 1  
     7    4    5 1  
     8    4    7 1  
     9    5    6 2  
    10    5   13 1  
    11    6   15 1  
    12    7   10 am 
    13    8   10 am 
    14   10    9 2  
    15   13   14 2  
    16   14   15 1  
    17   15   16 1  
    18   16   17 1  
    19   16   23 1  
    20   17   18 1  
    21   18   19 1  
    22   18   21 1  
    23   19   20 1  
    24   21   22 1  
    25   21   23 1  
    26   23   24 1  
    27    3   25 1  
    28    3   26 1  
    29    4   27 1  
    30    4   28 1  
    31    6   29 1  
    32    8   30 1  
    33   11   31 1  
    34   16   32 1  
    35   18   33 1  
    36   19   34 1  
    37   19   35 1  
    38   20   36 1  
    39   21   37 1  
    40   22   38 1  
    41   23   39 1  
    42   24   40 1  
@<TRIPOS>SUBSTRUCTURE
     1 0G0         1

