### 
### Created by X-TOOL on Mon Sep 10 21:13:16 2018
### 

@<TRIPOS>MOLECULE
4g93_ligand
   55    57     1     0     0
SMALL
GAST_HUCK


@<TRIPOS>ATOM
      1 C1        105.4320  -26.1130  269.1480 C.2       1 0YP         0.2106
      2 N1        106.0450  -27.4120  269.1200 N.am      1 0YP        -0.2617
      3 O1        104.9120  -25.7210  268.1140 O.2       1 0YP        -0.3825
      4 C2        105.8450  -28.0140  267.8410 C.3       1 0YP         0.1509
      5 N2        104.2650  -29.3380  266.3880 N.am      1 0YP        -0.2712
      6 O2        103.9050  -29.2300  268.5890 O.2       1 0YP        -0.3941
      7 C3        104.6550  -28.8990  267.6920 C.2       1 0YP         0.2070
      8 C4        103.1540  -30.2000  266.2460 C.3       1 0YP         0.0339
      9 C5        102.4410  -29.8980  264.9470 C.3       1 0YP        -0.0325
     10 C6        103.3880  -30.0170  263.7460 C.3       1 0YP        -0.0494
     11 C7        104.8120  -29.8590  264.1650 C.3       1 0YP        -0.0325
     12 C8        104.9580  -28.9230  265.2700 C.3       1 0YP         0.0339
     13 C9        107.0680  -28.3020  267.0340 C.3       1 0YP         0.0867
     14 C10       107.5180  -29.7330  266.8760 C.ar      1 0YP         0.0043
     15 C11       108.0380  -30.1640  265.6840 C.ar      1 0YP         0.0937
     16 C12       108.4810  -31.5870  265.5230 C.ar      1 0YP        -0.0396
     17 C13       108.3970  -32.4410  266.5830 C.ar      1 0YP        -0.0776
     18 C14       107.8400  -31.9660  267.8860 C.ar      1 0YP        -0.0797
     19 C15       107.4190  -30.6690  268.0280 C.ar      1 0YP        -0.0675
     20 C16       105.3750  -25.2290  270.3620 C.ar      1 0YP         0.0549
     21 C17       104.3960  -24.2750  270.4290 C.ar      1 0YP        -0.0344
     22 C18       104.3340  -23.3420  271.5930 C.ar      1 0YP        -0.0137
     23 C19       105.2520  -23.4490  272.5930 C.ar      1 0YP         0.2034
     24 C20       106.3420  -24.4720  272.5030 C.ar      1 0YP        -0.0137
     25 C21       106.4080  -25.3160  271.4300 C.ar      1 0YP        -0.0344
     26 N01       105.1830  -22.6690  273.6180 N.2       1 0YP         0.3174
     27 O01       104.2630  -22.8590  274.4270 O.2       1 0YP         0.1795
     28 C02       108.8300  -29.8960  263.3110 C.3       1 0YP         0.0577
     29 O02       106.0400  -21.7810  273.7270 O.2       1 0YP         0.1795
     30 O03       108.2170  -29.3400  264.5030 O.3       1 0YP        -0.3249
     31 BR1       107.4450  -27.0880  265.5680 Br        1 0YP        -0.0692
     32 H1        106.5379  -27.8317  269.8822 H         1 0YP         0.1879
     33 H2        105.4768  -27.1382  267.2866 H         1 0YP         0.0832
     34 H3        102.4622  -30.0474  267.0875 H         1 0YP         0.0522
     35 H4        103.4992  -31.2444  266.2399 H         1 0YP         0.0522
     36 H5        102.0422  -28.8737  264.9877 H         1 0YP         0.0285
     37 H6        101.6118  -30.6096  264.8204 H         1 0YP         0.0285
     38 H7        103.1401  -29.2339  263.0144 H         1 0YP         0.0267
     39 H8        103.2578  -31.0061  263.2827 H         1 0YP         0.0267
     40 H9        105.3947  -29.4897  263.3083 H         1 0YP         0.0285
     41 H10       105.2005  -30.8395  264.4774 H         1 0YP         0.0285
     42 H11       106.0247  -28.8360  265.5242 H         1 0YP         0.0522
     43 H12       104.5742  -27.9407  264.9575 H         1 0YP         0.0522
     44 H13       107.8311  -27.9614  267.7493 H         1 0YP         0.0605
     45 H14       108.8653  -31.9347  264.5709 H         1 0YP         0.0521
     46 H15       108.7348  -33.4659  266.4803 H         1 0YP         0.0531
     47 H16       107.7685  -32.6507  268.7233 H         1 0YP         0.0505
     48 H17       107.0162  -30.3274  268.9746 H         1 0YP         0.0526
     49 H18       103.6630  -24.1965  269.6342 H         1 0YP         0.0682
     50 H19       103.5617  -22.5829  271.6418 H         1 0YP         0.0701
     51 H20       107.0817  -24.5434  273.2922 H         1 0YP         0.0701
     52 H21       107.2077  -26.0442  271.3573 H         1 0YP         0.0682
     53 H22       108.8779  -29.1238  262.5291 H         1 0YP         0.0574
     54 H23       108.2296  -30.7448  262.9517 H         1 0YP         0.0574
     55 H24       109.8472  -30.2408  263.5485 H         1 0YP         0.0574
@<TRIPOS>BOND
     1    1    2 am 
     2    1    3 2  
     3    1   20 1  
     4    2    4 1  
     5    4    7 1  
     6    4   13 1  
     7    7    5 am 
     8    5    8 1  
     9    5   12 1  
    10    7    6 2  
    11    8    9 1  
    12    9   10 1  
    13   10   11 1  
    14   11   12 1  
    15   13   14 1  
    16   13   31 1  
    17   14   15 ar 
    18   14   19 ar 
    19   15   16 ar 
    20   15   30 1  
    21   16   17 ar 
    22   17   18 ar 
    23   18   19 ar 
    24   20   21 ar 
    25   20   25 ar 
    26   21   22 ar 
    27   22   23 ar 
    28   23   24 ar 
    29   23   26 1  
    30   24   25 ar 
    31   26   27 2  
    32   26   29 2  
    33   30   28 1  
    34    2   32 1  
    35    4   33 1  
    36    8   34 1  
    37    8   35 1  
    38    9   36 1  
    39    9   37 1  
    40   10   38 1  
    41   10   39 1  
    42   11   40 1  
    43   11   41 1  
    44   12   42 1  
    45   12   43 1  
    46   13   44 1  
    47   16   45 1  
    48   17   46 1  
    49   18   47 1  
    50   19   48 1  
    51   21   49 1  
    52   22   50 1  
    53   24   51 1  
    54   25   52 1  
    55   28   53 1  
    56   28   54 1  
    57   28   55 1  
@<TRIPOS>SUBSTRUCTURE
     1 0YP         1

