### 
### Created by X-TOOL on Mon Sep 10 21:13:17 2018
### 

@<TRIPOS>MOLECULE
4g95_ligand
   34    36     1     0     0
SMALL
GAST_HUCK


@<TRIPOS>ATOM
      1 C1         30.0880   13.9890    0.8990 C.3       1 OAG         0.0617
      2 N1         31.2330   13.2110    1.3160 N.pl3     1 OAG        -0.3109
      3 CL2        33.4260   11.5760    2.4580 Cl        1 OAG        -0.0814
      4 CL5        34.3410   16.6540   -0.8360 Cl        1 OAG        -0.0740
      5 C9         28.4380   13.2200   -0.7830 C.ar      1 OAG        -0.0247
      6 C1'        32.4270   13.6930    1.0510 C.ar      1 OAG         0.0542
      7 N1'        28.4380   12.5850   -4.2970 N.ar      1 OAG        -0.2763
      8 C10        29.7420   13.6660   -0.5710 C.ar      1 OAG         0.0085
      9 C11        33.5280   13.0010    1.5190 C.ar      1 OAG         0.0566
     10 C12        34.9680   14.6950    0.4620 C.ar      1 OAG        -0.0607
     11 C2'        27.1410   12.1850   -4.4820 C.ar      1 OAG         0.1617
     12 N2'        26.7090   11.8640   -5.7160 N.pl3     1 OAG        -0.3065
     13 C3'        34.7040   13.6410    1.2510 C.ar      1 OAG        -0.0592
     14 N3'        26.2680   12.0320   -3.4790 N.ar      1 OAG        -0.2363
     15 C4'        26.7170   12.3420   -2.2300 C.ar      1 OAG         0.1380
     16 N4'        25.7880   12.1880   -1.2800 N.pl3     1 OAG        -0.3068
     17 C4A        27.9900   12.8720   -2.0440 C.ar      1 OAG         0.0659
     18 C5'        33.8790   15.3230    0.0420 C.ar      1 OAG         0.0290
     19 C6'        32.5800   14.8720    0.2970 C.ar      1 OAG        -0.0299
     20 C7'        30.5860   13.7620   -1.6700 C.ar      1 OAG         0.0147
     21 N8'        30.1680   13.3910   -2.8780 N.ar      1 OAG        -0.2913
     22 C8A        28.9110   12.9330   -3.0590 C.ar      1 OAG         0.0897
     23 H          30.3209   15.0600    0.9922 H         1 OAG         0.0674
     24 H          29.2275   13.7438    1.5388 H         1 OAG         0.0674
     25 H          31.1173   12.3110    1.8034 H         1 OAG         0.1785
     26 H          27.7603   13.1444    0.0596 H         1 OAG         0.0733
     27 H          35.9727   15.0020    0.1949 H         1 OAG         0.0511
     28 H          27.3397   11.9627   -6.5243 H         1 OAG         0.1838
     29 H          25.7478   11.5197   -5.8518 H         1 OAG         0.1838
     30 H          35.5683   13.2298    1.7598 H         1 OAG         0.0589
     31 H          26.0174   12.3939   -0.2972 H         1 OAG         0.1882
     32 H          24.8433   11.8635   -1.5313 H         1 OAG         0.1882
     33 H          31.7175   15.4135   -0.0745 H         1 OAG         0.0520
     34 H          31.5932   14.1421   -1.5428 H         1 OAG         0.0854
@<TRIPOS>BOND
     1    1    2 1  
     2    8    1 1  
     3    2    6 1  
     4    9    3 1  
     5   18    4 1  
     6    5    8 ar 
     7   17    5 ar 
     8    6    9 ar 
     9    6   19 ar 
    10   11    7 ar 
    11    7   22 ar 
    12    8   20 ar 
    13    9   13 ar 
    14   13   10 ar 
    15   10   18 ar 
    16   11   12 1  
    17   14   11 ar 
    18   15   14 ar 
    19   15   16 1  
    20   15   17 ar 
    21   17   22 ar 
    22   18   19 ar 
    23   20   21 ar 
    24   21   22 ar 
    25    1   23 1  
    26    1   24 1  
    27    2   25 1  
    28    5   26 1  
    29   10   27 1  
    30   12   28 1  
    31   12   29 1  
    32   13   30 1  
    33   16   31 1  
    34   16   32 1  
    35   19   33 1  
    36   20   34 1  
@<TRIPOS>SUBSTRUCTURE
     1 OAG         1

