### 
### Created by X-TOOL on Mon Sep 10 21:13:12 2018
### 

@<TRIPOS>MOLECULE
4g9c_ligand
   56    59     1     0     0
SMALL
GAST_HUCK


@<TRIPOS>ATOM
      1 C1         40.4680  -26.5080   -2.9310 C.2       1 0WP         0.2297
      2 C2         41.1710  -25.2370   -3.1680 C.ar      1 0WP         0.1103
      3 O3         41.0490  -27.5820   -3.0940 O.2       1 0WP        -0.3767
      4 C4         41.6220  -24.8870   -4.4320 C.ar      1 0WP         0.1720
      5 C5         42.2900  -23.6640   -4.6400 C.ar      1 0WP         0.1022
      6 C6         42.5000  -22.7970   -3.5660 C.ar      1 0WP        -0.0395
      7 C7         42.0460  -23.1520   -2.2910 C.ar      1 0WP        -0.0396
      8 C8         41.3770  -24.3800   -2.0990 C.ar      1 0WP         0.1359
      9 F9         40.9310  -24.7290   -0.8670 F         1 0WP        -0.1912
     10 F10        41.4150  -25.7260   -5.4660 F         1 0WP        -0.1884
     11 N11        42.7360  -23.3050   -5.9410 N.am      1 0WP        -0.2333
     12 N12        39.1890  -26.3770   -2.5310 N.am      1 0WP        -0.2276
     13 C13        42.0750  -23.4640   -7.1060 C.2       1 0WP         0.2376
     14 C14        42.6800  -23.0430   -8.1500 C.ar      1 0WP         0.0847
     15 O15        40.9540  -23.9600   -7.2080 O.2       1 0WP        -0.3733
     16 C16        44.0500  -22.7710   -8.2430 C.ar      1 0WP        -0.0142
     17 C17        44.5860  -22.3020   -9.4670 C.ar      1 0WP        -0.0274
     18 C18        43.7360  -22.1150  -10.5800 C.ar      1 0WP        -0.0336
     19 C19        42.3640  -22.3950  -10.4620 C.ar      1 0WP        -0.0162
     20 C20        41.8500  -22.8550   -9.2520 C.ar      1 0WP        -0.0166
     21 C21        41.4260  -22.1980  -11.6540 C.3       1 0WP         0.0815
     22 C22        41.1860  -23.5280  -12.3950 C.3       1 0WP        -0.0593
     23 C23        40.0790  -21.6310  -11.1860 C.3       1 0WP        -0.0593
     24 C24        38.2430  -27.3880   -2.2180 C.ar      1 0WP         0.0955
     25 C25        38.6350  -28.7260   -2.0100 C.ar      1 0WP         0.0023
     26 C26        37.6300  -29.6490   -1.7030 C.ar      1 0WP         0.1011
     27 C27        36.3390  -29.2220   -1.6190 C.ar      1 0WP         0.0120
     28 N28        35.8920  -27.9570   -1.8060 N.ar      1 0WP        -0.3167
     29 C29        36.8770  -27.0680   -2.1040 C.ar      1 0WP         0.0307
     30 C30        37.6470  -31.0100   -1.4430 C.2       1 0WP         0.3012
     31 N31        36.4330  -31.4770   -1.1970 N.pl3     1 0WP        -0.2388
     32 N32        35.6300  -30.3720   -1.3060 N.2       1 0WP        -0.4193
     33 C33        42.0080  -21.2400  -12.6030 C.1       1 0WP         0.0570
     34 N34        42.4640  -20.4840  -13.3480 N.1       1 0WP        -0.3138
     35 O35        38.7550  -31.7950   -1.4370 O.3       1 0WP        -0.2316
     36 C36        38.5860  -33.1820   -1.1530 C.3       1 0WP         0.0854
     37 H          43.0149  -21.8487   -3.7199 H         1 0WP         0.0517
     38 H          42.2087  -22.4813   -1.4473 H         1 0WP         0.0544
     39 H          43.6608  -22.8788   -6.0004 H         1 0WP         0.2229
     40 H          38.8532  -25.4181   -2.4403 H         1 0WP         0.2276
     41 H          44.6992  -22.9190   -7.3800 H         1 0WP         0.0902
     42 H          45.6511  -22.0859   -9.5502 H         1 0WP         0.0708
     43 H          44.1424  -21.7554  -11.5253 H         1 0WP         0.0881
     44 H          40.7849  -23.0705   -9.1667 H         1 0WP         0.0910
     45 H          42.1372  -23.9165  -12.7589 H         1 0WP         0.0160
     46 H          40.7360  -24.2475  -11.7109 H         1 0WP         0.0160
     47 H          40.5157  -23.3573  -13.2374 H         1 0WP         0.0160
     48 H          39.6191  -22.3247  -10.4822 H         1 0WP         0.0160
     49 H          40.2407  -20.6699  -10.6978 H         1 0WP         0.0160
     50 H          39.4238  -21.4971  -12.0468 H         1 0WP         0.0160
     51 H          39.6793  -29.0291   -2.0854 H         1 0WP         0.0639
     52 H          36.5870  -26.0300   -2.2668 H         1 0WP         0.0711
     53 H          36.1594  -32.4348   -0.9777 H         1 0WP         0.2618
     54 H          38.1483  -33.2978   -0.1615 H         1 0WP         0.0626
     55 H          37.9252  -33.6261   -1.8974 H         1 0WP         0.0626
     56 H          39.5558  -33.6787   -1.1838 H         1 0WP         0.0626
@<TRIPOS>BOND
     1    1    2 1  
     2    1    3 2  
     3    1   12 am 
     4    2    4 ar 
     5    2    8 ar 
     6    4    5 ar 
     7    4   10 1  
     8    5    6 ar 
     9    5   11 1  
    10    6    7 ar 
    11    7    8 ar 
    12    8    9 1  
    13   11   13 am 
    14   12   24 1  
    15   13   14 1  
    16   13   15 2  
    17   14   16 ar 
    18   14   20 ar 
    19   16   17 ar 
    20   17   18 ar 
    21   18   19 ar 
    22   19   20 ar 
    23   19   21 1  
    24   21   22 1  
    25   21   23 1  
    26   21   33 1  
    27   24   25 ar 
    28   24   29 ar 
    29   25   26 ar 
    30   26   27 ar 
    31   26   30 2  
    32   27   28 ar 
    33   27   32 2  
    34   28   29 ar 
    35   30   31 1  
    36   30   35 1  
    37   31   32 1  
    38   33   34 3  
    39   35   36 1  
    40    6   37 1  
    41    7   38 1  
    42   11   39 1  
    43   12   40 1  
    44   16   41 1  
    45   17   42 1  
    46   18   43 1  
    47   20   44 1  
    48   22   45 1  
    49   22   46 1  
    50   22   47 1  
    51   23   48 1  
    52   23   49 1  
    53   23   50 1  
    54   25   51 1  
    55   29   52 1  
    56   31   53 1  
    57   36   54 1  
    58   36   55 1  
    59   36   56 1  
@<TRIPOS>SUBSTRUCTURE
     1 0WP         1

