### 
### Created by X-TOOL on Mon Sep 10 21:13:10 2018
### 

@<TRIPOS>MOLECULE
4gb9_ligand
   79    84     1     0     0
SMALL
GAST_HUCK


@<TRIPOS>ATOM
      1 C1          9.0550   -2.9520   16.6550 C.3       1 0WR        -0.0361
      2 N1         13.4260   -1.4250   18.9060 N.4       1 0WR         0.2539
      3 O1         15.1030   -8.2290   22.2000 O.3       1 0WR        -0.3757
      4 C2          9.3100   -2.3920   18.0510 C.3       1 0WR         0.0637
      5 N2         15.4750   -3.4400   19.7570 N.2       1 0WR        -0.3093
      6 O2          9.2420   -3.4290   18.9540 O.3       1 0WR        -0.3888
      7 C3          8.2310   -1.3550   18.3930 C.3       1 0WR        -0.0361
      8 N3         17.0700   -2.0030   19.1310 N.pl3     1 0WR        -0.2196
      9 C4         10.7070   -1.6580   18.1060 C.3       1 0WR        -0.0031
     10 N4         18.9750   -3.7330   19.0560 N.ar      1 0WR        -0.2517
     11 C5         11.0570   -1.2920   19.5000 C.3       1 0WR        -0.0069
     12 N5         18.3460   -5.9430   19.6190 N.ar      1 0WR        -0.2459
     13 C6         12.3950   -0.6490   19.5700 C.3       1 0WR        -0.0294
     14 N6         16.1480   -6.5970   20.2440 N.pl3     1 0WR        -0.2859
     15 C7         13.0680   -1.7800   17.5420 C.3       1 0WR        -0.0294
     16 C8         11.7260   -2.4380   17.4720 C.3       1 0WR        -0.0069
     17 C9         14.7540   -0.9400   19.4390 C.3       1 0WR         0.0493
     18 C10        15.7670   -2.1020   19.4350 C.2       1 0WR         0.1699
     19 C11        16.6720   -4.1820   19.6440 C.ar      1 0WR         0.0833
     20 C12        17.6660   -3.2940   19.2590 C.ar      1 0WR         0.1437
     21 C13        17.8240   -0.8550   18.7350 C.3       1 0WR         0.0489
     22 C14        19.2790   -5.0240   19.2460 C.ar      1 0WR         0.2119
     23 C15        17.0550   -5.5630   19.8370 C.ar      1 0WR         0.1229
     24 C16        14.8200   -6.4150   20.6780 C.3       1 0WR         0.0556
     25 C17        14.5950   -6.9320   22.0600 C.3       1 0WR         0.0683
     26 C18        16.4820   -8.2780   21.9230 C.3       1 0WR         0.0683
     27 C19        16.7280   -7.8550   20.5180 C.3       1 0WR         0.0556
     28 N7         20.5970   -5.4580   19.0040 N.pl3     1 0WR        -0.1447
     29 C20        21.2250   -6.5160   19.6440 C.ar      1 0WR         0.1000
     30 C21        20.8400   -7.3960   20.6420 C.ar      1 0WR        -0.0403
     31 C22        21.7260   -8.3610   21.0720 C.ar      1 0WR        -0.0774
     32 C23        22.9920   -8.4550   20.5160 C.ar      1 0WR        -0.0799
     33 C24        23.3910   -7.5900   19.5230 C.ar      1 0WR        -0.0679
     34 C25        22.5070   -6.6040   19.0790 C.ar      1 0WR         0.0170
     35 N8         22.6010   -5.6290   18.1390 N.2       1 0WR        -0.3074
     36 C26        21.4830   -4.9530   18.0860 C.2       1 0WR         0.2400
     37 N9         21.2400   -3.8880   17.2420 N.pl3     1 0WR        -0.2638
     38 C27        20.1500   -4.1760   16.2970 C.3       1 0WR         0.0254
     39 C28        22.4570   -3.4570   16.5420 C.3       1 0WR         0.0254
     40 H1          9.1053   -2.1368   15.9181 H         1 0WR         0.0257
     41 H2          8.0577   -3.4149   16.6221 H         1 0WR         0.0257
     42 H3          9.8181   -3.7080   16.4181 H         1 0WR         0.0257
     43 H4         13.3678   -2.3327   19.3405 H         1 0WR         0.2055
     44 H5          9.3990   -3.0957   19.8297 H         1 0WR         0.2101
     45 H6          8.4158   -0.9519   19.3997 H         1 0WR         0.0257
     46 H7          7.2409   -1.8334   18.3657 H         1 0WR         0.0257
     47 H8          8.2632   -0.5366   17.6588 H         1 0WR         0.0257
     48 H9         10.6122   -0.7217   17.5365 H         1 0WR         0.0332
     49 H10        11.0640   -2.2017   20.1183 H         1 0WR         0.0320
     50 H11        10.3022   -0.5915   19.8868 H         1 0WR         0.0320
     51 H12        12.3356    0.3395   19.0911 H         1 0WR         0.0815
     52 H13        12.6721   -0.5281   20.6276 H         1 0WR         0.0815
     53 H14        13.8248   -2.4720   17.1441 H         1 0WR         0.0815
     54 H15        13.0486   -0.8663   16.9299 H         1 0WR         0.0815
     55 H16        11.4565   -2.5810   16.4152 H         1 0WR         0.0320
     56 H17        11.7850   -3.4165   17.9710 H         1 0WR         0.0320
     57 H18        14.6235   -0.5714   20.4672 H         1 0WR         0.1084
     58 H19        15.1288   -0.1252   18.8021 H         1 0WR         0.1084
     59 H20        17.1638    0.0243   18.7037 H         1 0WR         0.0571
     60 H21        18.2550   -1.0256   17.7374 H         1 0WR         0.0571
     61 H22        18.6334   -0.6802   19.4591 H         1 0WR         0.0571
     62 H23        14.1475   -6.9465   19.9886 H         1 0WR         0.0549
     63 H24        14.5874   -5.3400   20.6612 H         1 0WR         0.0549
     64 H25        15.0990   -6.2689   22.7785 H         1 0WR         0.0580
     65 H26        13.5149   -6.9445   22.2678 H         1 0WR         0.0580
     66 H27        16.8468   -9.3061   22.0642 H         1 0WR         0.0580
     67 H28        17.0163   -7.6022   22.6069 H         1 0WR         0.0580
     68 H29        17.8131   -7.7920   20.3491 H         1 0WR         0.0549
     69 H30        16.2940   -8.6036   19.8388 H         1 0WR         0.0549
     70 H31        19.8513   -7.3266   21.0809 H         1 0WR         0.0545
     71 H32        21.4296   -9.0526   21.8523 H         1 0WR         0.0516
     72 H33        23.6760   -9.2190   20.8675 H         1 0WR         0.0516
     73 H34        24.3812   -7.6730   19.0898 H         1 0WR         0.0521
     74 H35        19.9898   -3.3043   15.6454 H         1 0WR         0.0493
     75 H36        19.2272   -4.3905   16.8559 H         1 0WR         0.0493
     76 H37        20.4180   -5.0484   15.6829 H         1 0WR         0.0493
     77 H38        23.2491   -3.2507   17.2769 H         1 0WR         0.0493
     78 H39        22.2448   -2.5444   15.9657 H         1 0WR         0.0493
     79 H40        22.7887   -4.2531   15.8592 H         1 0WR         0.0493
@<TRIPOS>BOND
     1    4    1 1  
     2    2   13 1  
     3    2   15 1  
     4   17    2 1  
     5   25    3 1  
     6    3   26 1  
     7    4    6 1  
     8    4    7 1  
     9    9    4 1  
    10    5   18 2  
    11   19    5 1  
    12    8   18 1  
    13   20    8 1  
    14    8   21 1  
    15   11    9 1  
    16   16    9 1  
    17   20   10 ar 
    18   22   10 ar 
    19   13   11 1  
    20   12   22 ar 
    21   23   12 ar 
    22   14   23 1  
    23   24   14 1  
    24   14   27 1  
    25   15   16 1  
    26   18   17 1  
    27   19   20 ar 
    28   23   19 ar 
    29   22   28 1  
    30   24   25 1  
    31   26   27 1  
    32   28   29 1  
    33   28   36 1  
    34   29   30 ar 
    35   29   34 ar 
    36   30   31 ar 
    37   31   32 ar 
    38   32   33 ar 
    39   33   34 ar 
    40   34   35 1  
    41   35   36 2  
    42   36   37 1  
    43   37   38 1  
    44   37   39 1  
    45    1   40 1  
    46    1   41 1  
    47    1   42 1  
    48    2   43 1  
    49    6   44 1  
    50    7   45 1  
    51    7   46 1  
    52    7   47 1  
    53    9   48 1  
    54   11   49 1  
    55   11   50 1  
    56   13   51 1  
    57   13   52 1  
    58   15   53 1  
    59   15   54 1  
    60   16   55 1  
    61   16   56 1  
    62   17   57 1  
    63   17   58 1  
    64   21   59 1  
    65   21   60 1  
    66   21   61 1  
    67   24   62 1  
    68   24   63 1  
    69   25   64 1  
    70   25   65 1  
    71   26   66 1  
    72   26   67 1  
    73   27   68 1  
    74   27   69 1  
    75   30   70 1  
    76   31   71 1  
    77   32   72 1  
    78   33   73 1  
    79   38   74 1  
    80   38   75 1  
    81   38   76 1  
    82   39   77 1  
    83   39   78 1  
    84   39   79 1  
@<TRIPOS>SUBSTRUCTURE
     1 0WR         1

