### 
### Created by X-TOOL on Mon Sep 10 21:13:14 2018
### 

@<TRIPOS>MOLECULE
4gbd_ligand
   39    41     1     0     0
SMALL
GAST_HUCK


@<TRIPOS>ATOM
      1 O8        -35.5780   -7.0800   34.8530 O.3       1 MCF        -0.3823
      2 C8        -35.8050   -5.8390   35.5840 C.3       1 MCF         0.1026
      3 C7        -34.6410   -5.3150   36.4420 C.3       1 MCF         0.0654
      4 N6        -34.0390   -6.4000   37.1760 N.pl3     1 MCF        -0.2924
      5 C5        -34.5740   -6.9340   38.2860 C.2       1 MCF         0.0845
      6 N4        -35.8160   -7.0470   38.5650 N.2       1 MCF        -0.2917
      7 C10       -36.9180   -6.6400   37.8450 C.2       1 MCF         0.1095
      8 C9        -36.9290   -6.0630   36.4870 C.2       1 MCF         0.0340
      9 N1        -38.2360   -5.7820   36.2680 N.2       1 MCF        -0.3271
     10 C2        -38.9560   -6.1350   37.3750 C.2       1 MCF         0.0915
     11 N3        -38.1440   -6.6500   38.3340 N.pl3     1 MCF        -0.2212
     12 C1S       -38.5820   -7.0930   39.6750 C.3       1 MCF         0.1963
     13 C2S       -40.0820   -6.9430   39.8460 C.3       1 MCF         0.1383
     14 O2S       -40.4370   -5.5960   40.1340 O.3       1 MCF        -0.3836
     15 O4S       -38.3700   -8.4710   39.7770 O.3       1 MCF        -0.3384
     16 C4S       -39.4080   -9.0550   40.5560 C.3       1 MCF         0.0996
     17 C3S       -40.3870   -7.9590   40.9310 C.3       1 MCF         0.1132
     18 O3S       -40.1130   -7.3130   42.1690 O.3       1 MCF        -0.3864
     19 C5S       -39.9100  -10.3440   39.9280 C.3       1 MCF         0.0224
     20 S5S       -40.2260  -11.4770   41.2240 S.3       1 MCF        -0.1615
     21 C6S       -38.9150  -12.6430   41.1720 C.3       1 MCF        -0.0180
     22 H1        -36.3597   -7.3045   34.3620 H         1 MCF         0.2121
     23 H2        -36.0636   -5.0597   34.8521 H         1 MCF         0.0716
     24 H3        -35.0204   -4.5633   37.1498 H         1 MCF         0.0578
     25 H4        -33.8855   -4.8548   35.7882 H         1 MCF         0.0578
     26 H5        -33.1494   -6.7870   36.8299 H         1 MCF         0.1935
     27 H6        -33.8733   -7.3118   39.0291 H         1 MCF         0.1379
     28 H7        -40.0342   -6.0190   37.4744 H         1 MCF         0.1167
     29 H8        -38.0377   -6.5391   40.4540 H         1 MCF         0.0995
     30 H9        -40.6019   -7.2327   38.9209 H         1 MCF         0.0676
     31 H10       -41.3795   -5.5329   40.2356 H         1 MCF         0.2101
     32 H11       -38.9542   -9.3710   41.5069 H         1 MCF         0.0632
     33 H12       -41.4255   -8.3211   40.9098 H         1 MCF         0.0647
     34 H13       -40.7688   -6.6443   42.3279 H         1 MCF         0.2100
     35 H14       -39.1463  -10.7531   39.2502 H         1 MCF         0.0402
     36 H15       -40.8349  -10.1513   39.3647 H         1 MCF         0.0402
     37 H16       -39.0558  -13.3888   41.9682 H         1 MCF         0.0341
     38 H17       -37.9566  -12.1241   41.3211 H         1 MCF         0.0341
     39 H18       -38.9110  -13.1469   40.1942 H         1 MCF         0.0341
@<TRIPOS>BOND
     1    1    2 1  
     2    2    3 1  
     3    2    8 1  
     4    3    4 1  
     5    4    5 1  
     6    5    6 2  
     7    6    7 1  
     8    7    8 2  
     9    7   11 1  
    10    8    9 1  
    11    9   10 2  
    12   10   11 1  
    13   11   12 1  
    14   12   13 1  
    15   12   15 1  
    16   13   14 1  
    17   13   17 1  
    18   15   16 1  
    19   16   17 1  
    20   16   19 1  
    21   17   18 1  
    22   19   20 1  
    23   20   21 1  
    24    1   22 1  
    25    2   23 1  
    26    3   24 1  
    27    3   25 1  
    28    4   26 1  
    29    5   27 1  
    30   10   28 1  
    31   12   29 1  
    32   13   30 1  
    33   14   31 1  
    34   16   32 1  
    35   17   33 1  
    36   18   34 1  
    37   19   35 1  
    38   19   36 1  
    39   21   37 1  
    40   21   38 1  
    41   21   39 1  
@<TRIPOS>SUBSTRUCTURE
     1 MCF         1

