### 
### Created by X-TOOL on Mon Sep 10 21:13:10 2018
### 

@<TRIPOS>MOLECULE
4gcj_ligand
   41    43     1     0     0
SMALL
GAST_HUCK


@<TRIPOS>ATOM
      1 N01       -51.2180  101.2970  -64.8540 N.2       1 X64        -0.0972
      2 N02       -49.8080   99.5220  -65.2420 N.pl3     1 X64        -0.1630
      3 N03       -52.8710  102.8060  -64.1830 N.pl3     1 X64        -0.2446
      4 N04       -47.0450   93.7690  -62.9890 N.am      1 X64        -0.2601
      5 N05       -56.5950   99.3690  -62.4800 N.2       1 X64        -0.2126
      6 C06       -52.9070  100.5910  -63.3690 C.2       1 X64         0.3462
      7 C07       -52.3620  101.6220  -64.1410 C.2       1 X64         0.3332
      8 C08       -50.8790  100.0290  -64.6510 C.2       1 X64         0.3543
      9 C09       -49.0490   98.4750  -64.8730 C.ar      1 X64         0.1300
     10 C10       -54.0230  100.6840  -62.5330 C.2       1 X64         0.3246
     11 C11       -54.3680   99.6530  -61.6320 C.ar      1 X64         0.1007
     12 C12       -55.6720   99.0340  -61.6450 C.ar      1 X64         0.1046
     13 C13       -55.9640   98.0270  -60.6990 C.ar      1 X64        -0.0228
     14 C14       -55.0040   97.6190  -59.7520 C.ar      1 X64        -0.0498
     15 C15       -53.7310   98.2070  -59.7320 C.ar      1 X64        -0.0510
     16 C16       -53.4120   99.2210  -60.6610 C.ar      1 X64        -0.0333
     17 C17       -49.1770   97.7870  -63.6320 C.ar      1 X64        -0.0054
     18 C18       -48.3310   96.7100  -63.3050 C.ar      1 X64        -0.0232
     19 C19       -47.3310   96.3020  -64.2150 C.ar      1 X64         0.1163
     20 C20       -47.1820   96.9650  -65.4510 C.ar      1 X64        -0.0232
     21 C21       -48.0380   98.0450  -65.7790 C.ar      1 X64        -0.0054
     22 O22       -54.6770  101.7380  -62.4730 O.2       1 X64        -0.2724
     23 O23       -45.2850   95.5630  -62.8670 O.2       1 X64        -0.1495
     24 O24       -45.5850   94.4650  -64.9600 O.2       1 X64        -0.1495
     25 O25       -57.8400   99.3560  -62.0910 O.2       1 X64        -0.4873
     26 O26       -56.3120   99.7280  -63.7080 O.2       1 X64        -0.4873
     27 S27       -51.9390   99.1570  -63.6060 S.3       1 X64         0.2459
     28 S28       -46.2390   94.9820  -63.7780 S.o2      1 X64         0.0695
     29 H1        -49.5145   99.9971  -66.1075 H         1 X64         0.2872
     30 H2        -53.7217  103.0203  -63.6433 H         1 X64         0.2269
     31 H3        -52.4269  103.5375  -64.7562 H         1 X64         0.2269
     32 H4        -46.5494   92.9565  -62.6822 H         1 X64         0.1636
     33 H5        -48.0273   93.8492  -62.8195 H         1 X64         0.1636
     34 H6        -56.9425   97.5605  -60.7015 H         1 X64         0.0702
     35 H7        -55.2510   96.8454  -59.0340 H         1 X64         0.0667
     36 H8        -52.9942   97.8839  -59.0055 H         1 X64         0.0671
     37 H9        -52.4293   99.6780  -60.6377 H         1 X64         0.0684
     38 H10       -49.9393   98.0982  -62.9269 H         1 X64         0.0694
     39 H11       -48.4469   96.1957  -62.3578 H         1 X64         0.0666
     40 H12       -46.4144   96.6489  -66.1481 H         1 X64         0.0666
     41 H13       -47.9220   98.5502  -66.7311 H         1 X64         0.0694
@<TRIPOS>BOND
     1    1    7 1  
     2    8    1 2  
     3    2    8 1  
     4    9    2 1  
     5    7    3 1  
     6   28    4 am 
     7   12    5 1  
     8    5   25 2  
     9    5   26 2  
    10    6    7 2  
    11    6   10 1  
    12   27    6 1  
    13    8   27 1  
    14   17    9 ar 
    15    9   21 ar 
    16   10   11 1  
    17   10   22 2  
    18   11   12 ar 
    19   11   16 ar 
    20   12   13 ar 
    21   13   14 ar 
    22   15   14 ar 
    23   16   15 ar 
    24   18   17 ar 
    25   19   18 ar 
    26   19   20 ar 
    27   19   28 1  
    28   20   21 ar 
    29   28   23 2  
    30   28   24 2  
    31    2   29 1  
    32    3   30 1  
    33    3   31 1  
    34    4   32 1  
    35    4   33 1  
    36   13   34 1  
    37   14   35 1  
    38   15   36 1  
    39   16   37 1  
    40   17   38 1  
    41   18   39 1  
    42   20   40 1  
    43   21   41 1  
@<TRIPOS>SUBSTRUCTURE
     1 X64         1

