### 
### Created by X-TOOL on Mon Sep 10 21:13:13 2018
### 

@<TRIPOS>MOLECULE
4gd6_ligand
   53    55     1     0     0
SMALL
GAST_HUCK


@<TRIPOS>ATOM
      1 CAN        42.8310   60.0590   -1.5950 C.ar      1 17K        -0.0578
      2 CAJ        44.0230   60.1860   -2.3030 C.ar      1 17K        -0.0681
      3 CAI        45.0610   60.9590   -1.7740 C.ar      1 17K        -0.0684
      4 CAK        44.9260   61.6090   -0.5520 C.ar      1 17K        -0.0681
      5 CAO        43.7340   61.4900    0.1550 C.ar      1 17K        -0.0578
      6 CAY        42.7030   60.7130   -0.3690 C.ar      1 17K        -0.0229
      7 CAS        41.4170   60.6000    0.4240 C.3       1 17K         0.0818
      8 CAX        40.3410   61.5020   -0.1890 C.2       1 17K         0.2455
      9 OAD        40.6030   62.5960   -0.6920 O.2       1 17K        -0.3673
     10 OAV        39.0830   61.0250   -0.1420 O.3       1 17K        -0.2730
     11 CG1        38.0020   61.8400   -0.5610 C.3       1 17K         0.1050
     12 CB         36.7740   61.3020    0.1860 C.3       1 17K         0.1433
     13 SBE        35.3330   61.6210   -0.8840 S.o2      1 17K        -0.0296
     14 OAE        35.6760   60.9370   -2.1730 O.2       1 17K        -0.1763
     15 OAF        35.2850   63.1100   -1.0910 O.2       1 17K        -0.1763
     16 CG2        36.8640   59.7850    0.4670 C.3       1 17K        -0.0339
     17 CA         36.5630   62.1480    1.4550 C.3       1 17K         0.1160
     18 C          37.7550   62.1050    2.4430 C.2       1 17K         0.0617
     19 OXT        37.7740   61.1900    3.2950 O.co2     1 17K        -0.5666
     20 O          38.6190   63.0080    2.2890 O.co2     1 17K        -0.5666
     21 N          35.2630   61.8360    2.1030 N.pl3     1 17K        -0.2853
     22 CBA        34.8120   62.6310    3.0800 C.2       1 17K         0.1668
     23 NBD        34.6950   64.0140    3.0380 N.pl3     1 17K        -0.2067
     24 CAQ        34.9570   64.9650    2.0320 C.2       1 17K         0.0677
     25 CAM        34.7130   66.3070    2.3080 C.2       1 17K        -0.0415
     26 CAL        34.2220   66.7160    3.5470 C.2       1 17K        -0.0764
     27 CAP        33.9530   65.7730    4.5430 C.2       1 17K        -0.0484
     28 CBB        34.1770   64.4130    4.2940 C.2       1 17K         0.0596
     29 CAR        33.9950   63.3020    5.0490 C.2       1 17K        -0.0781
     30 CAZ        34.3720   62.2320    4.3260 C.2       1 17K         0.0214
     31 CAH        34.3310   60.7680    4.7470 C.2       1 17K         0.0909
     32 OAB        34.5110   59.8470    3.9510 O.2       1 17K        -0.3862
     33 H1         42.0164   59.4624   -1.9893 H         1 17K         0.0561
     34 H2         44.1456   59.6887   -3.2584 H         1 17K         0.0600
     35 H3         45.9886   61.0535   -2.3269 H         1 17K         0.0561
     36 H4         45.7414   62.2024   -0.1545 H         1 17K         0.0600
     37 H5         43.6084   61.9971    1.1048 H         1 17K         0.0561
     38 H6         41.6019   60.9087    1.4635 H         1 17K         0.0675
     39 H7         41.0697   59.5564    0.4077 H         1 17K         0.0675
     40 H8         37.8573   61.7586   -1.6484 H         1 17K         0.0637
     41 H9         38.1857   62.8909   -0.2931 H         1 17K         0.0637
     42 H10        34.4720   61.2743   -0.4910 H         1 17K         0.2100
     43 H11        37.7313   59.5825    1.1125 H         1 17K         0.0253
     44 H12        36.9793   59.2423   -0.4828 H         1 17K         0.0253
     45 H13        35.9455   59.4504    0.9714 H         1 17K         0.0253
     46 H14        36.4944   63.1922    1.1159 H         1 17K         0.0742
     47 H15        34.7151   61.0169    1.8035 H         1 17K         0.1794
     48 H16        35.3416   64.6570    1.0608 H         1 17K         0.1096
     49 H17        34.9098   67.0535    1.5399 H         1 17K         0.0506
     50 H18        34.0475   67.7736    3.7395 H         1 17K         0.0506
     51 H19        33.5702   66.0949    5.5103 H         1 17K         0.0558
     52 H20        33.6094   63.2795    6.0672 H         1 17K         0.0148
     53 H21        34.1351   60.5279    5.7910 H         1 17K         0.1239
@<TRIPOS>BOND
     1    1    2 ar 
     2    1    6 ar 
     3    2    3 ar 
     4    3    4 ar 
     5    4    5 ar 
     6    5    6 ar 
     7    6    7 1  
     8    7    8 1  
     9    8    9 2  
    10    8   10 1  
    11   10   11 1  
    12   11   12 1  
    13   12   13 1  
    14   12   16 1  
    15   12   17 1  
    16   13   14 2  
    17   13   15 2  
    18   17   18 1  
    19   17   21 1  
    20   18   19 ar 
    21   18   20 ar 
    22   21   22 1  
    23   22   23 1  
    24   22   30 2  
    25   23   24 1  
    26   23   28 1  
    27   24   25 2  
    28   25   26 1  
    29   26   27 2  
    30   27   28 1  
    31   28   29 2  
    32   29   30 1  
    33   30   31 1  
    34   31   32 2  
    35    1   33 1  
    36    2   34 1  
    37    3   35 1  
    38    4   36 1  
    39    5   37 1  
    40    7   38 1  
    41    7   39 1  
    42   11   40 1  
    43   11   41 1  
    44   13   42 1  
    45   16   43 1  
    46   16   44 1  
    47   16   45 1  
    48   17   46 1  
    49   21   47 1  
    50   24   48 1  
    51   25   49 1  
    52   26   50 1  
    53   27   51 1  
    54   29   52 1  
    55   31   53 1  
@<TRIPOS>SUBSTRUCTURE
     1 17K         1

