### 
### Created by X-TOOL on Mon Sep 10 21:13:14 2018
### 

@<TRIPOS>MOLECULE
4ge1_ligand
   25    26     1     0     0
SMALL
GAST_HUCK


@<TRIPOS>ATOM
      1 N1          4.8580    6.1310   46.6830 N.4       1 TSS         0.2194
      2 CA          6.1600    5.5690   46.4170 C.3       1 TSS        -0.0312
      3 CB          6.8970    4.9790   47.5780 C.3       1 TSS         0.0040
      4 CG          6.1010    4.2420   48.6080 C.2       1 TSS        -0.0413
      5 CD1         5.8520    4.6530   49.9100 C.2       1 TSS         0.0166
      6 NE1         5.1120    3.7150   50.5370 N.pl3     1 TSS        -0.2891
      7 CE2         4.8490    2.6800   49.6630 C.ar      1 TSS         0.0603
      8 CD2         5.4520    2.9770   48.4670 C.ar      1 TSS        -0.0214
      9 CZ2         4.1120    1.4740   49.8170 C.ar      1 TSS        -0.0443
     10 CH2         4.0110    0.5800   48.7550 C.ar      1 TSS        -0.0768
     11 CZ3         4.6260    0.8820   47.5380 C.ar      1 TSS        -0.0792
     12 CE3         5.3450    2.0730   47.3850 C.ar      1 TSS        -0.0747
     13 H1          4.4674    6.4935   45.8274 H         1 TSS         0.1995
     14 H2          4.9450    6.8771   47.3552 H         1 TSS         0.1995
     15 H3          4.2520    5.4151   47.0521 H         1 TSS         0.1995
     16 H4          6.7875    6.3696   45.9983 H         1 TSS         0.0828
     17 H5          6.0312    4.7742   45.6676 H         1 TSS         0.0828
     18 H6          7.4144    5.8030   48.0911 H         1 TSS         0.0401
     19 H7          7.6394    4.2759   47.1723 H         1 TSS         0.0401
     20 H8          6.1988    5.5845   50.3549 H         1 TSS         0.0795
     21 H9          4.7932    3.7639   51.5152 H         1 TSS         0.2216
     22 H10         3.6288    1.2508   50.7613 H         1 TSS         0.0541
     23 H11         3.4583   -0.3452   48.8718 H         1 TSS         0.0530
     24 H12         4.5460    0.1901   46.7073 H         1 TSS         0.0510
     25 H13         5.8195    2.3023   46.4377 H         1 TSS         0.0540
@<TRIPOS>BOND
     1    1    2 1  
     2    2    3 1  
     3    3    4 1  
     4    4    5 2  
     5    4    8 1  
     6    5    6 1  
     7    6    7 1  
     8    7    8 ar 
     9    7    9 ar 
    10    8   12 ar 
    11    9   10 ar 
    12   10   11 ar 
    13   11   12 ar 
    14    1   13 1  
    15    1   14 1  
    16    1   15 1  
    17    2   16 1  
    18    2   17 1  
    19    3   18 1  
    20    3   19 1  
    21    5   20 1  
    22    6   21 1  
    23    9   22 1  
    24   10   23 1  
    25   11   24 1  
    26   12   25 1  
@<TRIPOS>SUBSTRUCTURE
     1 TSS         1

