### 
### Created by X-TOOL on Mon Sep 10 21:13:13 2018
### 

@<TRIPOS>MOLECULE
4gfm_ligand
   26    27     1     0     0
SMALL
GAST_HUCK


@<TRIPOS>ATOM
      1 C4         31.3720  -14.5380    3.8790 C.ar      1 0X2         0.0882
      2 C5         31.0270  -15.4370    2.8820 C.ar      1 0X2         0.0618
      3 C6         30.5150  -16.7030    3.1850 C.ar      1 0X2        -0.0421
      4 C11        34.2660   -9.7440    1.9680 C.2       1 0X2         0.1597
      5 C7         31.9350  -13.1700    3.5130 C.2       1 0X2         0.2538
      6 C8         33.8770  -12.0740    2.4230 C.2       1 0X2         0.1110
      7 C9         35.0350  -12.3520    1.6830 C.2       1 0X2        -0.0141
      8 C10        35.7870  -11.3140    1.1180 C.2       1 0X2        -0.0223
      9 C12        33.4840  -10.7420    2.5540 C.3       1 0X2         0.1039
     10 N1         33.1430  -13.1710    2.9280 N.am      1 0X2        -0.1976
     11 N2         35.3840  -10.0480    1.2590 N.2       1 0X2        -0.3067
     12 C3         31.1910  -14.9590    5.1820 C.ar      1 0X2         0.0618
     13 O2         33.9320   -8.5490    2.0900 O.2       1 0X2        -0.3989
     14 O1         31.3230  -12.1280    3.7490 O.2       1 0X2        -0.3621
     15 CL2        31.6120  -13.8310    6.4550 Cl        1 0X2        -0.0646
     16 C2         30.6790  -16.2070    5.5280 C.ar      1 0X2        -0.0421
     17 CL1        31.2310  -14.9590    1.1760 Cl        1 0X2        -0.0646
     18 C1         30.3390  -17.0960    4.5100 C.ar      1 0X2        -0.0566
     19 H1         30.2532  -17.3834    2.3828 H         1 0X2         0.0636
     20 H2         35.3528  -13.3846    1.5462 H         1 0X2         0.0289
     21 H3         36.6980  -11.5384    0.5651 H         1 0X2         0.0966
     22 H4         32.4769  -10.6590    2.1195 H         1 0X2         0.0802
     23 H5         33.4377  -10.5242    3.6312 H         1 0X2         0.0802
     24 H6         33.5811  -14.0654    2.8376 H         1 0X2         0.2532
     25 H7         30.5475  -16.4815    6.5684 H         1 0X2         0.0636
     26 H8         29.9439  -18.0776    4.7454 H         1 0X2         0.0652
@<TRIPOS>BOND
     1    1    2 ar 
     2    5    1 1  
     3    1   12 ar 
     4    2    3 ar 
     5    2   17 1  
     6    3   18 ar 
     7    9    4 1  
     8    4   11 1  
     9    4   13 2  
    10   10    5 am 
    11    5   14 2  
    12    6    7 2  
    13    6    9 1  
    14    6   10 1  
    15    7    8 1  
    16    8   11 2  
    17   12   15 1  
    18   12   16 ar 
    19   16   18 ar 
    20    3   19 1  
    21    7   20 1  
    22    8   21 1  
    23    9   22 1  
    24    9   23 1  
    25   10   24 1  
    26   16   25 1  
    27   18   26 1  
@<TRIPOS>SUBSTRUCTURE
     1 0X2         1

