### 
### Created by X-TOOL on Mon Sep 10 21:13:12 2018
### 

@<TRIPOS>MOLECULE
4gfn_ligand
   45    49     1     0     0
SMALL
GAST_HUCK


@<TRIPOS>ATOM
      1 CL1       -10.3160   -1.9630  -11.5540 Cl        1 SUY        -0.1174
      2 C9        -11.4590   -3.1370  -12.3800 C.2       1 SUY         0.0376
      3 C8        -12.8740   -3.2510  -12.0190 C.2       1 SUY         0.0567
      4 C10       -13.6390   -2.4160  -11.0160 C.3       1 SUY         0.0025
      5 C11       -14.4880   -3.3330  -10.1430 C.3       1 SUY        -0.0522
      6 N7        -13.3590   -4.2660  -12.7830 N.pl3     1 SUY        -0.2614
      7 C6        -12.4000   -4.8090  -13.5740 C.ar      1 SUY         0.1239
      8 N1        -12.4710   -5.8220  -14.4570 N.ar      1 SUY        -0.2711
      9 C5        -11.0880   -4.1340  -13.3990 C.ar      1 SUY         0.0411
     10 C4         -9.9160   -4.6360  -14.1920 C.ar      1 SUY         0.1115
     11 N13        -8.6090   -4.1130  -14.2400 N.pl3     1 SUY        -0.2897
     12 C17        -7.5540   -4.7770  -15.0060 C.3       1 SUY         0.0408
     13 C16        -6.6460   -3.6090  -15.4250 C.3       1 SUY         0.0327
     14 C18        -7.3930   -2.4700  -16.1140 C.3       1 SUY        -0.0137
     15 N19        -6.4450   -1.5820  -16.7750 N.4       1 SUY         0.2212
     16 C15        -7.0930   -2.3880  -14.6220 C.3       1 SUY         0.0327
     17 C14        -8.2810   -2.7830  -13.7440 C.3       1 SUY         0.0408
     18 N3        -10.1750   -5.6650  -15.0250 N.ar      1 SUY        -0.2631
     19 C2        -11.3970   -6.2410  -15.1360 C.ar      1 SUY         0.1402
     20 S20       -11.6320   -7.5660  -16.1430 S.3       1 SUY         0.0028
     21 C21       -10.3060   -7.8690  -17.1640 C.ar      1 SUY         0.0881
     22 C26        -9.8750   -9.1760  -17.3620 C.ar      1 SUY         0.0446
     23 N25        -8.8240   -9.4080  -18.1730 N.ar      1 SUY        -0.2685
     24 C24        -8.1990   -8.3900  -18.8010 C.ar      1 SUY         0.0835
     25 N23        -8.6020   -7.1190  -18.6330 N.ar      1 SUY        -0.2685
     26 C22        -9.6420   -6.8330  -17.8300 C.ar      1 SUY         0.0446
     27 H1        -14.2910   -1.7077  -11.5482 H         1 SUY         0.0465
     28 H2        -12.9309   -1.8593  -10.3847 H         1 SUY         0.0465
     29 H3        -15.0462   -2.7297   -9.4119 H         1 SUY         0.0255
     30 H4        -13.8352   -4.0412   -9.6118 H         1 SUY         0.0255
     31 H5        -15.1953   -3.8897  -10.7753 H         1 SUY         0.0255
     32 H6        -14.3383   -4.5847  -12.7634 H         1 SUY         0.2308
     33 H7         -7.9679   -5.2916  -15.8857 H         1 SUY         0.0532
     34 H8         -7.0070   -5.4993  -14.3823 H         1 SUY         0.0532
     35 H9         -5.6059   -3.8824  -15.6560 H         1 SUY         0.0381
     36 H10        -8.3891   -2.5542  -16.5730 H         1 SUY         0.0857
     37 H11        -6.9455   -0.8330  -17.2273 H         1 SUY         0.1997
     38 H12        -5.9225   -2.1007  -17.4634 H         1 SUY         0.1997
     39 H13        -5.8115   -1.1980  -16.0915 H         1 SUY         0.1997
     40 H14        -6.4178   -1.6423  -14.1771 H         1 SUY         0.0381
     41 H15        -7.9977   -2.8133  -12.6816 H         1 SUY         0.0532
     42 H16        -9.1236   -2.0890  -13.8792 H         1 SUY         0.0532
     43 H17       -10.3790   -9.9996  -16.8693 H         1 SUY         0.0895
     44 H18        -7.3581   -8.6010  -19.4517 H         1 SUY         0.1074
     45 H19        -9.9640   -5.8062  -17.6995 H         1 SUY         0.0895
@<TRIPOS>BOND
     1    1    2 1  
     2    2    3 2  
     3    2    9 1  
     4    3    4 1  
     5    3    6 1  
     6    4    5 1  
     7    6    7 1  
     8    7    8 ar 
     9    7    9 ar 
    10    8   19 ar 
    11    9   10 ar 
    12   10   11 1  
    13   10   18 ar 
    14   11   12 1  
    15   11   17 1  
    16   12   13 1  
    17   13   14 1  
    18   13   16 1  
    19   14   15 1  
    20   14   16 1  
    21   16   17 1  
    22   18   19 ar 
    23   19   20 1  
    24   20   21 1  
    25   21   22 ar 
    26   21   26 ar 
    27   22   23 ar 
    28   23   24 ar 
    29   24   25 ar 
    30   25   26 ar 
    31    4   27 1  
    32    4   28 1  
    33    5   29 1  
    34    5   30 1  
    35    5   31 1  
    36    6   32 1  
    37   12   33 1  
    38   12   34 1  
    39   13   35 1  
    40   14   36 1  
    41   15   37 1  
    42   15   38 1  
    43   15   39 1  
    44   16   40 1  
    45   17   41 1  
    46   17   42 1  
    47   22   43 1  
    48   24   44 1  
    49   26   45 1  
@<TRIPOS>SUBSTRUCTURE
     1 SUY         1

