### 
### Created by X-TOOL on Mon Sep 10 21:13:15 2018
### 

@<TRIPOS>MOLECULE
4gfo_ligand
   26    27     1     0     0
SMALL
GAST_HUCK


@<TRIPOS>ATOM
      1 C4         13.2760  -13.0620   22.0340 C.ar      1 0X2         0.0882
      2 C5         12.1370  -12.4170   21.5720 C.ar      1 0X2         0.0618
      3 C6         11.7970  -12.4610   20.2180 C.ar      1 0X2        -0.0421
      4 C11        14.7060  -12.9920   27.7390 C.2       1 0X2         0.1597
      5 C7         13.6610  -12.9300   23.4770 C.2       1 0X2         0.2538
      6 C8         13.9570  -14.0250   25.6640 C.2       1 0X2         0.1110
      7 C9         14.0870  -15.2770   26.2900 C.2       1 0X2        -0.0141
      8 C10        14.5140  -15.3480   27.6320 C.2       1 0X2        -0.0223
      9 C12        14.2780  -12.8750   26.4110 C.3       1 0X2         0.1039
     10 N1         13.5840  -13.9900   24.2990 N.am      1 0X2        -0.1976
     11 N2         14.8050  -14.2230   28.3190 N.2       1 0X2        -0.3067
     12 C3         14.1190  -13.7040   21.1270 C.ar      1 0X2         0.0618
     13 O2         15.0110  -11.9570   28.3750 O.2       1 0X2        -0.3989
     14 O1         14.0140  -11.8110   23.8220 O.2       1 0X2        -0.3621
     15 CL2        15.6080  -14.5220   21.6930 Cl        1 0X2        -0.0646
     16 C2         13.7920  -13.7510   19.7690 C.ar      1 0X2        -0.0421
     17 CL1        11.0950  -11.5550   22.7400 Cl        1 0X2        -0.0646
     18 C1         12.6280  -13.1290   19.3160 C.ar      1 0X2        -0.0566
     19 H1         10.8914  -11.9784   19.8686 H         1 0X2         0.0636
     20 H2         13.8587  -16.1890   25.7403 H         1 0X2         0.0289
     21 H3         14.6098  -16.3179   28.1179 H         1 0X2         0.0966
     22 H4         15.0801  -12.3570   25.8648 H         1 0X2         0.0802
     23 H5         13.3767  -12.2446   26.4237 H         1 0X2         0.0802
     24 H6         13.2278  -14.8385   23.9076 H         1 0X2         0.2532
     25 H7         14.4398  -14.2684   19.0707 H         1 0X2         0.0636
     26 H8         12.3688  -13.1643   18.2640 H         1 0X2         0.0652
@<TRIPOS>BOND
     1    1    2 ar 
     2    5    1 1  
     3    1   12 ar 
     4    2    3 ar 
     5    2   17 1  
     6    3   18 ar 
     7    9    4 1  
     8    4   11 1  
     9    4   13 2  
    10   10    5 am 
    11    5   14 2  
    12    6    7 2  
    13    6    9 1  
    14    6   10 1  
    15    7    8 1  
    16    8   11 2  
    17   12   15 1  
    18   12   16 ar 
    19   16   18 ar 
    20    3   19 1  
    21    7   20 1  
    22    8   21 1  
    23    9   22 1  
    24    9   23 1  
    25   10   24 1  
    26   16   25 1  
    27   18   26 1  
@<TRIPOS>SUBSTRUCTURE
     1 0X2         1

