### 
### Created by X-TOOL on Mon Sep 10 21:13:11 2018
### 

@<TRIPOS>MOLECULE
4gg5_ligand
   55    58     1     0     0
SMALL
GAST_HUCK


@<TRIPOS>ATOM
      1 CAQ        -4.7250   17.3410   34.7260 C.3       1 0J3         0.0711
      2 CAO        -5.9100   18.1030   35.2380 C.3       1 0J3        -0.0111
      3 NBD        -5.6570   18.7360   36.5620 N.4       1 0J3         0.2360
      4 CAA        -6.2770   18.2720   37.7510 C.3       1 0J3        -0.0429
      5 CAP        -4.3840   19.4930   36.6070 C.3       1 0J3        -0.0111
      6 CAR        -3.5470   19.3240   35.3850 C.3       1 0J3         0.0711
      7 NBE        -3.5550   18.0170   34.9550 N.pl3     1 0J3        -0.2854
      8 CAX        -2.6120   17.6870   33.8640 C.ar      1 0J3         0.0865
      9 CAM        -2.6940   16.5240   33.1180 C.ar      1 0J3        -0.0042
     10 CBB        -1.7440   16.3100   32.0800 C.ar      1 0J3         0.0407
     11 CAJ        -1.5800   18.6380   33.5670 C.ar      1 0J3         0.0481
     12 NAT        -0.7200   18.4130   32.5960 N.ar      1 0J3        -0.2824
     13 CBA        -0.7690   17.2890   31.8490 C.ar      1 0J3         0.0694
     14 CAN         0.1900   17.1190   30.8230 C.ar      1 0J3        -0.0179
     15 CAY         0.1740   15.9760   30.0300 C.ar      1 0J3         0.0247
     16 CBF         1.1990   15.8200   28.9050 C.3       1 0J3         0.3607
     17 FAE         0.5030   15.8650   27.7440 F         1 0J3        -0.2333
     18 FAF         2.0420   16.8300   28.8940 F         1 0J3        -0.2333
     19 FAD         1.8460   14.6800   28.9750 F         1 0J3        -0.2333
     20 CAL        -0.8270   14.9590   30.2590 C.ar      1 0J3        -0.0318
     21 CAZ        -1.7610   15.1220   31.2510 C.ar      1 0J3         0.0663
     22 NAU        -2.7580   14.0970   31.4800 N.pl3     1 0J3        -0.3057
     23 CAS        -2.8570   12.9630   30.5840 C.3       1 0J3         0.0604
     24 CAV        -3.6070   13.2920   29.2920 C.ar      1 0J3        -0.0134
     25 CAK        -2.8930   13.3800   28.0660 C.ar      1 0J3        -0.0157
     26 CAH        -4.9910   13.5290   29.3350 C.ar      1 0J3        -0.0531
     27 CAG        -5.6890   13.8460   28.1600 C.ar      1 0J3        -0.0603
     28 CAI        -4.9760   13.9240   26.9300 C.ar      1 0J3        -0.0258
     29 CAW        -3.5860   13.6900   26.9020 C.ar      1 0J3         0.1930
     30 NBC        -2.8980   13.7710   25.6550 N.2       1 0J3         0.3131
     31 OAC        -3.5250   14.3000   24.6510 O.2       1 0J3         0.1781
     32 OAB        -1.6640   13.3320   25.5140 O.2       1 0J3         0.1781
     33 H1         -4.8413   17.1847   33.6434 H         1 0J3         0.0577
     34 H2         -4.6800   16.3666   35.2344 H         1 0J3         0.0577
     35 H3         -6.7588   17.4101   35.3355 H         1 0J3         0.0835
     36 H4         -6.1616   18.8913   34.5133 H         1 0J3         0.0835
     37 H5         -6.2692   19.5271   36.4382 H         1 0J3         0.2032
     38 H6         -5.9446   18.8856   38.6013 H         1 0J3         0.0778
     39 H7         -5.9974   17.2224   37.9248 H         1 0J3         0.0778
     40 H8         -7.3696   18.3484   37.6487 H         1 0J3         0.0778
     41 H9         -3.8045   19.1481   37.4761 H         1 0J3         0.0835
     42 H10        -4.6184   20.5614   36.7232 H         1 0J3         0.0835
     43 H11        -2.5128   19.6202   35.6143 H         1 0J3         0.0577
     44 H12        -3.9441   19.9673   34.5860 H         1 0J3         0.0577
     45 H13        -3.4664   15.7908   33.3203 H         1 0J3         0.0664
     46 H14        -1.5076   19.5505   34.1476 H         1 0J3         0.0865
     47 H15         0.9406   17.8826   30.6540 H         1 0J3         0.0909
     48 H16        -0.8400   14.0653   29.6457 H         1 0J3         0.0530
     49 H17        -3.3989   14.1745   32.2826 H         1 0J3         0.1813
     50 H18        -3.3887   12.1512   31.1019 H         1 0J3         0.0680
     51 H19        -1.8411   12.6296   30.3254 H         1 0J3         0.0680
     52 H20        -1.8231   13.2077   28.0394 H         1 0J3         0.0630
     53 H21        -5.5210   13.4668   30.2785 H         1 0J3         0.0601
     54 H22        -6.7571   14.0291   28.1882 H         1 0J3         0.0614
     55 H23        -5.5029   14.1637   26.0135 H         1 0J3         0.0634
@<TRIPOS>BOND
     1    1    2 1  
     2    1    7 1  
     3    2    3 1  
     4    3    4 1  
     5    3    5 1  
     6    5    6 1  
     7    6    7 1  
     8    7    8 1  
     9    8    9 ar 
    10    8   11 ar 
    11    9   10 ar 
    12   10   13 ar 
    13   10   21 ar 
    14   11   12 ar 
    15   12   13 ar 
    16   13   14 ar 
    17   14   15 ar 
    18   15   16 1  
    19   15   20 ar 
    20   16   17 1  
    21   16   18 1  
    22   16   19 1  
    23   20   21 ar 
    24   21   22 1  
    25   22   23 1  
    26   23   24 1  
    27   24   25 ar 
    28   24   26 ar 
    29   25   29 ar 
    30   26   27 ar 
    31   27   28 ar 
    32   28   29 ar 
    33   29   30 1  
    34   30   31 2  
    35   30   32 2  
    36    1   33 1  
    37    1   34 1  
    38    2   35 1  
    39    2   36 1  
    40    3   37 1  
    41    4   38 1  
    42    4   39 1  
    43    4   40 1  
    44    5   41 1  
    45    5   42 1  
    46    6   43 1  
    47    6   44 1  
    48    9   45 1  
    49   11   46 1  
    50   14   47 1  
    51   20   48 1  
    52   22   49 1  
    53   23   50 1  
    54   23   51 1  
    55   25   52 1  
    56   26   53 1  
    57   27   54 1  
    58   28   55 1  
@<TRIPOS>SUBSTRUCTURE
     1 0J3         1

