### 
### Created by X-TOOL on Mon Sep 10 21:13:11 2018
### 

@<TRIPOS>MOLECULE
4gg7_ligand
   58    62     1     0     0
SMALL
GAST_HUCK


@<TRIPOS>ATOM
      1 C4         -1.1340  -17.5870   14.6260 C.ar      1 0J8         0.1511
      2 C5         -2.1830  -16.6670   14.4580 C.ar      1 0J8         0.0957
      3 C6         -2.1830  -15.4700   15.2310 C.ar      1 0J8         0.1606
      4 N1         -1.1740  -15.2470   16.1050 N.ar      1 0J8        -0.2415
      5 N3         -0.1550  -17.3070   15.5320 N.ar      1 0J8        -0.2307
      6 CAP        -7.6130  -21.1320   10.6350 C.3       1 0J8         0.0207
      7 CAN        -8.3850  -22.3020    9.9930 C.3       1 0J8        -0.0306
      8 NAW        -8.3440  -22.2710    8.5280 N.4       1 0J8         0.2271
      9 CAO        -7.4650  -21.2990    7.8570 C.3       1 0J8        -0.0306
     10 CAQ        -6.1630  -20.9220    8.5480 C.3       1 0J8         0.0207
     11 CBG        -6.2200  -21.0080   10.0590 C.3       1 0J8         0.0944
     12 NBI        -5.5180  -19.8360   10.6480 N.pl3     1 0J8        -0.1934
     13 CAM        -4.5130  -19.9020   11.5430 C.2       1 0J8         0.0743
     14 NAT        -5.8070  -18.5030   10.3730 N.2       1 0J8        -0.2086
     15 CAJ        -4.9580  -17.7270   11.1050 C.2       1 0J8         0.0125
     16 CBA        -4.1340  -18.5970   11.8290 C.2       1 0J8         0.0210
     17 CAZ        -3.0670  -18.2130   12.8070 C.ar      1 0J8         0.0146
     18 CAL        -3.1800  -16.9870   13.5200 C.ar      1 0J8        -0.0103
     19 CAI        -2.0040  -19.0810   13.0340 C.ar      1 0J8         0.0327
     20 NAS        -1.0510  -18.7590   13.9370 N.ar      1 0J8        -0.2581
     21 C2         -0.2070  -16.1660   16.2400 C.ar      1 0J8         0.1687
     22 CBJ         0.9130  -15.8720   17.2330 C.3       1 0J8         0.4038
     23 FAD         1.6070  -16.9680   17.5010 F         1 0J8        -0.2167
     24 FAE         1.6530  -14.9320   16.6790 F         1 0J8        -0.2167
     25 FAC         0.4310  -15.4340   18.3820 F         1 0J8        -0.2167
     26 NAX        -3.2080  -14.4530   15.1020 N.pl3     1 0J8        -0.2788
     27 CAR        -2.9850  -13.1760   15.7540 C.3       1 0J8         0.0678
     28 CAY        -3.6420  -13.3290   17.1130 C.ar      1 0J8        -0.0120
     29 CAK        -2.8400  -13.4220   18.2530 C.ar      1 0J8        -0.0156
     30 CAG        -5.0570  -13.4400   17.2100 C.ar      1 0J8        -0.0530
     31 CAF        -5.6600  -13.6150   18.4650 C.ar      1 0J8        -0.0603
     32 CAH        -4.8650  -13.7030   19.6110 C.ar      1 0J8        -0.0258
     33 CBB        -3.4490  -13.6060   19.5000 C.ar      1 0J8         0.1930
     34 NBH        -2.6680  -13.7020   20.6950 N.2       1 0J8         0.3131
     35 OAB        -3.2250  -14.2780   21.7150 O.2       1 0J8         0.1781
     36 OAA        -1.4380  -13.2260   20.7610 O.2       1 0J8         0.1781
     37 H1         -7.5381  -21.3045   11.7188 H         1 0J8         0.0349
     38 H2         -8.1615  -20.1967   10.4496 H         1 0J8         0.0349
     39 H3         -9.4350  -22.2505   10.3167 H         1 0J8         0.0815
     40 H4         -7.9410  -23.2476   10.3374 H         1 0J8         0.0815
     41 H5         -9.2830  -22.0879    8.2104 H         1 0J8         0.2013
     42 H6         -8.0583  -23.1878    8.2214 H         1 0J8         0.2013
     43 H7         -8.0436  -20.3734    7.7208 H         1 0J8         0.0815
     44 H8         -7.2048  -21.7169    6.8733 H         1 0J8         0.0815
     45 H9         -5.9105  -19.8882    8.2698 H         1 0J8         0.0349
     46 H10        -5.3737  -21.6006    8.1925 H         1 0J8         0.0349
     47 H11        -5.6708  -21.9149   10.3521 H         1 0J8         0.0687
     48 H12        -4.0794  -20.8083   11.9631 H         1 0J8         0.1110
     49 H13        -4.9268  -16.6386   11.1231 H         1 0J8         0.0692
     50 H14        -4.0136  -16.3167   13.3444 H         1 0J8         0.0785
     51 H15        -1.9399  -20.0148   12.4873 H         1 0J8         0.0944
     52 H16        -4.0681  -14.6314   14.5641 H         1 0J8         0.1939
     53 H17        -3.4540  -12.3604   15.1841 H         1 0J8         0.0697
     54 H18        -1.9087  -12.9763   15.8619 H         1 0J8         0.0697
     55 H19        -1.7612  -13.3527   18.1731 H         1 0J8         0.0630
     56 H20        -5.6682  -13.3895   16.3162 H         1 0J8         0.0601
     57 H21        -6.7390  -13.6817   18.5453 H         1 0J8         0.0614
     58 H22        -5.3254  -13.8448   20.5821 H         1 0J8         0.0634
@<TRIPOS>BOND
     1    2    1 ar 
     2    1    5 ar 
     3    1   20 ar 
     4    2    3 ar 
     5   18    2 ar 
     6    3    4 ar 
     7    3   26 1  
     8    4   21 ar 
     9    5   21 ar 
    10    6    7 1  
    11   11    6 1  
    12    7    8 1  
    13    9    8 1  
    14   10    9 1  
    15   11   10 1  
    16   12   11 1  
    17   13   12 1  
    18   14   12 1  
    19   16   13 2  
    20   15   14 2  
    21   16   15 1  
    22   17   16 1  
    23   17   18 ar 
    24   17   19 ar 
    25   19   20 ar 
    26   21   22 1  
    27   22   23 1  
    28   22   24 1  
    29   22   25 1  
    30   26   27 1  
    31   27   28 1  
    32   28   29 ar 
    33   28   30 ar 
    34   29   33 ar 
    35   30   31 ar 
    36   31   32 ar 
    37   32   33 ar 
    38   33   34 1  
    39   34   35 2  
    40   34   36 2  
    41    6   37 1  
    42    6   38 1  
    43    7   39 1  
    44    7   40 1  
    45    8   41 1  
    46    8   42 1  
    47    9   43 1  
    48    9   44 1  
    49   10   45 1  
    50   10   46 1  
    51   11   47 1  
    52   13   48 1  
    53   15   49 1  
    54   18   50 1  
    55   19   51 1  
    56   26   52 1  
    57   27   53 1  
    58   27   54 1  
    59   29   55 1  
    60   30   56 1  
    61   31   57 1  
    62   32   58 1  
@<TRIPOS>SUBSTRUCTURE
     1 0J8         1

