### 
### Created by X-TOOL on Mon Sep 10 21:13:13 2018
### 

@<TRIPOS>MOLECULE
4ggl_ligand
   50    54     1     0     0
SMALL
GAST_HUCK


@<TRIPOS>ATOM
      1 O47        -6.4760   -6.4420  -20.7670 O.2       1 CJC        -0.3785
      2 C28        -7.1400   -7.2710  -20.0970 C.2       1 CJC         0.2543
      3 C27        -6.8410   -8.6400  -20.1820 C.2       1 CJC         0.1045
      4 N29        -8.1340   -6.8180  -19.3050 N.am      1 CJC        -0.2166
      5 C22        -8.8510   -7.6790  -18.5800 C.ar      1 CJC         0.1210
      6 C23        -8.5390   -9.1330  -18.6680 C.ar      1 CJC         0.1380
      7 N26        -7.5310   -9.5510  -19.4770 N.2       1 CJC        -0.2547
      8 N24        -9.2620  -10.0060  -17.9350 N.ar      1 CJC        -0.2946
      9 C25       -10.2590   -9.5750  -17.1410 C.ar      1 CJC         0.0148
     10 C20       -10.5830   -8.2210  -17.0230 C.ar      1 CJC         0.0528
     11 C21        -9.8840   -7.2570  -17.7500 C.ar      1 CJC        -0.0002
     12 S19       -11.8680   -7.7940  -16.0010 S.3       1 CJC        -0.0062
     13 C10       -11.5520   -6.4460  -15.0390 C.ar      1 CJC         0.1393
     14 N9        -10.3200   -5.8840  -15.0190 N.ar      1 CJC        -0.2632
     15 C8        -10.0150   -4.8380  -14.2190 C.ar      1 CJC         0.1116
     16 N13        -8.7250   -4.3010  -14.3340 N.pl3     1 CJC        -0.2851
     17 C14        -7.6800   -4.9830  -15.0920 C.3       1 CJC         0.0377
     18 C15        -6.8830   -3.7900  -15.6200 C.3       1 CJC         0.0129
     19 C16        -7.4970   -2.5080  -15.0650 C.3       1 CJC        -0.0013
     20 N18        -8.2850   -1.8570  -16.0950 N.4       1 CJC         0.2223
     21 C17        -8.4080   -2.9430  -13.9200 C.3       1 CJC         0.0750
     22 C3        -11.1300   -4.2890  -13.3760 C.ar      1 CJC         0.0411
     23 C2        -12.4560   -4.9540  -13.4550 C.ar      1 CJC         0.1239
     24 N11       -12.5810   -5.9940  -14.2990 N.ar      1 CJC        -0.2711
     25 N1        -13.3590   -4.3640  -12.6350 N.pl3     1 CJC        -0.2614
     26 C5        -12.8420   -3.3380  -11.9280 C.2       1 CJC         0.0567
     27 C4        -11.4350   -3.2530  -12.3710 C.2       1 CJC         0.0376
     28 CL1       -10.2490   -2.0400  -11.6710 Cl        1 CJC        -0.1174
     29 C6        -13.5570   -2.4570  -10.9220 C.3       1 CJC         0.0025
     30 C7        -14.5800   -3.2440  -10.1170 C.3       1 CJC        -0.0522
     31 H1         -6.0328   -8.9699  -20.8331 H         1 CJC         0.1132
     32 H2         -8.3331   -5.8390  -19.2613 H         1 CJC         0.2388
     33 H3        -10.8295  -10.3020  -16.5743 H         1 CJC         0.0689
     34 H4        -10.1394   -6.2066  -17.6700 H         1 CJC         0.0584
     35 H5         -8.1011   -5.5832  -15.9120 H         1 CJC         0.0529
     36 H6         -7.0651   -5.6261  -14.4452 H         1 CJC         0.0529
     37 H7         -6.9241   -3.7745  -16.7191 H         1 CJC         0.0341
     38 H8         -5.8357   -3.8705  -15.2933 H         1 CJC         0.0341
     39 H9         -6.7139   -1.8257  -14.7027 H         1 CJC         0.0871
     40 H10        -8.6888   -1.0109  -15.7247 H         1 CJC         0.1997
     41 H11        -9.0208   -2.4763  -16.3969 H         1 CJC         0.1997
     42 H12        -7.6928   -1.6315  -16.8789 H         1 CJC         0.1997
     43 H13        -7.8824   -2.9253  -12.9539 H         1 CJC         0.0583
     44 H14        -9.3099   -2.3163  -13.8583 H         1 CJC         0.0583
     45 H15       -14.3402   -4.6679  -12.5592 H         1 CJC         0.2308
     46 H16       -14.0720   -1.6469  -11.4591 H         1 CJC         0.0465
     47 H17       -12.8151   -2.0267  -10.2332 H         1 CJC         0.0465
     48 H18       -15.0767   -2.5737   -9.4001 H         1 CJC         0.0255
     49 H19       -14.0731   -4.0536   -9.5714 H         1 CJC         0.0255
     50 H20       -15.3300   -3.6738  -10.7973 H         1 CJC         0.0255
@<TRIPOS>BOND
     1    1    2 2  
     2    2    3 1  
     3    2    4 am 
     4    3    7 2  
     5    4    5 1  
     6    5    6 ar 
     7    5   11 ar 
     8    6    7 1  
     9    6    8 ar 
    10    8    9 ar 
    11    9   10 ar 
    12   10   11 ar 
    13   10   12 1  
    14   12   13 1  
    15   13   14 ar 
    16   13   24 ar 
    17   14   15 ar 
    18   15   16 1  
    19   15   22 ar 
    20   16   17 1  
    21   16   21 1  
    22   17   18 1  
    23   18   19 1  
    24   19   20 1  
    25   19   21 1  
    26   22   23 ar 
    27   22   27 1  
    28   23   24 ar 
    29   23   25 1  
    30   25   26 1  
    31   26   27 2  
    32   26   29 1  
    33   27   28 1  
    34   29   30 1  
    35    3   31 1  
    36    4   32 1  
    37    9   33 1  
    38   11   34 1  
    39   17   35 1  
    40   17   36 1  
    41   18   37 1  
    42   18   38 1  
    43   19   39 1  
    44   20   40 1  
    45   20   41 1  
    46   20   42 1  
    47   21   43 1  
    48   21   44 1  
    49   25   45 1  
    50   29   46 1  
    51   29   47 1  
    52   30   48 1  
    53   30   49 1  
    54   30   50 1  
@<TRIPOS>SUBSTRUCTURE
     1 CJC         1

