### 
### Created by X-TOOL on Mon Sep 10 21:13:14 2018
### 

@<TRIPOS>MOLECULE
4ggz_ligand
   31    32     1     0     0
SMALL
GAST_HUCK


@<TRIPOS>ATOM
      1 C11        38.0110  -12.6940    1.2720 C.2       1 BTN         0.0348
      2 O11        38.3050  -12.7470    0.0300 O.co2     1 BTN        -0.5690
      3 O12        38.2550  -13.6920    2.0090 O.co2     1 BTN        -0.5690
      4 C10        37.3540  -11.4810    1.8970 C.3       1 BTN         0.0002
      5 C9         37.7330  -10.1500    1.2310 C.3       1 BTN        -0.0414
      6 C8         39.2310   -9.8740    1.4140 C.3       1 BTN        -0.0505
      7 C7         39.6440   -8.5380    0.7550 C.3       1 BTN        -0.0389
      8 C2         41.1490   -8.2780    0.9500 C.3       1 BTN         0.0302
      9 S1         41.5140   -7.4820    2.3980 S.3       1 BTN        -0.1527
     10 C6         43.1970   -7.1960    1.7800 C.3       1 BTN         0.0190
     11 C5         43.0390   -6.8020    0.3110 C.3       1 BTN         0.0750
     12 N1         42.8080   -5.3790    0.1740 N.am      1 BTN        -0.2671
     13 C3         41.5810   -5.1530   -0.3000 C.2       1 BTN         0.2580
     14 O3         41.1190   -3.8930   -0.5430 O.2       1 BTN        -0.4008
     15 N2         40.8930   -6.2540   -0.4970 N.am      1 BTN        -0.2668
     16 C4         41.7390   -7.4010   -0.1590 C.3       1 BTN         0.0775
     17 H1         37.6503  -11.4344    2.9553 H         1 BTN         0.0430
     18 H2         36.2632  -11.6042    1.8267 H         1 BTN         0.0430
     19 H3         37.1546   -9.3355    1.6915 H         1 BTN         0.0283
     20 H4         37.5017  -10.2023    0.1569 H         1 BTN         0.0283
     21 H5         39.8043  -10.6921    0.9537 H         1 BTN         0.0267
     22 H6         39.4574   -9.8274    2.4894 H         1 BTN         0.0267
     23 H7         39.0733   -7.7172    1.2139 H         1 BTN         0.0277
     24 H8         39.4216   -8.5822   -0.3214 H         1 BTN         0.0277
     25 H9         41.6564   -9.2540    0.9439 H         1 BTN         0.0435
     26 H10        43.7986   -8.1127    1.8683 H         1 BTN         0.0399
     27 H11        43.6798   -6.3847    2.3445 H         1 BTN         0.0399
     28 H12        43.9019   -7.1359   -0.2839 H         1 BTN         0.0584
     29 H13        43.4727   -4.6675    0.4019 H         1 BTN         0.1849
     30 H14        39.9489   -6.3015   -0.8234 H         1 BTN         0.1849
     31 H15        41.9012   -8.0198   -1.0538 H         1 BTN         0.0587
@<TRIPOS>BOND
     1    1    2 ar 
     2    1    3 ar 
     3    1    4 1  
     4    4    5 1  
     5    5    6 1  
     6    6    7 1  
     7    7    8 1  
     8    8    9 1  
     9    8   16 1  
    10    9   10 1  
    11   10   11 1  
    12   11   12 1  
    13   11   16 1  
    14   12   13 am 
    15   13   14 2  
    16   13   15 am 
    17   15   16 1  
    18    4   17 1  
    19    4   18 1  
    20    5   19 1  
    21    5   20 1  
    22    6   21 1  
    23    6   22 1  
    24    7   23 1  
    25    7   24 1  
    26    8   25 1  
    27   10   26 1  
    28   10   27 1  
    29   11   28 1  
    30   12   29 1  
    31   15   30 1  
    32   16   31 1  
@<TRIPOS>SUBSTRUCTURE
     1 BTN         1

