### 
### Created by X-TOOL on Mon Sep 10 21:13:11 2018
### 

@<TRIPOS>MOLECULE
4gh6_ligand
   53    56     1     0     0
SMALL
GAST_HUCK


@<TRIPOS>ATOM
      1 CL1        77.9710   49.7160   40.1730 C.3       1 LUO        -0.0309
      2 C2         79.2390   50.2060   39.8880 C.ar      1 LUO        -0.0103
      3 C3         79.7970   49.9920   38.6330 C.ar      1 LUO        -0.0649
      4 C4         81.0660   50.4800   38.3440 C.ar      1 LUO        -0.0761
      5 C5         81.7760   51.1790   39.3140 C.ar      1 LUO        -0.0735
      6 C6         81.2150   51.4020   40.5660 C.ar      1 LUO        -0.0332
      7 C7         79.9450   50.9160   40.8530 C.ar      1 LUO         0.1105
      8 N8         79.3990   51.1290   42.0480 N.pl3     1 LUO        -0.1594
      9 C11        78.3220   51.8900   42.2190 C.2       1 LUO         0.1382
     10 N13        77.5460   52.5640   41.3610 N.2       1 LUO        -0.2663
     11 N9         79.7680   50.7290   43.0450 N.2       1 LUO        -0.2182
     12 C10        79.0110   51.1510   44.0580 C.2       1 LUO         0.0013
     13 C12        78.0600   51.9070   43.5190 C.2       1 LUO         0.0704
     14 C16        77.0140   52.5920   43.9720 C.2       1 LUO         0.2104
     15 O17        76.8270   52.6130   45.3190 O.2       1 LUO        -0.4063
     16 N15        76.2240   53.2700   43.1270 N.am      1 LUO        -0.1816
     17 C14        76.5000   53.2690   41.8140 C.2       1 LUO         0.2434
     18 N18        75.8390   54.1010   40.9640 N.pl3     1 LUO        -0.2432
     19 C19        74.8140   53.4200   40.2150 C.3       1 LUO         0.1387
     20 C20        73.9860   54.4640   39.4640 C.3       1 LUO        -0.0229
     21 C21        75.4150   52.4340   39.2100 C.2       1 LUO         0.2272
     22 O22        76.4770   52.6740   38.6380 O.2       1 LUO        -0.3837
     23 N23        74.6270   51.2570   39.0140 N.am      1 LUO        -0.2382
     24 C24        75.0320   50.4630   37.9830 C.ar      1 LUO         0.0557
     25 C29        74.3680   49.2550   37.7980 C.ar      1 LUO        -0.0490
     26 C28        74.7260   48.3940   36.7670 C.ar      1 LUO        -0.0458
     27 C27        75.7600   48.7430   35.9060 C.ar      1 LUO         0.0755
     28 O30        76.1150   47.8830   34.9130 O.3       1 LUO        -0.3309
     29 C31        75.7320   48.3990   33.6350 C.3       1 LUO         0.0561
     30 C26        76.4280   49.9500   36.0850 C.ar      1 LUO        -0.0458
     31 C25        76.0660   50.8090   37.1190 C.ar      1 LUO        -0.0490
     32 H          77.2499   50.1545   39.4832 H         1 LUO         0.0377
     33 H          77.9686   48.6316   40.0624 H         1 LUO         0.0377
     34 H          77.7029   49.9787   41.1963 H         1 LUO         0.0377
     35 H          79.2393   49.4414   37.8754 H         1 LUO         0.0536
     36 H          81.5035   50.3152   37.3594 H         1 LUO         0.0535
     37 H          82.7754   51.5531   39.0919 H         1 LUO         0.0541
     38 H          81.7704   51.9573   41.3218 H         1 LUO         0.0559
     39 H          79.1450   50.9221   45.1152 H         1 LUO         0.0663
     40 H          75.4329   53.7740   43.4737 H         1 LUO         0.2524
     41 H          76.0460   55.0951   40.8680 H         1 LUO         0.1977
     42 H          74.1918   52.8548   40.9089 H         1 LUO         0.0814
     43 H          73.5313   55.1488   40.1799 H         1 LUO         0.0278
     44 H          74.6337   55.0213   38.7872 H         1 LUO         0.0278
     45 H          73.2050   53.9634   38.8917 H         1 LUO         0.0278
     46 H          73.8240   51.0293   39.6004 H         1 LUO         0.2221
     47 H          73.5557   48.9796   38.4707 H         1 LUO         0.0478
     48 H          74.1983   47.4495   36.6343 H         1 LUO         0.0507
     49 H          74.6513   48.5393   33.6103 H         1 LUO         0.0572
     50 H          76.2277   49.3551   33.4672 H         1 LUO         0.0572
     51 H          76.0261   47.6944   32.8571 H         1 LUO         0.0572
     52 H          77.2398   50.2249   35.4116 H         1 LUO         0.0507
     53 H          76.5933   51.7537   37.2518 H         1 LUO         0.0478
@<TRIPOS>BOND
     1    1    2 1  
     2    2    3 ar 
     3    2    7 ar 
     4    3    4 ar 
     5    4    5 ar 
     6    5    6 ar 
     7    6    7 ar 
     8    7    8 1  
     9    8    9 1  
    10    8   11 1  
    11    9   10 1  
    12    9   13 2  
    13   10   17 2  
    14   11   12 2  
    15   12   13 1  
    16   13   14 1  
    17   14   15 2  
    18   14   16 am 
    19   16   17 am 
    20   17   18 1  
    21   18   19 1  
    22   19   20 1  
    23   19   21 1  
    24   21   22 2  
    25   21   23 am 
    26   23   24 1  
    27   24   25 ar 
    28   24   31 ar 
    29   25   26 ar 
    30   26   27 ar 
    31   27   28 1  
    32   27   30 ar 
    33   28   29 1  
    34   30   31 ar 
    35    1   32 1  
    36    1   33 1  
    37    1   34 1  
    38    3   35 1  
    39    4   36 1  
    40    5   37 1  
    41    6   38 1  
    42   12   39 1  
    43   16   40 1  
    44   18   41 1  
    45   19   42 1  
    46   20   43 1  
    47   20   44 1  
    48   20   45 1  
    49   23   46 1  
    50   25   47 1  
    51   26   48 1  
    52   29   49 1  
    53   29   50 1  
    54   29   51 1  
    55   30   52 1  
    56   31   53 1  
@<TRIPOS>SUBSTRUCTURE
     1 LUO         1

