### 
### Created by X-TOOL on Mon Sep 10 21:13:13 2018
### 

@<TRIPOS>MOLECULE
4ghi_ligand
   27    29     1     0     0
SMALL
GAST_HUCK


@<TRIPOS>ATOM
      1 CL1        17.4040  -39.8240    9.7410 Cl        1 0X3        -0.0472
      2 CAH        16.5340  -41.2350   10.2830 C.ar      1 0X3         0.1160
      3 CAG        15.2040  -41.1240   10.5300 C.ar      1 0X3         0.0798
      4 CAI        17.2640  -42.3700   10.5060 C.ar      1 0X3         0.0574
      5 CAQ        16.5440  -43.4480   10.9870 C.ar      1 0X3         0.2067
      6 FAR        17.1930  -44.5980   11.2210 F         1 0X3        -0.1591
      7 CAP        15.1760  -43.3980   11.2070 C.ar      1 0X3         0.0989
      8 CAO        14.5010  -42.2300   10.9730 C.ar      1 0X3         0.2288
      9 NAN        13.0980  -42.1440   11.2400 N.pl3     1 0X3        -0.1421
     10 CAM        12.1490  -41.7410   10.3470 C.ar      1 0X3         0.2605
     11 CAL        10.8520  -41.4450   10.6590 C.ar      1 0X3         0.2274
     12 NAT        10.3680  -41.5170   11.9910 N.2       1 0X3        -0.1749
     13 OAS        11.1770  -41.7980   12.8750 O.2       1 0X3        -0.4742
     14 OAU         9.2050  -41.3160   12.2390 O.2       1 0X3        -0.4742
     15 CAF        12.5530  -41.6560    8.9520 C.ar      1 0X3         0.0716
     16 CAE        11.7220  -41.2830    7.9550 C.ar      1 0X3         0.0312
     17 CAD        10.3640  -40.9870    8.2580 C.ar      1 0X3         0.1537
     18 CAK         9.9310  -41.0650    9.6400 C.ar      1 0X3         0.1838
     19 NAC         9.3120  -40.6010    7.5230 N.2       1 0X3        -0.0448
     20 OAB         8.3070  -40.4510    8.3820 O.3       1 0X3        -0.0220
     21 NAJ         8.6260  -40.7070    9.6460 N.2       1 0X3        -0.0609
     22 H1         14.6973  -40.1773   10.3815 H         1 0X3         0.1087
     23 H2         18.3306  -42.4207   10.3190 H         1 0X3         0.1234
     24 H3         14.6461  -44.2750   11.5608 H         1 0X3         0.1026
     25 H4         12.7787  -42.4078   12.1831 H         1 0X3         0.3535
     26 H5         13.5771  -41.9057    8.6990 H         1 0X3         0.1081
     27 H6         12.0853  -41.2100    6.9363 H         1 0X3         0.0872
@<TRIPOS>BOND
     1    1    2 1  
     2    2    3 ar 
     3    2    4 ar 
     4    3    8 ar 
     5    4    5 ar 
     6    5    6 1  
     7    5    7 ar 
     8    7    8 ar 
     9    8    9 1  
    10    9   10 1  
    11   10   11 ar 
    12   10   15 ar 
    13   11   12 1  
    14   11   18 ar 
    15   12   13 2  
    16   12   14 2  
    17   15   16 ar 
    18   16   17 ar 
    19   17   18 ar 
    20   17   19 2  
    21   18   21 2  
    22   19   20 1  
    23   20   21 1  
    24    3   22 1  
    25    4   23 1  
    26    7   24 1  
    27    9   25 1  
    28   15   26 1  
    29   16   27 1  
@<TRIPOS>SUBSTRUCTURE
     1 0X3         1

