### 
### Created by X-TOOL on Mon Sep 10 21:13:15 2018
### 

@<TRIPOS>MOLECULE
4ght_ligand
   84    86     1     0     0
SMALL
GAST_HUCK


@<TRIPOS>ATOM
      1 C01        10.6610   -7.3660   -0.0600 C.2       1 AG7         0.1331
      2 C02         9.3640   -6.6440   -0.3770 C.3       1 AG7         0.0448
      3 O03        11.0820   -8.2520   -0.7970 O.2       1 AG7        -0.3890
      4 C04         8.7620   -7.0080   -1.7410 C.3       1 AG7         0.0733
      5 C05         7.6540   -6.0240   -2.0550 C.3       1 AG7         0.0009
      6 C06         6.5050   -6.0550   -1.0350 C.ar      1 AG7        -0.0442
      7 C07         5.7350   -7.1750   -0.7880 C.ar      1 AG7        -0.0618
      8 C08         4.6640   -7.1640    0.1550 C.ar      1 AG7        -0.0349
      9 C09         4.3690   -5.9860    0.8550 C.ar      1 AG7         0.1248
     10 C10         5.1330   -4.8560    0.5940 C.ar      1 AG7        -0.0349
     11 C11         6.1900   -4.8960   -0.3240 C.ar      1 AG7        -0.0618
     12 N12         9.7740   -7.9030   -3.7120 N.am      1 AG7        -0.2831
     13 C13        10.6070   -7.9090   -4.9220 C.3       1 AG7         0.0465
     14 C14        11.6590   -9.0330   -4.8980 C.3       1 AG7        -0.0099
     15 C15        12.6860   -8.7800   -3.8100 C.3       1 AG7         0.0525
     16 C16        13.8920   -9.7150   -3.8720 C.2       1 AG7         0.1792
     17 N17        14.8760   -9.1350   -3.3660 N.am      1 AG7        -0.2866
     18 O18        13.8910  -10.8320   -4.3590 O.2       1 AG7        -0.3968
     19 C19         9.6410   -8.0320   -6.1170 C.3       1 AG7        -0.0115
     20 C20         8.7660   -6.7830   -6.2190 C.3       1 AG7         0.0508
     21 C21         9.5900   -5.5740   -6.6540 C.2       1 AG7         0.2338
     22 O22         9.3050   -4.3110   -6.0810 O.3       1 AG7        -0.2771
     23 O23        10.4900   -5.6700   -7.4650 O.2       1 AG7        -0.3704
     24 C47         9.7250   -6.9090   -2.8990 C.2       1 AG7         0.1835
     25 O48        10.3650   -5.8730   -3.0020 O.2       1 AG7        -0.3964
     26 C50        10.1700   -3.1860   -6.2350 C.3       1 AG7         0.0740
     27 C53        10.9110   -2.9540   -4.9330 C.3       1 AG7        -0.0371
     28 C57        11.3980   -6.9180    1.2100 C.3       1 AG7         0.1169
     29 N58        11.9510   -8.0800    1.8990 N.am      1 AG7        -0.2658
     30 C59        11.5110   -8.4350    3.0970 C.2       1 AG7         0.2113
     31 O60        10.6730   -7.7950    3.7410 O.2       1 AG7        -0.3853
     32 C78        12.5900   -5.9510    1.0540 C.3       1 AG7        -0.0074
     33 C81        12.3960   -4.8870   -0.0090 C.3       1 AG7        -0.0584
     34 F1          3.3340   -5.8910    1.7470 F         1 AG7        -0.1893
     35 C82        12.9200   -5.2880    2.4000 C.3       1 AG7        -0.0584
     36 C83        14.7430   -7.6810   -3.2210 C.3       1 AG7         0.0332
     37 C84        13.3330   -7.3930   -3.7750 C.3       1 AG7        -0.0129
     38 C1         12.2030   -9.6230    3.6520 C.2       1 AG7         0.1131
     39 C2         11.9600  -10.2490    4.8780 C.2       1 AG7        -0.0165
     40 C3         12.9060  -11.2470    4.9170 C.2       1 AG7         0.1392
     41 O4         13.6630  -11.2440    3.7980 O.3       1 AG7        -0.1606
     42 N5         13.2490  -10.2350    3.0010 N.2       1 AG7        -0.1328
     43 C4         13.0850  -12.2390    6.0350 C.3       1 AG7         0.0097
     44 H1          9.5588   -5.5615   -0.3631 H         1 AG7         0.0524
     45 H2          8.6296   -6.8945    0.4027 H         1 AG7         0.0524
     46 H3          8.3638   -8.0320   -1.6875 H         1 AG7         0.0585
     47 H4          7.2456   -6.2635   -3.0479 H         1 AG7         0.0447
     48 H5          8.0810   -5.0104   -2.0688 H         1 AG7         0.0447
     49 H6          5.9510   -8.0903   -1.3271 H         1 AG7         0.0547
     50 H7          4.0818   -8.0617    0.3290 H         1 AG7         0.0587
     51 H8          4.9078   -3.9289    1.1086 H         1 AG7         0.0587
     52 H9          6.7802   -4.0015   -0.4869 H         1 AG7         0.0547
     53 H10         9.2190   -8.7103   -3.5116 H         1 AG7         0.1854
     54 H11        11.1413   -6.9501   -4.9929 H         1 AG7         0.0559
     55 H12        12.1674   -9.0733   -5.8726 H         1 AG7         0.0315
     56 H13        11.1579   -9.9932   -4.7058 H         1 AG7         0.0315
     57 H14        12.1632   -8.9382   -2.8552 H         1 AG7         0.0539
     58 H15        15.6977   -9.6277   -3.0795 H         1 AG7         0.1851
     59 H16         8.9996   -8.9145   -5.9764 H         1 AG7         0.0313
     60 H17        10.2223   -8.1451   -7.0440 H         1 AG7         0.0313
     61 H18         8.3161   -6.5774   -5.2365 H         1 AG7         0.0519
     62 H19         7.9699   -6.9604   -6.9570 H         1 AG7         0.0519
     63 H20         9.5757   -2.2949   -6.4853 H         1 AG7         0.0610
     64 H21        10.8924   -3.3833   -7.0408 H         1 AG7         0.0610
     65 H22        11.5808   -2.0883   -5.0416 H         1 AG7         0.0255
     66 H23        11.5033   -3.8469   -4.6840 H         1 AG7         0.0255
     67 H24        10.1866   -2.7585   -4.1286 H         1 AG7         0.0255
     68 H25        10.6523   -6.4302    1.8550 H         1 AG7         0.0794
     69 H26        12.6724   -8.6158    1.4603 H         1 AG7         0.1878
     70 H27        13.4581   -6.5557    0.7527 H         1 AG7         0.0343
     71 H28        13.2883   -4.2453   -0.0526 H         1 AG7         0.0235
     72 H29        11.5164   -4.2754    0.2406 H         1 AG7         0.0235
     73 H30        12.2426   -5.3685   -0.9861 H         1 AG7         0.0235
     74 H31        13.0595   -6.0644    3.1667 H         1 AG7         0.0235
     75 H32        12.0928   -4.6258    2.6952 H         1 AG7         0.0235
     76 H33        13.8440   -4.6992    2.3020 H         1 AG7         0.0235
     77 H34        15.5110   -7.1552   -3.8073 H         1 AG7         0.0521
     78 H35        14.8194   -7.3823   -2.1651 H         1 AG7         0.0521
     79 H36        12.7781   -6.7147   -3.1102 H         1 AG7         0.0312
     80 H37        13.3861   -6.9561   -4.7831 H         1 AG7         0.0312
     81 H38        11.2039  -10.0053    5.6229 H         1 AG7         0.0312
     82 H39        13.9168  -12.9172    5.7937 H         1 AG7         0.0449
     83 H40        12.1607  -12.8222    6.1593 H         1 AG7         0.0449
     84 H41        13.3085  -11.7026    6.9689 H         1 AG7         0.0449
@<TRIPOS>BOND
     1    2    1 1  
     2    1    3 2  
     3    1   28 1  
     4    4    2 1  
     5    4    5 1  
     6   24    4 1  
     7    5    6 1  
     8    6    7 ar 
     9    6   11 ar 
    10    7    8 ar 
    11    8    9 ar 
    12   10    9 ar 
    13    9   34 1  
    14   11   10 ar 
    15   12   13 1  
    16   12   24 am 
    17   13   14 1  
    18   13   19 1  
    19   14   15 1  
    20   15   16 1  
    21   15   37 1  
    22   16   17 am 
    23   16   18 2  
    24   17   36 1  
    25   19   20 1  
    26   20   21 1  
    27   21   22 1  
    28   21   23 2  
    29   22   26 1  
    30   24   25 2  
    31   26   27 1  
    32   28   29 1  
    33   28   32 1  
    34   29   30 am 
    35   30   31 2  
    36   30   38 1  
    37   32   33 1  
    38   32   35 1  
    39   36   37 1  
    40   38   39 1  
    41   38   42 2  
    42   39   40 2  
    43   40   41 1  
    44   40   43 1  
    45   41   42 1  
    46    2   44 1  
    47    2   45 1  
    48    4   46 1  
    49    5   47 1  
    50    5   48 1  
    51    7   49 1  
    52    8   50 1  
    53   10   51 1  
    54   11   52 1  
    55   12   53 1  
    56   13   54 1  
    57   14   55 1  
    58   14   56 1  
    59   15   57 1  
    60   17   58 1  
    61   19   59 1  
    62   19   60 1  
    63   20   61 1  
    64   20   62 1  
    65   26   63 1  
    66   26   64 1  
    67   27   65 1  
    68   27   66 1  
    69   27   67 1  
    70   28   68 1  
    71   29   69 1  
    72   32   70 1  
    73   33   71 1  
    74   33   72 1  
    75   33   73 1  
    76   35   74 1  
    77   35   75 1  
    78   35   76 1  
    79   36   77 1  
    80   36   78 1  
    81   37   79 1  
    82   37   80 1  
    83   39   81 1  
    84   43   82 1  
    85   43   83 1  
    86   43   84 1  
@<TRIPOS>SUBSTRUCTURE
     1 AG7         1

