### 
### Created by X-TOOL on Mon Sep 10 21:13:11 2018
### 

@<TRIPOS>MOLECULE
4gid_ligand
   95    97     1     0     0
SMALL
GAST_HUCK


@<TRIPOS>ATOM
      1 CBK        49.5370   -2.5550    8.2710 C.3       1 0GH        -0.0608
      2 CBL        48.9440   -3.5780    9.2390 C.3       1 0GH        -0.0265
      3 CBM        50.0680   -4.4590    9.7920 C.3       1 0GH        -0.0608
      4 CBN        48.1820   -2.8490   10.3470 C.3       1 0GH         0.0334
      5 NBO        47.1100   -2.0110    9.7820 N.am      1 0GH        -0.2820
      6 CBP        45.8260   -2.3550   10.4130 C.2       1 0GH         0.2271
      7 OBV        45.8020   -2.8950   11.5220 O.2       1 0GH        -0.3908
      8 CBG        44.6790   -1.4430    9.9430 C.3       1 0GH         0.0928
      9 CBH        44.7780   -0.0930   10.6690 C.3       1 0GH         0.1121
     10 CBJ        44.1370   -0.1340   12.0570 C.3       1 0GH        -0.0314
     11 OBI        46.1190    0.4110   10.6990 O.3       1 0GH        -0.3840
     12 NBF        43.3350   -2.0220   10.0970 N.4       1 0GH         0.2497
     13 CAX        43.1900   -3.2130    9.2450 C.3       1 0GH        -0.0062
     14 CAW        42.5960   -4.4150    9.9860 C.3       1 0GH         0.0906
     15 CAY        42.4160   -5.5960    9.0260 C.3       1 0GH         0.0089
     16 CAZ        41.7140   -6.6480    9.6120 C.ar      1 0GH        -0.0406
     17 CBA        40.7020   -7.2960    8.9110 C.ar      1 0GH        -0.0603
     18 CBB        39.9550   -8.3050    9.5120 C.ar      1 0GH        -0.0686
     19 CBC        40.2100   -8.6710   10.8290 C.ar      1 0GH        -0.0687
     20 CBD        41.2180   -8.0210   11.5330 C.ar      1 0GH        -0.0686
     21 CBE        41.9720   -7.0220   10.9270 C.ar      1 0GH        -0.0603
     22 NAV        41.3080   -4.1170   10.6290 N.am      1 0GH        -0.2761
     23 CAT        41.2570   -3.7410   11.9150 C.2       1 0GH         0.2026
     24 OAU        42.2680   -3.5630   12.5920 O.2       1 0GH        -0.3847
     25 CAP        39.9770   -3.5540   12.4310 C.ar      1 0GH         0.0397
     26 CAQ        38.9820   -4.4400   12.0330 C.ar      1 0GH        -0.0393
     27 CAO        39.7370   -2.7010   13.5060 C.ar      1 0GH        -0.0214
     28 CAN        38.5080   -2.6970   14.1650 C.ar      1 0GH         0.0754
     29 NAE        38.3320   -2.0310   15.3090 N.am      1 0GH        -0.1796
     30 CBT        39.4840   -1.1980   15.6850 C.3       1 0GH         0.0445
     31 SAB        36.9310   -1.1840   15.4610 S.o2      1 0GH         0.0593
     32 OAC        37.2200    0.2310   15.9630 O.2       1 0GH        -0.1500
     33 OAD        36.1900   -1.1020   14.1240 O.2       1 0GH        -0.1500
     34 CAA        35.8860   -2.0180   16.6380 C.3       1 0GH         0.0790
     35 CAS        37.5450   -3.6220   13.7750 C.ar      1 0GH        -0.0214
     36 CAR        37.7670   -4.4860   12.7070 C.ar      1 0GH         0.0398
     37 CAL        36.7290   -5.2760   12.2270 C.2       1 0GH         0.2041
     38 OAM        35.9770   -5.8600   13.0060 O.2       1 0GH        -0.3845
     39 NBQ        36.7090   -5.4920   10.9040 N.am      1 0GH        -0.2723
     40 CBR        35.6560   -6.3180   10.2940 C.3       1 0GH         0.0723
     41 CBS        36.2840   -7.4870    9.5320 C.3       1 0GH        -0.0320
     42 CAI        34.8310   -5.5730    9.4540 C.ar      1 0GH        -0.0183
     43 CAH        33.4700   -5.4970    9.7240 C.ar      1 0GH        -0.0582
     44 CAG        32.6490   -4.6400    8.9940 C.ar      1 0GH        -0.0685
     45 CAF        33.1900   -3.8500    7.9860 C.ar      1 0GH        -0.0687
     46 CAK        34.5520   -3.9280    7.7070 C.ar      1 0GH        -0.0685
     47 CAJ        35.3660   -4.7930    8.4320 C.ar      1 0GH        -0.0582
     48 H1         50.0850   -3.0791    7.4741 H         1 0GH         0.0233
     49 H2         50.2259   -1.8920    8.8148 H         1 0GH         0.0233
     50 H3         48.7270   -1.9576    7.8272 H         1 0GH         0.0233
     51 H4         48.2354   -4.2187    8.6937 H         1 0GH         0.0315
     52 H5         49.6457   -5.1972   10.4896 H         1 0GH         0.0233
     53 H6         50.7995   -3.8308   10.3215 H         1 0GH         0.0233
     54 H7         50.5661   -4.9818    8.9622 H         1 0GH         0.0233
     55 H8         48.8819   -2.2104   10.9059 H         1 0GH         0.0522
     56 H9         47.7387   -3.5907   11.0278 H         1 0GH         0.0522
     57 H10        47.2360   -1.3138    9.0763 H         1 0GH         0.1853
     58 H11        44.8273   -1.2616    8.8683 H         1 0GH         0.1125
     59 H12        44.1902    0.6234   10.0763 H         1 0GH         0.0674
     60 H13        44.2332    0.8522   12.5346 H         1 0GH         0.0258
     61 H14        44.6446   -0.8908   12.6731 H         1 0GH         0.0258
     62 H15        43.0722   -0.3928   11.9617 H         1 0GH         0.0258
     63 H16        46.4735    0.4175    9.8176 H         1 0GH         0.2102
     64 H17        42.6454   -1.3368    9.8304 H         1 0GH         0.2037
     65 H18        43.1941   -2.2834   11.0603 H         1 0GH         0.2037
     66 H19        44.1829   -3.4932    8.8634 H         1 0GH         0.0839
     67 H20        42.5305   -2.9614    8.4013 H         1 0GH         0.0839
     68 H21        43.3074   -4.7089   10.7718 H         1 0GH         0.0632
     69 H22        43.4085   -5.9589    8.7207 H         1 0GH         0.0450
     70 H23        41.8630   -5.2512    8.1398 H         1 0GH         0.0450
     71 H24        40.4930   -7.0121    7.8859 H         1 0GH         0.0557
     72 H25        39.1734   -8.8062    8.9526 H         1 0GH         0.0599
     73 H26        39.6293   -9.4547   11.3020 H         1 0GH         0.0559
     74 H27        41.4175   -8.2954   12.5626 H         1 0GH         0.0599
     75 H28        42.7643   -6.5325   11.4817 H         1 0GH         0.0557
     76 H29        40.4617   -4.1955   10.1021 H         1 0GH         0.1852
     77 H30        39.1550   -5.1000   11.1906 H         1 0GH         0.0576
     78 H31        40.5200   -2.0280   13.8363 H         1 0GH         0.0566
     79 H32        40.4098   -1.7821   15.5766 H         1 0GH         0.0517
     80 H33        39.3759   -0.8730   16.7303 H         1 0GH         0.0517
     81 H34        39.5282   -0.3158   15.0294 H         1 0GH         0.0517
     82 H35        34.9436   -1.4619   16.7502 H         1 0GH         0.0487
     83 H36        36.3982   -2.0712   17.6100 H         1 0GH         0.0487
     84 H37        35.6708   -3.0358   16.2807 H         1 0GH         0.0487
     85 H38        36.6050   -3.6706   14.3126 H         1 0GH         0.0566
     86 H39        37.4175   -5.0873   10.3259 H         1 0GH         0.1875
     87 H40        35.0334   -6.7277   11.1030 H         1 0GH         0.0716
     88 H41        35.4896   -8.0987    9.0795 H         1 0GH         0.0274
     89 H42        36.8713   -8.1047   10.2273 H         1 0GH         0.0274
     90 H43        36.9424   -7.0979    8.7414 H         1 0GH         0.0274
     91 H44        33.0432   -6.1100   10.5096 H         1 0GH         0.0557
     92 H45        31.5884   -4.5892    9.2120 H         1 0GH         0.0599
     93 H46        32.5553   -3.1773    7.4206 H         1 0GH         0.0559
     94 H47        34.9793   -3.3133    6.9230 H         1 0GH         0.0599
     95 H48        36.4227   -4.8600    8.1998 H         1 0GH         0.0557
@<TRIPOS>BOND
     1    1    2 1  
     2    2    3 1  
     3    2    4 1  
     4    4    5 1  
     5    5    6 am 
     6    6    7 2  
     7    6    8 1  
     8    8    9 1  
     9    8   12 1  
    10    9   10 1  
    11    9   11 1  
    12   12   13 1  
    13   13   14 1  
    14   14   15 1  
    15   14   22 1  
    16   15   16 1  
    17   16   17 ar 
    18   16   21 ar 
    19   17   18 ar 
    20   18   19 ar 
    21   19   20 ar 
    22   20   21 ar 
    23   22   23 am 
    24   23   24 2  
    25   23   25 1  
    26   25   26 ar 
    27   25   27 ar 
    28   26   36 ar 
    29   27   28 ar 
    30   28   29 1  
    31   28   35 ar 
    32   29   30 1  
    33   29   31 am 
    34   31   32 2  
    35   31   33 2  
    36   31   34 1  
    37   35   36 ar 
    38   36   37 1  
    39   37   38 2  
    40   37   39 am 
    41   39   40 1  
    42   40   41 1  
    43   40   42 1  
    44   42   43 ar 
    45   42   47 ar 
    46   43   44 ar 
    47   44   45 ar 
    48   45   46 ar 
    49   46   47 ar 
    50    1   48 1  
    51    1   49 1  
    52    1   50 1  
    53    2   51 1  
    54    3   52 1  
    55    3   53 1  
    56    3   54 1  
    57    4   55 1  
    58    4   56 1  
    59    5   57 1  
    60    8   58 1  
    61    9   59 1  
    62   10   60 1  
    63   10   61 1  
    64   10   62 1  
    65   11   63 1  
    66   12   64 1  
    67   12   65 1  
    68   13   66 1  
    69   13   67 1  
    70   14   68 1  
    71   15   69 1  
    72   15   70 1  
    73   17   71 1  
    74   18   72 1  
    75   19   73 1  
    76   20   74 1  
    77   21   75 1  
    78   22   76 1  
    79   26   77 1  
    80   27   78 1  
    81   30   79 1  
    82   30   80 1  
    83   30   81 1  
    84   34   82 1  
    85   34   83 1  
    86   34   84 1  
    87   35   85 1  
    88   39   86 1  
    89   40   87 1  
    90   41   88 1  
    91   41   89 1  
    92   41   90 1  
    93   43   91 1  
    94   44   92 1  
    95   45   93 1  
    96   46   94 1  
    97   47   95 1  
@<TRIPOS>SUBSTRUCTURE
     1 0GH         1

