### 
### Created by X-TOOL on Mon Sep 10 21:13:14 2018
### 

@<TRIPOS>MOLECULE
4gih_ligand
   36    38     1     0     0
SMALL
GAST_HUCK


@<TRIPOS>ATOM
      1 C4         -6.7680   -6.0290  -15.4960 C.ar      1 0X5         0.0841
      2 C5         -7.3630   -4.7560  -15.5870 C.ar      1 0X5         0.0614
      3 C6         -6.5920   -3.6260  -15.8250 C.ar      1 0X5        -0.0422
      4 C11        -8.7620   -9.1860  -16.0280 C.ar      1 0X5         0.0712
      5 C8         -7.6480   -7.1690  -15.1630 C.2       1 0X5         0.2361
      6 C12        -9.5760   -9.5140  -14.9230 C.ar      1 0X5        -0.0298
      7 C13       -10.4480  -10.5960  -15.0330 C.ar      1 0X5        -0.0225
      8 C3         -5.3790   -6.1530  -15.6880 C.ar      1 0X5         0.0614
      9 C1         -5.2250   -3.7570  -16.0030 C.ar      1 0X5        -0.0567
     10 C2         -4.6220   -5.0120  -15.9350 C.ar      1 0X5        -0.0422
     11 CL1        -9.0780   -4.6020  -15.4470 Cl        1 0X5        -0.0647
     12 O9         -8.1400   -7.2160  -14.0310 O.2       1 0X5        -0.3713
     13 N10        -7.9150   -8.0780  -16.1160 N.am      1 0X5        -0.2284
     14 N14       -10.4840  -11.3230  -16.1490 N.ar      1 0X5        -0.3064
     15 C15        -9.7280  -11.0610  -17.2160 C.ar      1 0X5         0.1203
     16 C16        -8.8640   -9.9630  -17.1810 C.ar      1 0X5         0.0035
     17 N17        -9.8320  -11.8770  -18.3640 N.am      1 0X5        -0.2222
     18 C18        -8.8750  -11.9800  -19.3360 C.2       1 0X5         0.2102
     19 O19        -7.8420  -11.3390  -19.2710 O.2       1 0X5        -0.3827
     20 C20        -9.0940  -12.9030  -20.5280 C.3       1 0X5         0.0556
     21 C21        -8.4480  -12.5430  -21.8730 C.3       1 0X5        -0.0303
     22 C22        -7.9000  -13.7090  -21.0550 C.3       1 0X5        -0.0303
     23 CL2        -4.5810   -7.6960  -15.6770 Cl        1 0X5        -0.0647
     24 H1         -7.0570   -2.6479  -15.8712 H         1 0X5         0.0636
     25 H2         -9.5243   -8.9363  -14.0072 H         1 0X5         0.0479
     26 H3        -11.1011  -10.8476  -14.2052 H         1 0X5         0.0727
     27 H4         -4.6202   -2.8784  -16.1964 H         1 0X5         0.0652
     28 H5         -3.5508   -5.1000  -16.0762 H         1 0X5         0.0636
     29 H6         -7.4524   -7.9458  -16.9927 H         1 0X5         0.2294
     30 H7         -8.2709   -9.7146  -18.0537 H         1 0X5         0.0459
     31 H8        -10.6654  -12.4186  -18.4743 H         1 0X5         0.2302
     32 H9        -10.1002  -13.3457  -20.4891 H         1 0X5         0.0544
     33 H10        -7.8622  -11.6172  -21.9710 H         1 0X5         0.0294
     34 H11        -8.9884  -12.7361  -22.8114 H         1 0X5         0.0294
     35 H12        -8.0456  -14.7417  -21.4046 H         1 0X5         0.0294
     36 H13        -6.9194  -13.6228  -20.5642 H         1 0X5         0.0294
@<TRIPOS>BOND
     1    1    2 ar 
     2    5    1 1  
     3    1    8 ar 
     4    2    3 ar 
     5    2   11 1  
     6    3    9 ar 
     7    4    6 ar 
     8   13    4 1  
     9    4   16 ar 
    10    5   12 2  
    11    5   13 am 
    12    6    7 ar 
    13    7   14 ar 
    14    8   10 ar 
    15    8   23 1  
    16    9   10 ar 
    17   14   15 ar 
    18   15   16 ar 
    19   15   17 1  
    20   17   18 am 
    21   18   19 2  
    22   18   20 1  
    23   20   21 1  
    24   20   22 1  
    25   21   22 1  
    26    3   24 1  
    27    6   25 1  
    28    7   26 1  
    29    9   27 1  
    30   10   28 1  
    31   13   29 1  
    32   16   30 1  
    33   17   31 1  
    34   20   32 1  
    35   21   33 1  
    36   21   34 1  
    37   22   35 1  
    38   22   36 1  
@<TRIPOS>SUBSTRUCTURE
     1 0X5         1

