### 
### Created by X-TOOL on Mon Sep 10 21:13:15 2018
### 

@<TRIPOS>MOLECULE
4gii_ligand
   37    39     1     0     0
SMALL
GAST_HUCK


@<TRIPOS>ATOM
      1 C4         -9.6390  -10.8520  -17.2860 C.ar      1 0X6         0.1203
      2 C14        -4.6160   -4.8750  -16.1640 C.ar      1 0X6        -0.0080
      3 C5         -8.8460   -9.7030  -17.2500 C.ar      1 0X6         0.0035
      4 C6         -8.7340   -8.9640  -16.0700 C.ar      1 0X6         0.0714
      5 C11        -7.3100   -4.5030  -15.4890 C.ar      1 0X6         0.0716
      6 C8         -7.5980   -6.9540  -15.1290 C.2       1 0X6         0.2416
      7 C10        -6.7500   -5.7940  -15.4840 C.ar      1 0X6         0.0923
      8 C12        -6.5250   -3.4120  -15.8140 C.ar      1 0X6        -0.0080
      9 C13        -5.1770   -3.5900  -16.1520 C.ar      1 0X6         0.1002
     10 N3        -10.3280  -11.2080  -16.1990 N.ar      1 0X6        -0.3064
     11 C1         -9.4870   -9.3840  -14.9550 C.ar      1 0X6        -0.0297
     12 C2        -10.2740  -10.5230  -15.0600 C.ar      1 0X6        -0.0225
     13 N7         -7.9330   -7.8120  -16.1230 N.am      1 0X6        -0.2274
     14 O9         -7.9630   -7.0850  -13.9710 O.2       1 0X6        -0.3679
     15 C15        -5.3980   -5.9700  -15.8370 C.ar      1 0X6         0.0716
     16 CL1        -4.6910   -7.5500  -15.8820 Cl        1 0X6        -0.0627
     17 C17        -4.3670   -2.4620  -16.4880 C.1       1 0X6         0.1036
     18 N18        -3.7160   -1.5720  -16.7520 N.1       1 0X6        -0.3262
     19 CL2        -8.9850   -4.2690  -15.0940 Cl        1 0X6        -0.0627
     20 N20        -9.7530  -11.6350  -18.4470 N.am      1 0X6        -0.2221
     21 C21        -8.7770  -11.8630  -19.3710 C.2       1 0X6         0.2102
     22 O22        -7.6650  -11.3590  -19.2850 O.2       1 0X6        -0.3827
     23 C23        -9.1230  -12.7580  -20.5430 C.3       1 0X6         0.0556
     24 C24        -8.4290  -12.5480  -21.8920 C.3       1 0X6        -0.0303
     25 C25        -8.0810  -13.7660  -21.0310 C.3       1 0X6        -0.0303
     26 H1         -3.5735   -5.0108  -16.4284 H         1 0X6         0.0734
     27 H2         -8.3160   -9.3838  -18.1401 H         1 0X6         0.0459
     28 H3         -6.9537   -2.4164  -15.8072 H         1 0X6         0.0734
     29 H4         -9.4521   -8.8247  -14.0271 H         1 0X6         0.0480
     30 H5        -10.8504  -10.8575  -14.2050 H         1 0X6         0.0727
     31 H6         -7.5558   -7.5934  -17.0230 H         1 0X6         0.2295
     32 H7        -10.6389  -12.0685  -18.6121 H         1 0X6         0.2302
     33 H8        -10.1883  -13.0296  -20.5054 H         1 0X6         0.0544
     34 H9         -7.6991  -11.7342  -22.0145 H         1 0X6         0.0294
     35 H10        -8.9932  -12.6784  -22.8272 H         1 0X6         0.0294
     36 H11        -8.3949  -14.7714  -21.3482 H         1 0X6         0.0294
     37 H12        -7.1008  -13.8271  -20.5355 H         1 0X6         0.0294
@<TRIPOS>BOND
     1    3    1 ar 
     2    1   10 ar 
     3    1   20 1  
     4    2    9 ar 
     5   15    2 ar 
     6    4    3 ar 
     7    4   11 ar 
     8   13    4 1  
     9    7    5 ar 
    10    5    8 ar 
    11    5   19 1  
    12    7    6 1  
    13    6   13 am 
    14    6   14 2  
    15    7   15 ar 
    16    8    9 ar 
    17    9   17 1  
    18   10   12 ar 
    19   11   12 ar 
    20   15   16 1  
    21   17   18 3  
    22   20   21 am 
    23   21   22 2  
    24   21   23 1  
    25   23   24 1  
    26   23   25 1  
    27   24   25 1  
    28    2   26 1  
    29    3   27 1  
    30    8   28 1  
    31   11   29 1  
    32   12   30 1  
    33   13   31 1  
    34   20   32 1  
    35   23   33 1  
    36   24   34 1  
    37   24   35 1  
    38   25   36 1  
    39   25   37 1  
@<TRIPOS>SUBSTRUCTURE
     1 0X6         1

