### 
### Created by X-TOOL on Mon Sep 10 21:13:14 2018
### 

@<TRIPOS>MOLECULE
4giu_ligand
   34    35     1     0     0
SMALL
GAST_HUCK


@<TRIPOS>ATOM
      1 OX1         4.3200  -31.6260   34.1030 O.co2     1 636        -0.5648
      2 CX0         4.0050  -30.6840   33.3320 C.2       1 636         0.0552
      3 OX2         4.8890  -29.8660   32.9480 O.co2     1 636        -0.5648
      4 CX1         2.6240  -30.5550   32.7840 C.ar      1 636         0.0259
      5 CX6         1.9640  -31.7180   32.4050 C.ar      1 636        -0.0647
      6 CX5         0.6980  -31.6590   31.8510 C.ar      1 636        -0.0771
      7 CX4         0.0820  -30.4330   31.6730 C.ar      1 636        -0.0678
      8 CX3         0.7250  -29.2580   32.0430 C.ar      1 636        -0.0188
      9 C3         -0.0060  -27.9720   31.7950 C.3       1 636        -0.0331
     10 CX2         2.0040  -29.3100   32.6110 C.ar      1 636         0.0764
     11 N1          2.7010  -28.1110   33.0000 N.pl3     1 636        -0.2740
     12 CY1         2.2700  -27.2750   34.0960 C.ar      1 636         0.0657
     13 CY2         3.0800  -26.2070   34.4850 C.ar      1 636         0.0248
     14 CY0         4.3740  -25.9430   33.7750 C.2       1 636         0.0526
     15 OY1         5.0370  -26.8910   33.2740 O.co2     1 636        -0.5664
     16 OY2         4.8000  -24.7580   33.6710 O.co2     1 636        -0.5664
     17 CY6         1.0710  -27.4990   34.7760 C.ar      1 636        -0.0354
     18 CY5         0.6770  -26.6670   35.8090 C.ar      1 636        -0.0538
     19 C5         -0.6160  -26.8970   36.5310 C.3       1 636        -0.0326
     20 CY4         1.4890  -25.6100   36.1910 C.ar      1 636        -0.0689
     21 CY3         2.6890  -25.3800   35.5320 C.ar      1 636        -0.0642
     22 H           2.4454  -32.6792   32.5447 H         1 636         0.0561
     23 H           0.1901  -32.5705   31.5572 H         1 636         0.0504
     24 H          -0.9112  -30.3886   31.2410 H         1 636         0.0543
     25 H          -0.9858  -28.1883   31.3442 H         1 636         0.0368
     26 H           0.5815  -27.3424   31.1106 H         1 636         0.0368
     27 H          -0.1499  -27.4423   32.7482 H         1 636         0.0368
     28 H           3.5433  -27.8380   32.4737 H         1 636         0.2090
     29 H           0.4416  -28.3344   34.4913 H         1 636         0.0472
     30 H          -0.7415  -26.1316   37.3110 H         1 636         0.0394
     31 H          -0.6048  -27.8945   36.9946 H         1 636         0.0394
     32 H          -1.4507  -26.8336   35.8174 H         1 636         0.0394
     33 H           1.1863  -24.9621   37.0056 H         1 636         0.0464
     34 H           3.3225  -24.5539   35.8343 H         1 636         0.0603
@<TRIPOS>BOND
     1    1    2 ar 
     2    2    3 ar 
     3    2    4 1  
     4    4    5 ar 
     5    4   10 ar 
     6    5    6 ar 
     7    6    7 ar 
     8    7    8 ar 
     9    8    9 1  
    10    8   10 ar 
    11   10   11 1  
    12   11   12 1  
    13   12   13 ar 
    14   12   17 ar 
    15   13   14 1  
    16   13   21 ar 
    17   14   15 ar 
    18   14   16 ar 
    19   17   18 ar 
    20   18   19 1  
    21   18   20 ar 
    22   20   21 ar 
    23    5   22 1  
    24    6   23 1  
    25    7   24 1  
    26    9   25 1  
    27    9   26 1  
    28    9   27 1  
    29   11   28 1  
    30   17   29 1  
    31   19   30 1  
    32   19   31 1  
    33   19   32 1  
    34   20   33 1  
    35   21   34 1  
@<TRIPOS>SUBSTRUCTURE
     1 636         1

