### 
### Created by X-TOOL on Mon Sep 10 21:13:14 2018
### 

@<TRIPOS>MOLECULE
4gj2_ligand
   36    38     1     0     0
SMALL
GAST_HUCK


@<TRIPOS>ATOM
      1 C1         -5.2860   -3.8540  -16.2350 C.ar      1 0XH        -0.0567
      2 C2         -4.6470   -5.0880  -16.1850 C.ar      1 0XH        -0.0422
      3 C3         -5.3670   -6.2390  -15.8860 C.ar      1 0XH         0.0614
      4 C4         -6.7470   -6.1600  -15.6230 C.ar      1 0XH         0.0841
      5 C5         -7.3870   -4.9080  -15.6880 C.ar      1 0XH         0.0614
      6 C6         -6.6500   -3.7700  -15.9880 C.ar      1 0XH        -0.0422
      7 CL1        -9.0960   -4.7820  -15.3940 Cl        1 0XH        -0.0647
      8 C8         -7.5530   -7.3530  -15.2770 C.2       1 0XH         0.2361
      9 O9         -7.8710   -7.5290  -14.1130 O.2       1 0XH        -0.3713
     10 N10        -7.9380   -8.1720  -16.2750 N.am      1 0XH        -0.2284
     11 C11        -8.7460   -9.3110  -16.2160 C.ar      1 0XH         0.0712
     12 C12        -9.5510   -9.6970  -15.1270 C.ar      1 0XH        -0.0298
     13 C13       -10.3820  -10.8040  -15.2610 C.ar      1 0XH        -0.0225
     14 N14       -10.4170  -11.5000  -16.3940 N.ar      1 0XH        -0.3064
     15 C15        -9.6680  -11.1780  -17.4470 C.ar      1 0XH         0.1203
     16 C16        -8.8550  -10.0450  -17.3930 C.ar      1 0XH         0.0035
     17 N17        -9.7970  -11.9140  -18.6300 N.am      1 0XH        -0.2221
     18 C18        -8.8640  -12.0620  -19.6070 C.2       1 0XH         0.2131
     19 O19        -7.7560  -11.5560  -19.5500 O.2       1 0XH        -0.3826
     20 C20        -9.2720  -12.8790  -20.8070 C.3       1 0XH         0.0891
     21 C22        -8.4710  -12.7590  -22.1080 C.3       1 0XH         0.0038
     22 C23        -8.3730  -14.0260  -21.2580 C.3       1 0XH         0.1234
     23 F1         -7.1980  -14.2320  -20.5360 F         1 0XH        -0.2425
     24 CL2        -4.5540   -7.7650  -15.8680 Cl        1 0XH        -0.0647
     25 H1         -4.7202   -2.9588  -16.4665 H         1 0XH         0.0652
     26 H2         -3.5827   -5.1528  -16.3800 H         1 0XH         0.0636
     27 H3         -7.1444   -2.8062  -16.0298 H         1 0XH         0.0636
     28 H4         -7.5985   -7.9316  -17.1844 H         1 0XH         0.2294
     29 H5         -9.5233   -9.1394  -14.1978 H         1 0XH         0.0479
     30 H6        -11.0103  -11.1040  -14.4301 H         1 0XH         0.0727
     31 H7         -8.3047   -9.7347  -18.2739 H         1 0XH         0.0459
     32 H8        -10.6696  -12.3814  -18.7718 H         1 0XH         0.2302
     33 H9        -10.3667  -12.9829  -20.8363 H         1 0XH         0.0574
     34 H10        -7.6170  -12.0682  -22.1671 H         1 0XH         0.0323
     35 H11        -8.9891  -12.7855  -23.0780 H         1 0XH         0.0323
     36 H12        -8.7943  -14.9800  -21.6078 H         1 0XH         0.0681
@<TRIPOS>BOND
     1    1    2 ar 
     2    1    6 ar 
     3    2    3 ar 
     4    3    4 ar 
     5    3   24 1  
     6    4    5 ar 
     7    4    8 1  
     8    5    6 ar 
     9    5    7 1  
    10    8    9 2  
    11    8   10 am 
    12   10   11 1  
    13   11   12 ar 
    14   11   16 ar 
    15   12   13 ar 
    16   13   14 ar 
    17   14   15 ar 
    18   15   16 ar 
    19   15   17 1  
    20   17   18 am 
    21   18   19 2  
    22   18   20 1  
    23   20   21 1  
    24   20   22 1  
    25   21   22 1  
    26   22   23 1  
    27    1   25 1  
    28    2   26 1  
    29    6   27 1  
    30   10   28 1  
    31   12   29 1  
    32   13   30 1  
    33   16   31 1  
    34   17   32 1  
    35   20   33 1  
    36   21   34 1  
    37   21   35 1  
    38   22   36 1  
@<TRIPOS>SUBSTRUCTURE
     1 0XH         1

