### 
### Created by X-TOOL on Mon Sep 10 21:13:15 2018
### 

@<TRIPOS>MOLECULE
4gj3_ligand
   37    39     1     0     0
SMALL
GAST_HUCK


@<TRIPOS>ATOM
      1 C1         -9.3500   -9.7140  -15.2270 C.ar      1 0XP        -0.0297
      2 C2        -10.1590  -10.8300  -15.3970 C.ar      1 0XP        -0.0225
      3 N3        -10.2190  -11.4610  -16.5650 N.ar      1 0XP        -0.3064
      4 C4         -9.5060  -11.0690  -17.6230 C.ar      1 0XP         0.1203
      5 C5         -8.7070   -9.9280  -17.5340 C.ar      1 0XP         0.0035
      6 C6         -8.5880   -9.2470  -16.3170 C.ar      1 0XP         0.0714
      7 N7         -7.7790   -8.0990  -16.3170 N.am      1 0XP        -0.2274
      8 C8         -7.5430   -7.1890  -15.3400 C.2       1 0XP         0.2416
      9 O9         -8.0030   -7.2710  -14.2150 O.2       1 0XP        -0.3679
     10 C10        -6.6730   -6.0450  -15.6910 C.ar      1 0XP         0.0923
     11 C11        -7.2250   -4.7480  -15.7860 C.ar      1 0XP         0.0716
     12 C12        -6.4130   -3.6810  -16.1360 C.ar      1 0XP        -0.0080
     13 C13        -5.0600   -3.8900  -16.4350 C.ar      1 0XP         0.1002
     14 C14        -4.5140   -5.1790  -16.3650 C.ar      1 0XP        -0.0080
     15 C15        -5.3130   -6.2520  -16.0090 C.ar      1 0XP         0.0716
     16 CL1        -4.6060   -7.8380  -15.9560 Cl        1 0XP        -0.0627
     17 C17        -4.2310   -2.7840  -16.8040 C.1       1 0XP         0.1036
     18 N18        -3.5700   -1.9080  -17.0950 N.1       1 0XP        -0.3262
     19 CL2        -8.9060   -4.4440  -15.4500 Cl        1 0XP        -0.0627
     20 N20        -9.6660  -11.7610  -18.8310 N.am      1 0XP        -0.2221
     21 C21        -8.7230  -12.0170  -19.7730 C.2       1 0XP         0.2131
     22 O22        -7.5630  -11.6590  -19.6640 O.2       1 0XP        -0.3826
     23 C23        -9.1760  -12.7790  -20.9950 C.3       1 0XP         0.0891
     24 C25        -8.3260  -12.7310  -22.2670 C.3       1 0XP         0.0038
     25 C26        -8.3670  -14.0020  -21.4130 C.3       1 0XP         0.1234
     26 F1         -7.2530  -14.3110  -20.6290 F         1 0XP        -0.2425
     27 H1         -9.3052   -9.2089  -14.2689 H         1 0XP         0.0480
     28 H2        -10.7507  -11.1920  -14.5640 H         1 0XP         0.0727
     29 H3         -8.1777   -9.5686  -18.4090 H         1 0XP         0.0459
     30 H4         -7.2993   -7.9245  -17.1769 H         1 0XP         0.2295
     31 H5         -6.8264   -2.6798  -16.1787 H         1 0XP         0.0734
     32 H6         -3.4652   -5.3358  -16.5898 H         1 0XP         0.0734
     33 H7        -10.5845  -12.1075  -19.0217 H         1 0XP         0.2302
     34 H8        -10.2741  -12.7798  -21.0589 H         1 0XP         0.0574
     35 H9         -7.4139  -12.1169  -22.2971 H         1 0XP         0.0323
     36 H10        -8.8118  -12.7146  -23.2538 H         1 0XP         0.0323
     37 H11        -8.8551  -14.9160  -21.7822 H         1 0XP         0.0681
@<TRIPOS>BOND
     1    1    2 ar 
     2    1    6 ar 
     3    2    3 ar 
     4    3    4 ar 
     5    4    5 ar 
     6    4   20 1  
     7    5    6 ar 
     8    6    7 1  
     9    7    8 am 
    10    8    9 2  
    11    8   10 1  
    12   10   11 ar 
    13   10   15 ar 
    14   11   12 ar 
    15   11   19 1  
    16   12   13 ar 
    17   13   14 ar 
    18   13   17 1  
    19   14   15 ar 
    20   15   16 1  
    21   17   18 3  
    22   20   21 am 
    23   21   22 2  
    24   21   23 1  
    25   23   24 1  
    26   23   25 1  
    27   24   25 1  
    28   25   26 1  
    29    1   27 1  
    30    2   28 1  
    31    5   29 1  
    32    7   30 1  
    33   12   31 1  
    34   14   32 1  
    35   20   33 1  
    36   23   34 1  
    37   24   35 1  
    38   24   36 1  
    39   25   37 1  
@<TRIPOS>SUBSTRUCTURE
     1 0XP         1

