### 
### Created by X-TOOL on Mon Sep 10 21:13:13 2018
### 

@<TRIPOS>MOLECULE
4gj6_ligand
   53    56     1     0     0
SMALL
GAST_HUCK


@<TRIPOS>ATOM
      1 N1          3.8900   23.2440   48.7920 N.4       1 0LS         0.2276
      2 C2          5.3020   23.3120   48.3960 C.3       1 0LS        -0.0280
      3 C3          5.4910   22.2620   47.2690 C.3       1 0LS         0.0321
      4 C4          4.1210   21.5860   47.1110 C.3       1 0LS         0.0186
      5 C5          3.4380   21.8970   48.4540 C.3       1 0LS        -0.0284
      6 C6          3.3420   21.9990   45.8370 C.3       1 0LS        -0.0110
      7 C7          1.9410   21.3730   45.8110 C.ar      1 0LS        -0.0426
      8 C8          6.6050   21.2170   47.5340 C.3       1 0LS         0.0530
      9 N9          7.9430   21.7950   47.7510 N.pl3     1 0LS        -0.2603
     10 C10         8.5850   22.5190   46.7880 C.ar      1 0LS         0.0611
     11 C11         8.5820   21.4790   48.9120 C.ar      1 0LS         0.0608
     12 C12         8.2110   22.3530   45.4330 C.ar      1 0LS        -0.0390
     13 C13         8.9260   22.9800   44.4130 C.ar      1 0LS        -0.0584
     14 C14        10.0250   23.7850   44.7510 C.ar      1 0LS         0.0272
     15 C15        10.4280   23.9500   46.0800 C.ar      1 0LS        -0.0584
     16 C16         9.7290   23.2940   47.0850 C.ar      1 0LS        -0.0390
     17 C17         9.4390   20.3550   49.0010 C.ar      1 0LS        -0.0397
     18 C18        10.0580   20.0050   50.2150 C.ar      1 0LS        -0.0723
     19 C19         9.7930   20.7610   51.3660 C.ar      1 0LS        -0.0741
     20 C20         8.9190   21.8550   51.3010 C.ar      1 0LS        -0.0723
     21 C21         8.3310   22.2140   50.0780 C.ar      1 0LS        -0.0397
     22 C22         0.8140   22.1230   46.2500 C.ar      1 0LS        -0.0603
     23 C23        -0.4820   21.5610   46.2380 C.ar      1 0LS        -0.0686
     24 C24        -0.6460   20.2410   45.7820 C.ar      1 0LS        -0.0687
     25 C25         0.4740   19.4850   45.3480 C.ar      1 0LS        -0.0686
     26 C26         1.7700   20.0470   45.3540 C.ar      1 0LS        -0.0603
     27 CL2        10.9830   24.5390   43.5050 Cl        1 0LS        -0.0821
     28 H1          3.3517   23.9304   48.2869 H         1 0LS         0.2014
     29 H2          3.7964   23.4059   49.7825 H         1 0LS         0.2014
     30 H3          5.9494   23.0719   49.2523 H         1 0LS         0.0817
     31 H4          5.5448   24.3181   48.0234 H         1 0LS         0.0817
     32 H5          5.7471   22.7887   46.3379 H         1 0LS         0.0382
     33 H6          4.2691   20.4984   47.0397 H         1 0LS         0.0380
     34 H7          2.3434   21.8693   48.3489 H         1 0LS         0.0818
     35 H8          3.7507   21.1773   49.2248 H         1 0LS         0.0818
     36 H9          3.9007   21.6631   44.9510 H         1 0LS         0.0431
     37 H10         3.2451   23.0945   45.8159 H         1 0LS         0.0431
     38 H11         6.6581   20.5432   46.6662 H         1 0LS         0.0568
     39 H12         6.3300   20.6406   48.4296 H         1 0LS         0.0568
     40 H13         7.3585   21.7310   45.1852 H         1 0LS         0.0530
     41 H14         8.6378   22.8479   43.3764 H         1 0LS         0.0592
     42 H15        11.2749   24.5817   46.3226 H         1 0LS         0.0592
     43 H16        10.0657   23.3776   48.1120 H         1 0LS         0.0530
     44 H17         9.6213   19.7535   48.1178 H         1 0LS         0.0529
     45 H18        10.7337   19.1586   50.2602 H         1 0LS         0.0585
     46 H19        10.2643   20.4992   52.3065 H         1 0LS         0.0513
     47 H20         8.6969   22.4244   52.1963 H         1 0LS         0.0585
     48 H21         7.6721   23.0737   50.0350 H         1 0LS         0.0529
     49 H22         0.9520   23.1401   46.5986 H         1 0LS         0.0557
     50 H23        -1.3358   22.1377   46.5747 H         1 0LS         0.0599
     51 H24        -1.6350   19.7976   45.7618 H         1 0LS         0.0559
     52 H25         0.3334   18.4653   45.0082 H         1 0LS         0.0599
     53 H26         2.6213   19.4691   45.0128 H         1 0LS         0.0557
@<TRIPOS>BOND
     1    1    2 1  
     2    1    5 1  
     3    2    3 1  
     4    3    4 1  
     5    3    8 1  
     6    4    5 1  
     7    4    6 1  
     8    6    7 1  
     9    7   22 ar 
    10    7   26 ar 
    11    8    9 1  
    12    9   10 1  
    13    9   11 1  
    14   10   12 ar 
    15   10   16 ar 
    16   11   17 ar 
    17   11   21 ar 
    18   12   13 ar 
    19   13   14 ar 
    20   14   15 ar 
    21   14   27 1  
    22   15   16 ar 
    23   17   18 ar 
    24   18   19 ar 
    25   19   20 ar 
    26   20   21 ar 
    27   22   23 ar 
    28   23   24 ar 
    29   24   25 ar 
    30   25   26 ar 
    31    1   28 1  
    32    1   29 1  
    33    2   30 1  
    34    2   31 1  
    35    3   32 1  
    36    4   33 1  
    37    5   34 1  
    38    5   35 1  
    39    6   36 1  
    40    6   37 1  
    41    8   38 1  
    42    8   39 1  
    43   12   40 1  
    44   13   41 1  
    45   15   42 1  
    46   16   43 1  
    47   17   44 1  
    48   18   45 1  
    49   19   46 1  
    50   20   47 1  
    51   21   48 1  
    52   22   49 1  
    53   23   50 1  
    54   24   51 1  
    55   25   52 1  
    56   26   53 1  
@<TRIPOS>SUBSTRUCTURE
     1 0LS         1

