### 
### Created by X-TOOL on Mon Sep 10 21:13:13 2018
### 

@<TRIPOS>MOLECULE
4gj7_ligand
   72    74     1     0     0
SMALL
GAST_HUCK


@<TRIPOS>ATOM
      1 C1         70.3160    8.9600   47.5710 C.2       1 0LT         0.1969
      2 N2         68.9550    8.7690   47.5330 N.am      1 0LT        -0.2712
      3 C3         68.4000    7.4850   47.0440 C.3       1 0LT         0.0417
      4 C4         71.0440   10.1920   48.0470 C.ar      1 0LT         0.0297
      5 C5         68.8940    6.9310   45.6690 C.3       1 0LT         0.0288
      6 C6         71.1030   11.2980   47.1810 C.ar      1 0LT        -0.0217
      7 C7         71.8670   12.4330   47.5420 C.ar      1 0LT         0.1256
      8 N8         67.0950    7.1180   44.0750 N.4       1 0LT         0.2276
      9 C9         68.3450    5.5090   45.3740 C.3       1 0LT         0.0183
     10 O10        71.1400    8.1810   47.0870 O.2       1 0LT        -0.3896
     11 C11        72.6070   12.4150   48.7570 C.ar      1 0LT         0.1251
     12 C12        71.7880   10.1600   49.2400 C.ar      1 0LT        -0.0615
     13 C13        69.2440    4.5720   44.4970 C.3       1 0LT        -0.0110
     14 C14        68.0500    9.7260   48.1890 C.3       1 0LT         0.0387
     15 C15        72.5510   11.2770   49.6090 C.ar      1 0LT        -0.0349
     16 C16        68.3910    7.7410   44.4460 C.3       1 0LT        -0.0283
     17 C17        66.9180    5.8670   44.8560 C.3       1 0LT        -0.0284
     18 O18        71.9540   13.5640   46.7150 O.3       1 0LT        -0.3206
     19 C19        68.5020    3.2660   44.1690 C.ar      1 0LT        -0.0426
     20 O20        73.4070   13.5280   49.0740 O.3       1 0LT        -0.3213
     21 C21        69.7910   14.2850   45.6260 C.3       1 0LT        -0.0020
     22 O22        69.7510   15.4380   43.4550 O.3       1 0LT        -0.3829
     23 C23        71.2350   13.7310   45.4580 C.3       1 0LT         0.0701
     24 C24        69.0410   14.4960   44.2840 C.3       1 0LT         0.0497
     25 C25        67.1020   10.6540   47.3820 C.3       1 0LT        -0.0421
     26 C26        67.6170    9.2560   49.6150 C.3       1 0LT        -0.0421
     27 C27        67.6530    3.1640   43.0380 C.ar      1 0LT        -0.0603
     28 C28        68.6420    2.1550   45.0300 C.ar      1 0LT        -0.0603
     29 C29        74.0150   13.6940   50.3720 C.3       1 0LT         0.0582
     30 C30        69.8690   15.0360   42.0820 C.3       1 0LT         0.0364
     31 C31        66.9290    1.9850   42.7900 C.ar      1 0LT        -0.0686
     32 C32        67.9330    0.9670   44.7680 C.ar      1 0LT        -0.0686
     33 C33        67.0950    0.8750   43.6380 C.ar      1 0LT        -0.0687
     34 H1         67.3097    7.6104   46.9700 H         1 0LT         0.0526
     35 H2         68.6307    6.7224   47.8024 H         1 0LT         0.0526
     36 H3         69.9938    6.9190   45.6834 H         1 0LT         0.0378
     37 H4         70.5651   11.2813   46.2400 H         1 0LT         0.0557
     38 H5         67.0925    6.9044   43.0899 H         1 0LT         0.2014
     39 H6         66.3421    7.7552   44.2826 H         1 0LT         0.2014
     40 H7         68.2342    4.9770   46.3304 H         1 0LT         0.0380
     41 H8         71.7717    9.2779   49.8699 H         1 0LT         0.0551
     42 H9         70.1662    4.3357   45.0481 H         1 0LT         0.0431
     43 H10        69.4990    5.0885   43.5599 H         1 0LT         0.0431
     44 H11        68.7907   10.4889   48.4704 H         1 0LT         0.0552
     45 H12        73.0988   11.2735   50.5444 H         1 0LT         0.0524
     46 H13        69.1066    7.6680   43.6138 H         1 0LT         0.0817
     47 H14        68.2482    8.7979   44.7152 H         1 0LT         0.0817
     48 H15        66.5265    5.0633   44.2151 H         1 0LT         0.0818
     49 H16        66.2308    6.0315   45.6990 H         1 0LT         0.0818
     50 H17        69.8490   15.2523   46.1466 H         1 0LT         0.0313
     51 H18        69.2155   13.5738   46.2367 H         1 0LT         0.0313
     52 H19        71.1744   12.7516   44.9610 H         1 0LT         0.0610
     53 H20        71.8021   14.4291   44.8248 H         1 0LT         0.0610
     54 H21        68.0319   14.8825   44.4895 H         1 0LT         0.0560
     55 H22        68.9648   13.5340   43.7561 H         1 0LT         0.0560
     56 H23        66.5229   11.2801   48.0768 H         1 0LT         0.0252
     57 H24        66.4144   10.0417   46.7801 H         1 0LT         0.0252
     58 H25        67.6971   11.2977   46.7175 H         1 0LT         0.0252
     59 H26        66.9440   10.0043   50.0590 H         1 0LT         0.0252
     60 H27        68.5081    9.1418   50.2498 H         1 0LT         0.0252
     61 H28        67.0941    8.2912   49.5400 H         1 0LT         0.0252
     62 H29        67.5614    4.0033   42.3581 H         1 0LT         0.0557
     63 H30        69.2954    2.2170   45.8927 H         1 0LT         0.0557
     64 H31        74.5911   14.6309   50.3899 H         1 0LT         0.0575
     65 H32        74.6868   12.8466   50.5733 H         1 0LT         0.0575
     66 H33        73.2306   13.7312   51.1423 H         1 0LT         0.0575
     67 H34        70.4204   15.8049   41.5209 H         1 0LT         0.0523
     68 H35        68.8656   14.9143   41.6480 H         1 0LT         0.0523
     69 H36        70.4115   14.0808   42.0249 H         1 0LT         0.0523
     70 H37        66.2463    1.9314   41.9497 H         1 0LT         0.0599
     71 H38        68.0319    0.1202   45.4375 H         1 0LT         0.0599
     72 H39        66.5776   -0.0528   43.4222 H         1 0LT         0.0559
@<TRIPOS>BOND
     1    1    2 am 
     2    1    4 1  
     3    1   10 2  
     4    2    3 1  
     5    2   14 1  
     6    3    5 1  
     7    4    6 ar 
     8    4   12 ar 
     9    5    9 1  
    10    5   16 1  
    11    6    7 ar 
    12    7   11 ar 
    13    7   18 1  
    14   16    8 1  
    15    8   17 1  
    16    9   13 1  
    17    9   17 1  
    18   11   15 ar 
    19   11   20 1  
    20   12   15 ar 
    21   13   19 1  
    22   14   25 1  
    23   14   26 1  
    24   18   23 1  
    25   19   27 ar 
    26   19   28 ar 
    27   20   29 1  
    28   23   21 1  
    29   21   24 1  
    30   24   22 1  
    31   22   30 1  
    32   27   31 ar 
    33   28   32 ar 
    34   31   33 ar 
    35   32   33 ar 
    36    3   34 1  
    37    3   35 1  
    38    5   36 1  
    39    6   37 1  
    40    8   38 1  
    41    8   39 1  
    42    9   40 1  
    43   12   41 1  
    44   13   42 1  
    45   13   43 1  
    46   14   44 1  
    47   15   45 1  
    48   16   46 1  
    49   16   47 1  
    50   17   48 1  
    51   17   49 1  
    52   21   50 1  
    53   21   51 1  
    54   23   52 1  
    55   23   53 1  
    56   24   54 1  
    57   24   55 1  
    58   25   56 1  
    59   25   57 1  
    60   25   58 1  
    61   26   59 1  
    62   26   60 1  
    63   26   61 1  
    64   27   62 1  
    65   28   63 1  
    66   29   64 1  
    67   29   65 1  
    68   29   66 1  
    69   30   67 1  
    70   30   68 1  
    71   30   69 1  
    72   31   70 1  
    73   32   71 1  
    74   33   72 1  
@<TRIPOS>SUBSTRUCTURE
     1 0LT         1

