### 
### Created by X-TOOL on Mon Sep 10 21:13:13 2018
### 

@<TRIPOS>MOLECULE
4gj8_ligand
   47    50     1     0     0
SMALL
GAST_HUCK


@<TRIPOS>ATOM
      1 C1          9.1300   21.8530   48.4480 C.ar      1 0LU        -0.0150
      2 C2         10.3500   22.2870   47.5950 C.3       1 0LU         0.0257
      3 C3          8.7730   20.4970   48.6270 C.ar      1 0LU         0.0328
      4 C4          8.3100   22.8260   49.0560 C.ar      1 0LU        -0.0635
      5 C5         11.5440   21.3230   47.6850 C.ar      1 0LU        -0.0150
      6 C6          9.9010   22.3930   46.1170 C.3       1 0LU        -0.0018
      7 S7          9.7280   19.2100   47.8990 S.3       1 0LU        -0.0520
      8 C8          7.6330   20.1230   49.3730 C.ar      1 0LU        -0.0538
      9 C9          7.1680   22.4600   49.7910 C.ar      1 0LU        -0.0750
     10 C10        11.3500   19.9280   47.8210 C.ar      1 0LU         0.0328
     11 C11        12.8450   21.8440   47.6000 C.ar      1 0LU        -0.0635
     12 C12        10.7110   23.4420   45.3220 C.3       1 0LU         0.0983
     13 C13         6.8140   21.1090   49.9440 C.ar      1 0LU        -0.0742
     14 C14        12.4480   19.0650   47.8860 C.ar      1 0LU        -0.0538
     15 C15        13.9430   20.9830   47.6840 C.ar      1 0LU        -0.0750
     16 C16        11.5810   22.7280   44.2490 C.3       1 0LU        -0.0050
     17 O17         9.7650   24.3330   44.7120 O.3       1 0LU        -0.3862
     18 C18        13.7520   19.5960   47.8230 C.ar      1 0LU        -0.0742
     19 N19        11.8170   23.5480   43.0350 N.4       1 0LU         0.2371
     20 C20        13.1790   24.0560   42.7780 C.3       1 0LU        -0.0316
     21 C21        11.2810   23.1100   41.7390 C.3       1 0LU        -0.0316
     22 C22        13.1270   24.5670   41.3210 C.3       1 0LU        -0.0077
     23 C23        11.6570   24.3390   40.8910 C.3       1 0LU        -0.0077
     24 H1         10.6808   23.2760   47.9450 H         1 0LU         0.0588
     25 H2          8.5644   23.8749   48.9551 H         1 0LU         0.0540
     26 H3          8.8382   22.6756   46.0913 H         1 0LU         0.0334
     27 H4         10.0310   21.4112   45.6383 H         1 0LU         0.0334
     28 H5          7.3910   19.0745   49.5043 H         1 0LU         0.0548
     29 H6          6.5538   23.2294   50.2448 H         1 0LU         0.0543
     30 H7         12.9973   22.9093   47.4698 H         1 0LU         0.0540
     31 H8         11.3662   24.0059   46.0022 H         1 0LU         0.0650
     32 H9          5.9221   20.8326   50.4946 H         1 0LU         0.0544
     33 H10        12.2976   17.9960   47.9841 H         1 0LU         0.0548
     34 H11        14.9482   21.3866   47.6418 H         1 0LU         0.0543
     35 H12        11.0714   21.8006   43.9487 H         1 0LU         0.0840
     36 H13        12.5548   22.4825   44.6977 H         1 0LU         0.0840
     37 H14         9.1931   23.8397   44.1358 H         1 0LU         0.2100
     38 H15        14.6090   18.9348   47.8817 H         1 0LU         0.0544
     39 H16        11.2838   24.3769   43.2464 H         1 0LU         0.2034
     40 H17        13.9213   23.2510   42.8823 H         1 0LU         0.0814
     41 H18        13.4265   24.8749   43.4695 H         1 0LU         0.0814
     42 H19        10.1930   22.9520   41.7754 H         1 0LU         0.0814
     43 H20        11.7726   22.1946   41.3781 H         1 0LU         0.0814
     44 H21        13.8140   23.9933   40.6815 H         1 0LU         0.0319
     45 H22        13.3865   25.6348   41.2725 H         1 0LU         0.0319
     46 H23        11.0265   25.2061   41.1371 H         1 0LU         0.0319
     47 H24        11.5811   24.1241   39.8149 H         1 0LU         0.0319
@<TRIPOS>BOND
     1    1    2 1  
     2    1    3 ar 
     3    1    4 ar 
     4    2    5 1  
     5    2    6 1  
     6    3    7 1  
     7    3    8 ar 
     8    4    9 ar 
     9    5   10 ar 
    10    5   11 ar 
    11    6   12 1  
    12    7   10 1  
    13    8   13 ar 
    14    9   13 ar 
    15   10   14 ar 
    16   11   15 ar 
    17   12   16 1  
    18   12   17 1  
    19   14   18 ar 
    20   15   18 ar 
    21   16   19 1  
    22   19   20 1  
    23   19   21 1  
    24   20   22 1  
    25   21   23 1  
    26   22   23 1  
    27    2   24 1  
    28    4   25 1  
    29    6   26 1  
    30    6   27 1  
    31    8   28 1  
    32    9   29 1  
    33   11   30 1  
    34   12   31 1  
    35   13   32 1  
    36   14   33 1  
    37   15   34 1  
    38   16   35 1  
    39   16   36 1  
    40   17   37 1  
    41   18   38 1  
    42   19   39 1  
    43   20   40 1  
    44   20   41 1  
    45   21   42 1  
    46   21   43 1  
    47   22   44 1  
    48   22   45 1  
    49   23   46 1  
    50   23   47 1  
@<TRIPOS>SUBSTRUCTURE
     1 0LU         1

