### 
### Created by X-TOOL on Mon Sep 10 21:13:13 2018
### 

@<TRIPOS>MOLECULE
4gj9_ligand
   43    46     1     0     0
SMALL
GAST_HUCK


@<TRIPOS>ATOM
      1 C1         11.7230   20.4640   54.3390 C.2       1 0M2         0.0065
      2 C2         12.9260   20.5830   53.7260 C.2       1 0M2         0.0065
      3 C3         10.9930   19.2150   54.8280 C.ar      1 0M2         0.0025
      4 C4         11.0690   21.8160   54.4290 C.3       1 0M2        -0.0034
      5 C5         13.9760   19.4860   53.5720 C.ar      1 0M2         0.0025
      6 C6         13.2160   22.0400   53.4120 C.3       1 0M2        -0.0034
      7 C7         11.3550   17.8900   54.4340 C.ar      1 0M2         0.0645
      8 C8          9.8430   19.3780   55.6340 C.ar      1 0M2        -0.0678
      9 N9         12.1670   22.7820   54.1690 N.4       1 0M2         0.2577
     10 C10        13.6660   18.0950   53.6390 C.ar      1 0M2         0.0645
     11 C11        15.3450   19.8670   53.6310 C.ar      1 0M2        -0.0678
     12 N12        12.4030   17.5900   53.6080 N.pl3     1 0M2        -0.2736
     13 C13        10.5770   16.7750   54.8380 C.ar      1 0M2        -0.0420
     14 C14         9.0930   18.2630   56.0400 C.ar      1 0M2        -0.0777
     15 C15        11.7920   24.1510   53.7070 C.3       1 0M2        -0.0030
     16 C16        14.7000   17.1430   53.6160 C.ar      1 0M2        -0.0420
     17 C17        16.3730   18.9090   53.6340 C.ar      1 0M2        -0.0777
     18 C18         9.4860   16.9620   55.6880 C.ar      1 0M2        -0.0762
     19 C19        11.2640   25.1320   54.7780 C.3       1 0M2         0.0921
     20 C20        16.0450   17.5430   53.6140 C.ar      1 0M2        -0.0762
     21 C21        12.2160   25.2150   55.9670 C.3       1 0M2        -0.0339
     22 O22        11.1980   26.4280   54.1710 O.3       1 0M2        -0.3868
     23 H1         10.6414   21.9746   55.4300 H         1 0M2         0.0954
     24 H2         10.2771   21.9154   53.6720 H         1 0M2         0.0954
     25 H3         13.1305   22.2329   52.3324 H         1 0M2         0.0954
     26 H4         14.2217   22.3226   53.7565 H         1 0M2         0.0954
     27 H5          9.5380   20.3719   55.9409 H         1 0M2         0.0547
     28 H6         12.5776   22.9580   55.0726 H         1 0M2         0.2060
     29 H7         15.6010   20.9194   53.6746 H         1 0M2         0.0547
     30 H8         12.2125   16.8958   52.8713 H         1 0M2         0.2054
     31 H9         10.8290   15.7806   54.4876 H         1 0M2         0.0501
     32 H10         8.1978   18.4086   56.6337 H         1 0M2         0.0504
     33 H11        11.0084   24.0405   52.9430 H         1 0M2         0.0840
     34 H12        12.6854   24.6046   53.2531 H         1 0M2         0.0840
     35 H13        14.4554   16.0871   53.5996 H         1 0M2         0.0501
     36 H14        17.4109   19.2214   53.6516 H         1 0M2         0.0504
     37 H15         8.9444   16.1064   56.0748 H         1 0M2         0.0559
     38 H16        10.2681   24.8139   55.1199 H         1 0M2         0.0644
     39 H17        16.8317   16.7974   53.5970 H         1 0M2         0.0559
     40 H18        11.8138   25.9192   56.7102 H         1 0M2         0.0256
     41 H19        13.2006   25.5661   55.6246 H         1 0M2         0.0256
     42 H20        12.3200   24.2197   56.4237 H         1 0M2         0.0256
     43 H21        10.6088   26.3981   53.4264 H         1 0M2         0.2100
@<TRIPOS>BOND
     1    1    2 2  
     2    1    3 1  
     3    1    4 1  
     4    2    5 1  
     5    2    6 1  
     6    3    7 ar 
     7    3    8 ar 
     8    4    9 1  
     9    5   10 ar 
    10    5   11 ar 
    11    6    9 1  
    12    7   12 1  
    13    7   13 ar 
    14    8   14 ar 
    15    9   15 1  
    16   10   12 1  
    17   10   16 ar 
    18   11   17 ar 
    19   13   18 ar 
    20   14   18 ar 
    21   15   19 1  
    22   16   20 ar 
    23   17   20 ar 
    24   19   21 1  
    25   19   22 1  
    26    4   23 1  
    27    4   24 1  
    28    6   25 1  
    29    6   26 1  
    30    8   27 1  
    31    9   28 1  
    32   11   29 1  
    33   12   30 1  
    34   13   31 1  
    35   14   32 1  
    36   15   33 1  
    37   15   34 1  
    38   16   35 1  
    39   17   36 1  
    40   18   37 1  
    41   19   38 1  
    42   20   39 1  
    43   21   40 1  
    44   21   41 1  
    45   21   42 1  
    46   22   43 1  
@<TRIPOS>SUBSTRUCTURE
     1 0M2         1

