### 
### Created by X-TOOL on Mon Sep 10 21:13:14 2018
### 

@<TRIPOS>MOLECULE
4gja_ligand
   66    69     1     0     0
SMALL
GAST_HUCK


@<TRIPOS>ATOM
      1 C1         34.7300  104.7370   12.5640 C.3       1 0M3        -0.0311
      2 C2         35.3840  105.6830   11.5570 C.ar      1 0M3        -0.0460
      3 C3         35.5120  107.0540   11.8570 C.ar      1 0M3        -0.0588
      4 C4         36.1280  107.9190   10.9210 C.ar      1 0M3        -0.0420
      5 C5         36.6280  107.3860    9.7070 C.ar      1 0M3         0.1011
      6 C6         36.4230  106.0560    9.3700 C.ar      1 0M3        -0.0420
      7 C7         35.7900  105.2200   10.2920 C.ar      1 0M3        -0.0588
      8 S8         37.3540  108.3720    8.4270 S.o2      1 0M3         0.0656
      9 O9         37.7880  107.4810    7.3450 O.2       1 0M3        -0.1512
     10 O10        36.4240  109.4520    8.1170 O.2       1 0M3        -0.1512
     11 N11        38.6350  109.0120    9.2260 N.am      1 0M3        -0.2398
     12 C12        40.0220  108.6900    8.9140 C.3       1 0M3         0.0799
     13 C13        40.8810  109.9810    8.9260 C.3       1 0M3        -0.0132
     14 N14        42.2920  109.6060    8.6870 N.4       1 0M3         0.2302
     15 C15        42.8670  108.6870    9.7000 C.3       1 0M3        -0.0137
     16 C16        42.0720  107.3410    9.7220 C.3       1 0M3         0.0902
     17 C17        40.5550  107.6410    9.9330 C.3       1 0M3        -0.0035
     18 C18        42.6830  106.4140   10.7580 C.2       1 0M3         0.1846
     19 O19        42.0540  106.1440   11.7700 O.2       1 0M3        -0.3966
     20 N20        43.9270  105.9210   10.5060 N.am      1 0M3        -0.2824
     21 C21        44.6660  105.0450   11.4260 C.3       1 0M3         0.0525
     22 C22        45.8450  105.8360   12.0690 C.3       1 0M3         0.0456
     23 C23        45.4700  107.2540   12.5160 C.ar      1 0M3        -0.0269
     24 C24        46.0100  108.3550   11.8040 C.ar      1 0M3        -0.0580
     25 C25        45.6340  109.6670   12.1260 C.ar      1 0M3        -0.0682
     26 C26        44.6770  109.8640   13.1390 C.ar      1 0M3        -0.0685
     27 C27        44.1450  108.7710   13.8720 C.ar      1 0M3        -0.0682
     28 C28        44.5190  107.4630   13.5390 C.ar      1 0M3        -0.0580
     29 C29        46.7530  105.0630   13.0390 C.ar      1 0M3        -0.0269
     30 C30        47.8680  104.3430   12.5540 C.ar      1 0M3        -0.0580
     31 C31        48.6960  103.6210   13.4370 C.ar      1 0M3        -0.0682
     32 C32        48.4160  103.6130   14.8180 C.ar      1 0M3        -0.0685
     33 C33        47.3220  104.3420   15.3170 C.ar      1 0M3        -0.0682
     34 C34        46.4850  105.0490   14.4250 C.ar      1 0M3        -0.0580
     35 H1         34.4893  105.2901   13.4838 H         1 0M3         0.0391
     36 H2         35.4236  103.9166   12.8004 H         1 0M3         0.0391
     37 H3         33.8065  104.3236   12.1325 H         1 0M3         0.0391
     38 H4         35.1412  107.4435   12.7982 H         1 0M3         0.0557
     39 H5         36.2164  108.9788   11.1309 H         1 0M3         0.0619
     40 H6         36.7480  105.6731    8.4093 H         1 0M3         0.0619
     41 H7         35.6063  104.1854   10.0257 H         1 0M3         0.0557
     42 H8         38.4549  109.6583    9.9676 H         1 0M3         0.1677
     43 H9         40.0666  108.2518    7.9060 H         1 0M3         0.0566
     44 H10        40.7894  110.4790    9.9025 H         1 0M3         0.0833
     45 H11        40.5385  110.6624    8.1333 H         1 0M3         0.0833
     46 H12        42.8442  110.4492    8.6781 H         1 0M3         0.2016
     47 H13        42.3498  109.1569    7.7864 H         1 0M3         0.2016
     48 H14        42.8102  109.1586   10.6921 H         1 0M3         0.0842
     49 H15        43.9188  108.4835    9.4504 H         1 0M3         0.0842
     50 H16        42.1792  106.8557    8.7407 H         1 0M3         0.0592
     51 H17        39.9877  106.7066    9.8107 H         1 0M3         0.0314
     52 H18        40.4078  108.0286   10.9519 H         1 0M3         0.0314
     53 H19        44.3645  106.1703    9.6420 H         1 0M3         0.1854
     54 H20        45.0637  104.1830   10.8703 H         1 0M3         0.0567
     55 H21        43.9888  104.6905   12.2170 H         1 0M3         0.0567
     56 H22        46.5115  106.0146   11.2124 H         1 0M3         0.0638
     57 H23        46.7199  108.1809   11.0035 H         1 0M3         0.0561
     58 H24        46.0712  110.5116   11.6057 H         1 0M3         0.0600
     59 H25        44.3398  110.8694   13.3637 H         1 0M3         0.0561
     60 H26        43.4519  108.9480   14.6864 H         1 0M3         0.0600
     61 H27        44.0828  106.6193   14.0614 H         1 0M3         0.0561
     62 H28        48.0886  104.3460   11.4927 H         1 0M3         0.0561
     63 H29        49.5483  103.0718   13.0537 H         1 0M3         0.0600
     64 H30        49.0436  103.0452   15.4953 H         1 0M3         0.0561
     65 H31        47.1216  104.3615   16.3821 H         1 0M3         0.0600
     66 H32        45.6264  105.5874   14.8096 H         1 0M3         0.0561
@<TRIPOS>BOND
     1    1    2 1  
     2    2    3 ar 
     3    2    7 ar 
     4    3    4 ar 
     5    4    5 ar 
     6    5    6 ar 
     7    5    8 1  
     8    6    7 ar 
     9    8    9 2  
    10    8   10 2  
    11    8   11 am 
    12   11   12 1  
    13   12   13 1  
    14   12   17 1  
    15   13   14 1  
    16   14   15 1  
    17   15   16 1  
    18   16   17 1  
    19   16   18 1  
    20   18   19 2  
    21   18   20 am 
    22   20   21 1  
    23   21   22 1  
    24   22   23 1  
    25   22   29 1  
    26   23   24 ar 
    27   23   28 ar 
    28   24   25 ar 
    29   25   26 ar 
    30   26   27 ar 
    31   27   28 ar 
    32   29   30 ar 
    33   29   34 ar 
    34   30   31 ar 
    35   31   32 ar 
    36   32   33 ar 
    37   33   34 ar 
    38    1   35 1  
    39    1   36 1  
    40    1   37 1  
    41    3   38 1  
    42    4   39 1  
    43    6   40 1  
    44    7   41 1  
    45   11   42 1  
    46   12   43 1  
    47   13   44 1  
    48   13   45 1  
    49   14   46 1  
    50   14   47 1  
    51   15   48 1  
    52   15   49 1  
    53   16   50 1  
    54   17   51 1  
    55   17   52 1  
    56   20   53 1  
    57   21   54 1  
    58   21   55 1  
    59   22   56 1  
    60   24   57 1  
    61   25   58 1  
    62   26   59 1  
    63   27   60 1  
    64   28   61 1  
    65   30   62 1  
    66   31   63 1  
    67   32   64 1  
    68   33   65 1  
    69   34   66 1  
@<TRIPOS>SUBSTRUCTURE
     1 0M3         1

