### 
### Created by X-TOOL on Mon Sep 10 21:13:13 2018
### 

@<TRIPOS>MOLECULE
4gjb_ligand
   47    50     1     0     0
SMALL
GAST_HUCK


@<TRIPOS>ATOM
      1 C1          9.1400   22.3740   47.7350 C.ar      1 0ME         0.0057
      2 C2          9.4200   20.9800   47.8780 C.ar      1 0ME         0.1186
      3 O3         10.5090   20.3730   47.2350 O.3       1 0ME        -0.2640
      4 C4          9.9960   23.2340   46.7910 C.3       1 0ME         0.0440
      5 C5          7.2860   22.1470   49.2660 C.ar      1 0ME        -0.0790
      6 C6          7.5350   20.7700   49.3760 C.ar      1 0ME        -0.0768
      7 C7          8.6290   20.1850   48.7110 C.ar      1 0ME        -0.0348
      8 C8          8.0770   22.9650   48.4400 C.ar      1 0ME        -0.0657
      9 C9         11.4050   22.6210   46.7270 C.ar      1 0ME         0.0057
     10 C10        11.5910   21.2200   46.9560 C.ar      1 0ME         0.1186
     11 C11        12.8760   20.6570   46.9120 C.ar      1 0ME        -0.0348
     12 C12        13.9760   21.4940   46.6500 C.ar      1 0ME        -0.0768
     13 C13        13.7980   22.8750   46.4130 C.ar      1 0ME        -0.0790
     14 C14        12.5160   23.4470   46.4630 C.ar      1 0ME        -0.0657
     15 C15         9.3610   23.1950   45.3620 C.3       1 0ME         0.0495
     16 N16         7.9050   23.4540   45.3530 N.am      1 0ME        -0.2830
     17 C17         6.9120   22.5350   45.1120 C.2       1 0ME         0.1845
     18 O18         7.1360   21.3570   44.8450 O.2       1 0ME        -0.3966
     19 C19         5.4690   23.0120   45.1660 C.3       1 0ME         0.0885
     20 C20         4.4500   21.9050   44.7630 C.3       1 0ME        -0.0234
     21 C21         2.9520   22.3190   44.9210 C.3       1 0ME        -0.0101
     22 C22         2.6540   22.8670   46.3450 C.3       1 0ME        -0.0334
     23 N23         3.6410   23.9100   46.6820 N.4       1 0ME         0.2288
     24 C24         5.0680   23.5070   46.5820 C.3       1 0ME        -0.0138
     25 H1         10.0462   24.2702   47.1568 H         1 0ME         0.0591
     26 H2          6.4699   22.5873   49.8274 H         1 0ME         0.0509
     27 H3          6.8791   20.1518   49.9783 H         1 0ME         0.0534
     28 H4          8.8544   19.1330   48.8433 H         1 0ME         0.0527
     29 H5          7.8721   24.0256   48.3490 H         1 0ME         0.0527
     30 H6         13.0184   19.5952   47.0771 H         1 0ME         0.0527
     31 H7         14.9747   21.0729   46.6297 H         1 0ME         0.0534
     32 H8         14.6569   23.4979   46.1909 H         1 0ME         0.0509
     33 H9         12.3829   24.5105   46.3006 H         1 0ME         0.0527
     34 H10         9.5396   22.1996   44.9293 H         1 0ME         0.0561
     35 H11         9.8536   23.9583   44.7417 H         1 0ME         0.0561
     36 H12         7.6138   24.3920   45.5412 H         1 0ME         0.1854
     37 H13         5.3711   23.8499   44.4601 H         1 0ME         0.0591
     38 H14         4.6318   21.0233   45.3951 H         1 0ME         0.0296
     39 H15         4.6253   21.6431   43.7091 H         1 0ME         0.0296
     40 H16         2.3177   21.4392   44.7377 H         1 0ME         0.0318
     41 H17         2.7181   23.0999   44.1824 H         1 0ME         0.0318
     42 H18         2.7213   22.0475   47.0757 H         1 0ME         0.0814
     43 H19         1.6420   23.2973   46.3689 H         1 0ME         0.0814
     44 H20         3.4685   24.2040   47.6306 H         1 0ME         0.2015
     45 H21         3.4948   24.6875   46.0574 H         1 0ME         0.2015
     46 H22         5.6943   24.3739   46.8391 H         1 0ME         0.0842
     47 H23         5.2526   22.6951   47.3009 H         1 0ME         0.0842
@<TRIPOS>BOND
     1    1    2 ar 
     2    1    4 1  
     3    8    1 ar 
     4    2    3 1  
     5    2    7 ar 
     6    3   10 1  
     7    4    9 1  
     8    4   15 1  
     9    5    6 ar 
    10    5    8 ar 
    11    6    7 ar 
    12    9   10 ar 
    13    9   14 ar 
    14   10   11 ar 
    15   11   12 ar 
    16   12   13 ar 
    17   13   14 ar 
    18   15   16 1  
    19   16   17 am 
    20   17   18 2  
    21   17   19 1  
    22   19   20 1  
    23   19   24 1  
    24   20   21 1  
    25   21   22 1  
    26   22   23 1  
    27   23   24 1  
    28    4   25 1  
    29    5   26 1  
    30    6   27 1  
    31    7   28 1  
    32    8   29 1  
    33   11   30 1  
    34   12   31 1  
    35   13   32 1  
    36   14   33 1  
    37   15   34 1  
    38   15   35 1  
    39   16   36 1  
    40   19   37 1  
    41   20   38 1  
    42   20   39 1  
    43   21   40 1  
    44   21   41 1  
    45   22   42 1  
    46   22   43 1  
    47   23   44 1  
    48   23   45 1  
    49   24   46 1  
    50   24   47 1  
@<TRIPOS>SUBSTRUCTURE
     1 0ME         1

