### 
### Created by X-TOOL on Mon Sep 10 21:13:14 2018
### 

@<TRIPOS>MOLECULE
4gjc_ligand
   65    69     1     0     0
SMALL
GAST_HUCK


@<TRIPOS>ATOM
      1 C1         71.0440   10.9620   47.4870 C.3       1 0MJ         0.0440
      2 O2         71.0740    9.9860   50.2050 O.3       1 0MJ        -0.2640
      3 C3         69.7930   10.3490   48.1470 C.ar      1 0MJ         0.0057
      4 C4         71.9260   11.6100   48.5760 C.ar      1 0MJ         0.0057
      5 C5         69.8870    9.8560   49.4720 C.ar      1 0MJ         0.1186
      6 C6         71.9090   11.0780   49.8940 C.ar      1 0MJ         0.1186
      7 C7         71.8440    9.8140   46.7820 C.3       1 0MJ         0.0495
      8 C8         72.7590   12.7190   48.3100 C.ar      1 0MJ        -0.0657
      9 C9         68.5810   10.2640   47.4280 C.ar      1 0MJ        -0.0657
     10 C10        68.7720    9.2870   50.0940 C.ar      1 0MJ        -0.0348
     11 C11        72.7020   11.6650   50.9170 C.ar      1 0MJ        -0.0348
     12 C12        67.4730    9.6570   48.0220 C.ar      1 0MJ        -0.0790
     13 C13        73.5540   13.2890   49.3460 C.ar      1 0MJ        -0.0790
     14 C14        67.5790    9.1940   49.3570 C.ar      1 0MJ        -0.0768
     15 C15        73.5390   12.7620   50.6540 C.ar      1 0MJ        -0.0768
     16 N16        71.0070    8.9470   45.9190 N.am      1 0MJ        -0.2830
     17 C17        70.6180    7.6630   46.2050 C.2       1 0MJ         0.1845
     18 C18        69.6990    6.9480   45.2180 C.3       1 0MJ         0.0902
     19 C19        69.3530    5.4790   45.6260 C.3       1 0MJ        -0.0035
     20 C20        67.1440    5.6380   44.3160 C.3       1 0MJ        -0.0132
     21 N21        67.5050    7.0250   43.9390 N.4       1 0MJ         0.2302
     22 C22        68.4520    4.8290   44.5390 C.3       1 0MJ         0.0799
     23 C23        68.3800    7.7430   44.9100 C.3       1 0MJ        -0.0137
     24 O24        70.9690    7.0630   47.2170 O.2       1 0MJ        -0.3966
     25 N25        68.1680    3.4400   44.8630 N.am      1 0MJ        -0.2398
     26 S26        68.7470    2.1630   44.0140 S.o2      1 0MJ         0.0656
     27 O27        67.6210    1.3080   43.6360 O.2       1 0MJ        -0.1512
     28 O28        69.6140    2.6260   42.9410 O.2       1 0MJ        -0.1512
     29 C29        69.7360    1.3900   45.2780 C.ar      1 0MJ         0.1011
     30 C30        69.1400    0.9430   46.4760 C.ar      1 0MJ        -0.0420
     31 C31        71.3040    0.1210   47.2610 C.ar      1 0MJ        -0.0460
     32 C32        71.8940    0.5550   46.0570 C.ar      1 0MJ        -0.0588
     33 C33        69.9210    0.3110   47.4670 C.ar      1 0MJ        -0.0588
     34 C34        71.1190    1.1910   45.0730 C.ar      1 0MJ        -0.0420
     35 C35        72.1550   -0.5640   48.3420 C.3       1 0MJ        -0.0311
     36 H1         70.7464   11.7207   46.7482 H         1 0MJ         0.0591
     37 H2         72.3082    9.1873   47.5577 H         1 0MJ         0.0561
     38 H3         72.6288   10.2690   46.1599 H         1 0MJ         0.0561
     39 H4         72.7938   13.1392   47.3114 H         1 0MJ         0.0527
     40 H5         68.5114   10.6664   46.4239 H         1 0MJ         0.0527
     41 H6         68.8260    8.9278   51.1154 H         1 0MJ         0.0527
     42 H7         72.6601   11.2578   51.9207 H         1 0MJ         0.0527
     43 H8         66.5467    9.5418   47.4709 H         1 0MJ         0.0509
     44 H9         74.1824   14.1441   49.1245 H         1 0MJ         0.0509
     45 H10        66.7080    8.7519   49.8270 H         1 0MJ         0.0534
     46 H11        74.1562   13.1915   51.4348 H         1 0MJ         0.0534
     47 H12        70.6980    9.3329   45.0498 H         1 0MJ         0.1854
     48 H13        70.2593    6.8876   44.2733 H         1 0MJ         0.0592
     49 H14        68.8194    5.4832   46.5879 H         1 0MJ         0.0314
     50 H15        70.2823    4.8989   45.7247 H         1 0MJ         0.0314
     51 H16        66.5554    5.1760   43.5098 H         1 0MJ         0.0833
     52 H17        66.5518    5.6480   45.2429 H         1 0MJ         0.0833
     53 H18        66.6519    7.5526   43.8396 H         1 0MJ         0.2016
     54 H19        67.9848    6.9919   43.0531 H         1 0MJ         0.2016
     55 H20        69.0128    4.8418   43.5928 H         1 0MJ         0.0566
     56 H21        68.6471    8.7234   44.4888 H         1 0MJ         0.0842
     57 H22        67.8249    7.8862   45.8488 H         1 0MJ         0.0842
     58 H23        67.5835    3.2524   45.6524 H         1 0MJ         0.1677
     59 H24        68.0774    1.0856   46.6360 H         1 0MJ         0.0619
     60 H25        72.9532    0.3970   45.8890 H         1 0MJ         0.0557
     61 H26        69.4584   -0.0286   48.3867 H         1 0MJ         0.0557
     62 H27        71.5837    1.5298   44.1541 H         1 0MJ         0.0619
     63 H28        73.2001   -0.6218   48.0039 H         1 0MJ         0.0391
     64 H29        71.7713   -1.5790   48.5222 H         1 0MJ         0.0391
     65 H30        72.1027    0.0185   49.2736 H         1 0MJ         0.0391
@<TRIPOS>BOND
     1    1    3 1  
     2    1    4 1  
     3    7    1 1  
     4    5    2 1  
     5    6    2 1  
     6    3    5 ar 
     7    3    9 ar 
     8    4    6 ar 
     9    4    8 ar 
    10    5   10 ar 
    11    6   11 ar 
    12   16    7 1  
    13    8   13 ar 
    14    9   12 ar 
    15   10   14 ar 
    16   11   15 ar 
    17   12   14 ar 
    18   13   15 ar 
    19   17   16 am 
    20   18   17 1  
    21   17   24 2  
    22   19   18 1  
    23   18   23 1  
    24   22   19 1  
    25   20   21 1  
    26   22   20 1  
    27   21   23 1  
    28   25   22 1  
    29   26   25 am 
    30   26   27 2  
    31   26   28 2  
    32   29   26 1  
    33   30   29 ar 
    34   29   34 ar 
    35   33   30 ar 
    36   31   32 ar 
    37   31   33 ar 
    38   31   35 1  
    39   32   34 ar 
    40    1   36 1  
    41    7   37 1  
    42    7   38 1  
    43    8   39 1  
    44    9   40 1  
    45   10   41 1  
    46   11   42 1  
    47   12   43 1  
    48   13   44 1  
    49   14   45 1  
    50   15   46 1  
    51   16   47 1  
    52   18   48 1  
    53   19   49 1  
    54   19   50 1  
    55   20   51 1  
    56   20   52 1  
    57   21   53 1  
    58   21   54 1  
    59   22   55 1  
    60   23   56 1  
    61   23   57 1  
    62   25   58 1  
    63   30   59 1  
    64   32   60 1  
    65   33   61 1  
    66   34   62 1  
    67   35   63 1  
    68   35   64 1  
    69   35   65 1  
@<TRIPOS>SUBSTRUCTURE
     1 0MJ         1

