### 
### Created by X-TOOL on Mon Sep 10 21:13:13 2018
### 

@<TRIPOS>MOLECULE
4gjd_ligand
   81    85     1     0     0
SMALL
GAST_HUCK


@<TRIPOS>ATOM
      1 C1         40.9910  110.2090    9.0280 C.3       1 0N0        -0.0132
      2 C2         40.1830  108.8930    9.0120 C.3       1 0N0         0.0799
      3 C3         40.7940  107.8390    9.9820 C.3       1 0N0        -0.0035
      4 C4         42.3240  107.5820    9.7560 C.3       1 0N0         0.0902
      5 C5         43.0570  108.9440    9.6250 C.3       1 0N0        -0.0137
      6 N6         42.3850  109.8820    8.6900 N.4       1 0N0         0.2302
      7 N7         38.7770  109.1170    9.3200 N.am      1 0N0        -0.2398
      8 C8         43.0040  106.7930   10.8690 C.2       1 0N0         0.1830
      9 S9         37.5740  108.3940    8.4720 S.o2      1 0N0         0.0656
     10 C10        36.8920  107.3300    9.7180 C.ar      1 0N0         0.1011
     11 O11        36.6440  109.4570    8.1320 O.2       1 0N0        -0.1512
     12 O12        38.1040  107.5490    7.4050 O.2       1 0N0        -0.1512
     13 C13        36.4230  107.9050   10.9230 C.ar      1 0N0        -0.0420
     14 C14        35.8610  107.0850   11.9250 C.ar      1 0N0        -0.0588
     15 C15        35.7670  105.6950   11.7310 C.ar      1 0N0        -0.0460
     16 C16        36.2190  105.1200   10.5170 C.ar      1 0N0        -0.0588
     17 C17        36.7990  105.9300    9.5180 C.ar      1 0N0        -0.0420
     18 C18        35.1530  104.8210   12.8370 C.3       1 0N0        -0.0311
     19 O19        42.5000  106.7900   11.9770 O.2       1 0N0        -0.3966
     20 N20        44.1710  106.1310   10.6000 N.am      1 0N0        -0.3018
     21 C21        44.9680  105.3800   11.5890 C.3       1 0N0        -0.0102
     22 C22        46.2240  106.1460   12.1570 C.3       1 0N0        -0.0299
     23 O23        45.2210  106.4820   14.8100 O.3       1 0N0        -0.2105
     24 C24        45.7300  107.5380   12.6790 C.ar      1 0N0        -0.0393
     25 C25        45.1890  107.6050   13.9830 C.ar      1 0N0         0.1512
     26 C26        44.6520  108.8030   14.4890 C.ar      1 0N0         0.0000
     27 C27        44.6020  109.9520   13.6760 C.ar      1 0N0        -0.0472
     28 C28        45.1210  109.9280   12.3730 C.ar      1 0N0        -0.0504
     29 C29        45.6760  108.7310   11.8950 C.ar      1 0N0        -0.0586
     30 C30        46.2040  105.5080   14.6370 C.ar      1 0N0         0.1512
     31 C31        46.7410  105.2750   13.3530 C.ar      1 0N0        -0.0393
     32 C32        47.7370  104.2530   13.2560 C.ar      1 0N0        -0.0586
     33 C33        48.1680  103.5020   14.3850 C.ar      1 0N0        -0.0504
     34 C34        47.6400  103.7820   15.6570 C.ar      1 0N0        -0.0472
     35 C35        46.6610  104.7930   15.7670 C.ar      1 0N0         0.0000
     36 C36        47.3030  106.2690   11.0210 C.3       1 0N0        -0.0940
     37 C37        48.5920  107.1100   11.2640 C.3       1 0N0        -0.0646
     38 C38        49.6330  106.9050   10.1290 C.3       1 0N0        -0.0308
     39 C39        49.3140  107.7570    8.8730 C.3       1 0N0         0.0473
     40 O40        50.4640  107.7690    8.0010 O.3       1 0N0        -0.3830
     41 C41        50.1480  107.4150    6.6490 C.3       1 0N0         0.0364
     42 H1         40.9450  110.6647   10.0281 H         1 0N0         0.0833
     43 H2         40.5802  110.9099    8.2864 H         1 0N0         0.0833
     44 H3         40.2398  108.4829    7.9929 H         1 0N0         0.0566
     45 H4         40.2586  106.8883    9.8428 H         1 0N0         0.0314
     46 H5         40.6506  108.1930   11.0136 H         1 0N0         0.0314
     47 H6         42.4368  107.0183    8.8182 H         1 0N0         0.0592
     48 H7         44.0779  108.7580    9.2601 H         1 0N0         0.0842
     49 H8         43.1026  109.4136   10.6187 H         1 0N0         0.0842
     50 H9         42.9127  110.7407    8.6765 H         1 0N0         0.2016
     51 H10        42.3945  109.4673    7.7713 H         1 0N0         0.2016
     52 H11        38.5379  109.7310   10.0722 H         1 0N0         0.1677
     53 H12        36.4954  108.9756   11.0766 H         1 0N0         0.0619
     54 H13        35.5008  107.5277   12.8466 H         1 0N0         0.0557
     55 H14        36.1186  104.0528   10.3553 H         1 0N0         0.0557
     56 H15        37.1713  105.4841    8.6028 H         1 0N0         0.0619
     57 H16        34.8687  105.4549   13.6898 H         1 0N0         0.0391
     58 H17        35.8902  104.0736   13.1654 H         1 0N0         0.0391
     59 H18        34.2608  104.3093   12.4471 H         1 0N0         0.0391
     60 H19        44.5102  106.1583    9.6597 H         1 0N0         0.1833
     61 H20        45.3211  104.4547   11.1102 H         1 0N0         0.0338
     62 H21        44.3116  105.1278   12.4349 H         1 0N0         0.0338
     63 H22        44.2765  108.8417   15.5052 H         1 0N0         0.0631
     64 H23        44.1584  110.8632   14.0607 H         1 0N0         0.0753
     65 H24        45.0940  110.8142   11.7493 H         1 0N0         0.0619
     66 H25        46.0804  108.7108   10.8895 H         1 0N0         0.0724
     67 H26        48.1789  104.0433   12.2886 H         1 0N0         0.0724
     68 H27        48.9030  102.7145   14.2641 H         1 0N0         0.0619
     69 H28        47.9758  103.2357   16.5310 H         1 0N0         0.0753
     70 H29        46.2496  105.0267   16.7423 H         1 0N0         0.0631
     71 H30        46.7973  106.7067   10.1477 H         1 0N0         0.0086
     72 H31        47.6305  105.2467   10.7809 H         1 0N0         0.0086
     73 H32        49.0421  106.8048   12.2201 H         1 0N0         0.0252
     74 H33        48.3198  108.1748   11.3102 H         1 0N0         0.0252
     75 H34        49.6392  105.8429    9.8430 H         1 0N0         0.0287
     76 H35        50.6267  107.1892   10.5055 H         1 0N0         0.0287
     77 H36        49.0734  108.7860    9.1782 H         1 0N0         0.0560
     78 H37        48.4547  107.3216    8.3420 H         1 0N0         0.0560
     79 H38        51.0631  107.4431    6.0392 H         1 0N0         0.0523
     80 H39        49.4158  108.1293    6.2445 H         1 0N0         0.0523
     81 H40        49.7226  106.4009    6.6253 H         1 0N0         0.0523
@<TRIPOS>BOND
     1    2    1 1  
     2    6    1 1  
     3    3    2 1  
     4    2    7 1  
     5    4    3 1  
     6    4    5 1  
     7    8    4 1  
     8    5    6 1  
     9    7    9 am 
    10    8   19 2  
    11   20    8 am 
    12    9   10 1  
    13    9   11 2  
    14    9   12 2  
    15   10   13 ar 
    16   10   17 ar 
    17   13   14 ar 
    18   14   15 ar 
    19   16   15 ar 
    20   15   18 1  
    21   17   16 ar 
    22   21   20 1  
    23   22   21 1  
    24   24   22 1  
    25   22   31 1  
    26   22   36 1  
    27   25   23 1  
    28   23   30 1  
    29   24   25 ar 
    30   24   29 ar 
    31   25   26 ar 
    32   26   27 ar 
    33   27   28 ar 
    34   28   29 ar 
    35   30   31 ar 
    36   30   35 ar 
    37   31   32 ar 
    38   32   33 ar 
    39   33   34 ar 
    40   34   35 ar 
    41   36   37 1  
    42   37   38 1  
    43   38   39 1  
    44   39   40 1  
    45   40   41 1  
    46    1   42 1  
    47    1   43 1  
    48    2   44 1  
    49    3   45 1  
    50    3   46 1  
    51    4   47 1  
    52    5   48 1  
    53    5   49 1  
    54    6   50 1  
    55    6   51 1  
    56    7   52 1  
    57   13   53 1  
    58   14   54 1  
    59   16   55 1  
    60   17   56 1  
    61   18   57 1  
    62   18   58 1  
    63   18   59 1  
    64   20   60 1  
    65   21   61 1  
    66   21   62 1  
    67   26   63 1  
    68   27   64 1  
    69   28   65 1  
    70   29   66 1  
    71   32   67 1  
    72   33   68 1  
    73   34   69 1  
    74   35   70 1  
    75   36   71 1  
    76   36   72 1  
    77   37   73 1  
    78   37   74 1  
    79   38   75 1  
    80   38   76 1  
    81   39   77 1  
    82   39   78 1  
    83   41   79 1  
    84   41   80 1  
    85   41   81 1  
@<TRIPOS>SUBSTRUCTURE
     1 0N0         1

