### 
### Created by X-TOOL on Mon Sep 10 21:13:14 2018
### 

@<TRIPOS>MOLECULE
4gk2_ligand
   51    55     1     0     0
SMALL
GAST_HUCK


@<TRIPOS>ATOM
      1 O2         -0.0950  -17.1840  -12.5760 O.2       1 L66        -0.3613
      2 C17         0.1930  -15.8560  -12.6760 C.2       1 L66         0.3655
      3 N4          0.3040  -15.0810  -11.5650 N.am      1 L66        -0.1713
      4 C16         0.5830  -13.7580  -11.6440 C.2       1 L66         0.2463
      5 O3          0.6910  -12.9940  -10.5240 O.2       1 L66        -0.3810
      6 N5          0.3620  -15.3520  -13.9070 N.am      1 L66        -0.1232
      7 C18         0.2360  -16.1890  -15.1070 C.3       1 L66         0.0769
      8 C2          0.6390  -14.0590  -14.0280 C.2       1 L66         0.2902
      9 C3          0.7640  -13.2230  -12.9160 C.2       1 L66         0.1906
     10 N1          0.8420  -13.3740  -15.1970 N.pl3     1 L66        -0.1463
     11 C1          1.0740  -12.0860  -14.7280 C.2       1 L66         0.3071
     12 N2          1.0630  -11.9590  -13.3810 N.2       1 L66        -0.2727
     13 C4          1.3130  -10.5940  -12.9250 C.2       1 L66         0.0071
     14 N3          1.3970  -10.8950  -15.3300 N.pl3     1 L66        -0.1462
     15 C5          1.4990  -10.0180  -14.3360 C.2       1 L66         0.1106
     16 C10         1.8320   -8.5740  -14.4850 C.ar      1 L66         0.0163
     17 C11         3.0120   -8.0280  -13.9560 C.ar      1 L66        -0.0346
     18 C40         4.0030   -8.8550  -13.1640 C.3       1 L66        -0.0301
     19 C12         3.2870   -6.6790  -14.1600 C.ar      1 L66        -0.0590
     20 C13         2.3930   -5.8920  -14.8810 C.ar      1 L66        -0.0323
     21 C15         0.9510   -7.7810  -15.2210 C.ar      1 L66        -0.0233
     22 C14         1.2370   -6.4360  -15.4180 C.ar      1 L66         0.0870
     23 O41         0.3770   -5.6470  -16.1180 O.3       1 L66        -0.3354
     24 C32         1.4440  -10.6860  -16.6450 C.ar      1 L66         0.1371
     25 C33         2.5980  -10.4820  -17.3960 C.ar      1 L66        -0.0341
     26 C34         2.5570  -10.2830  -18.7750 C.ar      1 L66        -0.0765
     27 C35         1.3570  -10.2660  -19.4800 C.ar      1 L66        -0.0770
     28 C36         0.1650  -10.4610  -18.8060 C.ar      1 L66        -0.0358
     29 C37         0.1770  -10.6600  -17.4300 C.ar      1 L66         0.1278
     30 O38        -1.0120  -10.8640  -16.7710 O.3       1 L66        -0.3206
     31 C39        -2.1870  -10.1360  -17.1260 C.3       1 L66         0.0585
     32 H1          0.1763  -15.4987  -10.6654 H         1 L66         0.2269
     33 H2          0.0061  -17.2230  -14.8103 H         1 L66         0.0644
     34 H3          1.1819  -16.1703  -15.6681 H         1 L66         0.0644
     35 H4         -0.5745  -15.8008  -15.7414 H         1 L66         0.0644
     36 H5          0.8268  -13.7213  -16.1666 H         1 L66         0.2509
     37 H6          1.3532  -10.1439  -11.9342 H         1 L66         0.0499
     38 H7          4.8452   -8.2194  -12.8530 H         1 L66         0.0399
     39 H8          4.3769   -9.6783  -13.7904 H         1 L66         0.0399
     40 H9          3.5069   -9.2680  -12.2733 H         1 L66         0.0399
     41 H10         4.1944   -6.2424  -13.7588 H         1 L66         0.0551
     42 H11         2.6042   -4.8385  -15.0244 H         1 L66         0.0588
     43 H12         0.0477   -8.2124  -15.6371 H         1 L66         0.0541
     44 H13         0.7218   -4.7627  -16.1584 H         1 L66         0.2466
     45 H14         3.5582  -10.4778  -16.8930 H         1 L66         0.0552
     46 H15         3.4863  -10.1373  -19.3138 H         1 L66         0.0510
     47 H16         1.3566  -10.1009  -20.5514 H         1 L66         0.0534
     48 H17        -0.7738  -10.4587  -19.3479 H         1 L66         0.0523
     49 H18        -3.0210  -10.4485  -16.4804 H         1 L66         0.0576
     50 H19        -2.4408  -10.3392  -18.1768 H         1 L66         0.0576
     51 H20        -2.0050   -9.0592  -16.9943 H         1 L66         0.0576
@<TRIPOS>BOND
     1    1    2 2  
     2    2    3 am 
     3    2    6 am 
     4    3    4 am 
     5    4    5 2  
     6    4    9 1  
     7    6    7 1  
     8    6    8 am 
     9    8    9 2  
    10    8   10 1  
    11    9   12 1  
    12   10   11 1  
    13   11   12 2  
    14   11   14 1  
    15   12   13 1  
    16   13   15 2  
    17   14   15 1  
    18   14   24 1  
    19   15   16 1  
    20   16   17 ar 
    21   16   21 ar 
    22   17   18 1  
    23   17   19 ar 
    24   19   20 ar 
    25   20   22 ar 
    26   21   22 ar 
    27   22   23 1  
    28   24   25 ar 
    29   24   29 ar 
    30   25   26 ar 
    31   26   27 ar 
    32   27   28 ar 
    33   28   29 ar 
    34   29   30 1  
    35   30   31 1  
    36    3   32 1  
    37    7   33 1  
    38    7   34 1  
    39    7   35 1  
    40   10   36 1  
    41   13   37 1  
    42   18   38 1  
    43   18   39 1  
    44   18   40 1  
    45   19   41 1  
    46   20   42 1  
    47   21   43 1  
    48   23   44 1  
    49   25   45 1  
    50   26   46 1  
    51   27   47 1  
    52   28   48 1  
    53   31   49 1  
    54   31   50 1  
    55   31   51 1  
@<TRIPOS>SUBSTRUCTURE
     1 L66         1

