### 
### Created by X-TOOL on Mon Sep 10 21:13:13 2018
### 

@<TRIPOS>MOLECULE
4gk3_ligand
   48    51     1     0     0
SMALL
GAST_HUCK


@<TRIPOS>ATOM
      1 O2         18.7420  -16.5270   24.5080 O.2       1 L87        -0.3608
      2 C17        19.0740  -15.3150   24.4500 C.2       1 L87         0.3665
      3 N4         19.2540  -14.6030   25.6000 N.am      1 L87        -0.1714
      4 N5         19.2490  -14.7430   23.2490 N.am      1 L87        -0.1226
      5 C18        19.0580  -15.5040   22.0050 C.3       1 L87         0.0775
      6 C2         19.6030  -13.4580   23.1880 C.2       1 L87         0.2906
      7 C3         19.7960  -12.6890   24.3390 C.2       1 L87         0.1894
      8 C16        19.6110  -13.2910   25.5860 C.2       1 L87         0.2446
      9 O3         19.7550  -12.6890   26.6630 O.2       1 L87        -0.3821
     10 N1         19.8270  -12.7150   22.0430 N.pl3     1 L87        -0.1445
     11 C1         20.1660  -11.4750   22.5910 C.2       1 L87         0.2972
     12 N2         20.1630  -11.4260   23.9250 N.2       1 L87        -0.2724
     13 N3         20.4890  -10.2360   22.0960 N.pl3     1 L87        -0.1856
     14 C6         20.5730  -10.0790   20.6410 C.3       1 L87         0.0657
     15 C7         19.1900  -10.2260   20.0040 C.3       1 L87        -0.0255
     16 C8         18.1610   -9.2710   20.6060 C.3       1 L87        -0.0534
     17 C9         16.7920   -9.5260   20.0090 C.3       1 L87        -0.0652
     18 C5         20.7130   -9.4300   23.1730 C.2       1 L87         0.1011
     19 C4         20.4880  -10.1510   24.3910 C.2       1 L87         0.0072
     20 C10        21.1180   -8.0070   22.9460 C.ar      1 L87         0.0243
     21 C11        22.3610   -7.5320   23.3670 C.ar      1 L87        -0.0249
     22 C26        23.3280   -8.4150   24.1240 C.3       1 L87        -0.0258
     23 C12        22.7280   -6.2110   23.1080 C.ar      1 L87        -0.0524
     24 C13        21.8570   -5.3690   22.4210 C.ar      1 L87        -0.0623
     25 C14        20.6230   -5.8510   21.9860 C.ar      1 L87        -0.0616
     26 C15        20.2560   -7.1670   22.2450 C.ar      1 L87        -0.0498
     27 H1         19.1194  -15.0597   26.4794 H         1 L87         0.2269
     28 H2         18.7704  -16.5376   22.2480 H         1 L87         0.0647
     29 H3         19.9963  -15.5098   21.4309 H         1 L87         0.0647
     30 H4         18.2644  -15.0339   21.4057 H         1 L87         0.0647
     31 H5         19.7617  -12.9986   21.0550 H         1 L87         0.2524
     32 H6         21.2432  -10.8494   20.2321 H         1 L87         0.0613
     33 H7         20.9747   -9.0820   20.4073 H         1 L87         0.0613
     34 H8         18.8415  -11.2586   20.1530 H         1 L87         0.0291
     35 H9         19.2745  -10.0193   18.9269 H         1 L87         0.0291
     36 H10        18.4613   -8.2341   20.3945 H         1 L87         0.0263
     37 H11        18.1164   -9.4251   21.6942 H         1 L87         0.0263
     38 H12        16.0635   -8.8312   20.4523 H         1 L87         0.0230
     39 H13        16.4868  -10.5614   20.2205 H         1 L87         0.0230
     40 H14        16.8317   -9.3704   18.9208 H         1 L87         0.0230
     41 H15        20.5538   -9.7950   25.4181 H         1 L87         0.0511
     42 H16        24.2396   -7.8451   24.3568 H         1 L87         0.0416
     43 H17        23.5886   -9.2872   23.5065 H         1 L87         0.0416
     44 H18        22.8592   -8.7548   25.0593 H         1 L87         0.0416
     45 H19        23.6906   -5.8403   23.4413 H         1 L87         0.0572
     46 H20        22.1379   -4.3406   22.2248 H         1 L87         0.0649
     47 H21        19.9480   -5.1981   21.4445 H         1 L87         0.0584
     48 H22        19.2979   -7.5396   21.9009 H         1 L87         0.0641
@<TRIPOS>BOND
     1    1    2 2  
     2    2    3 am 
     3    2    4 am 
     4    3    8 am 
     5    4    5 1  
     6    4    6 am 
     7    6    7 2  
     8    6   10 1  
     9    7    8 1  
    10    7   12 1  
    11    8    9 2  
    12   10   11 1  
    13   11   12 2  
    14   11   13 1  
    15   12   19 1  
    16   13   14 1  
    17   13   18 1  
    18   14   15 1  
    19   15   16 1  
    20   16   17 1  
    21   18   19 2  
    22   18   20 1  
    23   20   21 ar 
    24   20   26 ar 
    25   21   22 1  
    26   21   23 ar 
    27   23   24 ar 
    28   24   25 ar 
    29   25   26 ar 
    30    3   27 1  
    31    5   28 1  
    32    5   29 1  
    33    5   30 1  
    34   10   31 1  
    35   14   32 1  
    36   14   33 1  
    37   15   34 1  
    38   15   35 1  
    39   16   36 1  
    40   16   37 1  
    41   17   38 1  
    42   17   39 1  
    43   17   40 1  
    44   19   41 1  
    45   22   42 1  
    46   22   43 1  
    47   22   44 1  
    48   23   45 1  
    49   24   46 1  
    50   25   47 1  
    51   26   48 1  
@<TRIPOS>SUBSTRUCTURE
     1 L87         1

