### 
### Created by X-TOOL on Mon Sep 10 21:13:13 2018
### 

@<TRIPOS>MOLECULE
4gk4_ligand
   51    55     1     0     0
SMALL
GAST_HUCK


@<TRIPOS>ATOM
      1 O3         -8.5980    5.3350   47.5880 O.2       1 L90        -0.3821
      2 C16        -8.4230    4.5950   48.5760 C.2       1 L90         0.2446
      3 N4         -8.0360    3.3070   48.4240 N.am      1 L90        -0.1714
      4 C3         -8.6210    5.0460   49.8710 C.2       1 L90         0.1894
      5 N2         -9.0160    6.2600   50.3720 N.2       1 L90        -0.2724
      6 C4         -9.3800    7.5390   49.9740 C.2       1 L90         0.0072
      7 C5         -9.6350    8.1870   51.2230 C.2       1 L90         0.1022
      8 N3         -9.4020    7.3170   52.2550 N.pl3     1 L90        -0.1855
      9 C6         -9.5140    7.3460   53.7160 C.3       1 L90         0.0657
     10 C7         -8.3140    7.9750   54.4080 C.3       1 L90        -0.0255
     11 C8         -6.9770    7.4720   53.8850 C.3       1 L90        -0.0534
     12 C9         -5.8830    8.4300   54.3080 C.3       1 L90        -0.0652
     13 C1         -9.0370    6.1170   51.6900 C.2       1 L90         0.2972
     14 N1         -8.6660    4.8430   52.1400 N.pl3     1 L90        -0.1445
     15 C2         -8.4140    4.1890   50.9470 C.2       1 L90         0.2906
     16 N5         -8.0220    2.9260   50.7560 N.am      1 L90        -0.1226
     17 C18        -7.8020    2.0320   51.8990 C.3       1 L90         0.0775
     18 C17        -7.8310    2.4910   49.4970 C.2       1 L90         0.3665
     19 O2         -7.4640    1.3070   49.3060 O.2       1 L90        -0.3608
     20 C10       -10.0860    9.5990   51.4430 C.ar      1 L90         0.0392
     21 C15        -9.2390   10.4910   52.1030 C.ar      1 L90         0.0447
     22 C29        -7.9160   10.3030   52.5990 C.2       1 L90         0.1108
     23 N28        -7.5770   11.5030   53.1270 N.pl3     1 L90        -0.2449
     24 N27        -8.6430   12.4030   52.9590 N.2       1 L90        -0.3362
     25 C14        -9.6600   11.7890   52.3310 C.ar      1 L90        -0.0142
     26 C13       -10.9170   12.2190   51.9340 C.ar      1 L90        -0.0594
     27 C12       -11.7640   11.3290   51.2950 C.ar      1 L90        -0.0523
     28 C11       -11.3560   10.0220   51.0530 C.ar      1 L90        -0.0238
     29 C26       -12.3210    9.1030   50.3460 C.3       1 L90        -0.0257
     30 H1         -7.8970    2.9450   47.5023 H         1 L90         0.2269
     31 H2         -9.4529    7.9457   48.9664 H         1 L90         0.0511
     32 H3         -9.6208    6.3124   54.0769 H         1 L90         0.0613
     33 H4        -10.4115    7.9227   53.9843 H         1 L90         0.0613
     34 H5         -8.3743    7.7489   55.4828 H         1 L90         0.0291
     35 H6         -8.3581    9.0640   54.2593 H         1 L90         0.0291
     36 H7         -7.0101    7.4135   52.7871 H         1 L90         0.0263
     37 H8         -6.7721    6.4739   54.2994 H         1 L90         0.0263
     38 H9         -4.9143    8.0696   53.9316 H         1 L90         0.0230
     39 H10        -5.8510    8.4883   55.4060 H         1 L90         0.0230
     40 H11        -6.0890    9.4279   53.8937 H         1 L90         0.0230
     41 H12        -8.5986    4.4872   53.1043 H         1 L90         0.2524
     42 H13        -8.0105    2.5735   52.8335 H         1 L90         0.0647
     43 H14        -6.7571    1.6882   51.8998 H         1 L90         0.0647
     44 H15        -8.4735    1.1643   51.8204 H         1 L90         0.0647
     45 H16        -7.3128    9.3971   52.5617 H         1 L90         0.1374
     46 H17        -6.6785   11.7218   53.5807 H         1 L90         0.2935
     47 H18       -11.2327   13.2389   52.1214 H         1 L90         0.0650
     48 H19       -12.7500   11.6529   50.9819 H         1 L90         0.0572
     49 H20       -11.8616    8.1107   50.2265 H         1 L90         0.0416
     50 H21       -12.5628    9.5167   49.3559 H         1 L90         0.0416
     51 H22       -13.2422    9.0113   50.9401 H         1 L90         0.0416
@<TRIPOS>BOND
     1    1    2 2  
     2    2    3 am 
     3    2    4 1  
     4    3   18 am 
     5    4    5 1  
     6    4   15 2  
     7    5    6 1  
     8    5   13 2  
     9    6    7 2  
    10    7    8 1  
    11    7   20 1  
    12    8    9 1  
    13    8   13 1  
    14    9   10 1  
    15   10   11 1  
    16   11   12 1  
    17   13   14 1  
    18   14   15 1  
    19   15   16 am 
    20   16   17 1  
    21   16   18 am 
    22   18   19 2  
    23   20   21 ar 
    24   20   28 ar 
    25   21   22 2  
    26   21   25 ar 
    27   22   23 1  
    28   23   24 1  
    29   24   25 2  
    30   25   26 ar 
    31   26   27 ar 
    32   27   28 ar 
    33   28   29 1  
    34    3   30 1  
    35    6   31 1  
    36    9   32 1  
    37    9   33 1  
    38   10   34 1  
    39   10   35 1  
    40   11   36 1  
    41   11   37 1  
    42   12   38 1  
    43   12   39 1  
    44   12   40 1  
    45   14   41 1  
    46   17   42 1  
    47   17   43 1  
    48   17   44 1  
    49   22   45 1  
    50   23   46 1  
    51   26   47 1  
    52   27   48 1  
    53   29   49 1  
    54   29   50 1  
    55   29   51 1  
@<TRIPOS>SUBSTRUCTURE
     1 L90         1

