### 
### Created by X-TOOL on Mon Sep 10 21:13:11 2018
### 

@<TRIPOS>MOLECULE
4gk7_ligand
   86    86     1     0     0
SMALL
GAST_HUCK


@<TRIPOS>ATOM
      1 C          58.9770 -135.4120   35.0170 C.2       1 MH9         0.1801
      2 O          58.8970 -136.4710   35.6370 O.2       1 MH9        -0.3997
      3 C1         57.6730 -134.9890   34.4270 C.2       1 MH9        -0.0067
      4 C2         57.0810 -133.7970   34.4180 C.2       1 MH9        -0.0636
      5 C3         55.7360 -133.7610   33.7760 C.2       1 MH9        -0.0592
      6 C4         54.6090 -133.6400   34.4870 C.2       1 MH9        -0.0617
      7 C5         53.2200 -133.6540   33.8520 C.3       1 MH9        -0.0138
      8 C6         52.3460 -132.3750   33.9460 C.3       1 MH9        -0.0391
      9 C7         50.9610 -132.7160   33.2490 C.3       1 MH9        -0.0504
     10 C8         49.8740 -131.6040   33.2550 C.3       1 MH9        -0.0528
     11 C9         48.5570 -132.1690   32.5870 C.3       1 MH9        -0.0533
     12 C10        47.3930 -131.1070   32.6000 C.3       1 MH9        -0.0559
     13 C11        46.0720 -131.6660   31.9720 C.3       1 MH9        -0.0653
     14 N          60.2010 -134.7390   34.8940 N.am      1 THR        -0.2680
     15 CA         61.3710 -135.4170   35.5740 C.3       1 THR         0.1553
     16 C          61.1400 -135.4570   37.1050 C.2       1 THR         0.2078
     17 O          60.1390 -134.8960   37.5610 O.2       1 THR        -0.3942
     18 CB         62.7750 -134.6760   35.3430 C.3       1 THR         0.0922
     19 OG1        63.1230 -133.7820   36.3970 O.3       1 THR        -0.3874
     20 CG2        62.8310 -133.8850   34.0300 C.3       1 THR        -0.0346
     21 N          62.0330 -136.1040   37.9310 N.am      1 LYH        -0.2560
     22 CA         61.7810 -136.0920   39.3770 C.3       1 LYH         0.1476
     23 C          63.0180 -136.2700   40.2290 C.2       1 LYH         0.2100
     24 O          64.1100 -136.4860   39.6880 O.2       1 LYH        -0.3920
     25 CB         60.7190 -137.1500   39.7720 C.2       1 LYH        -0.0548
     26 CG         60.9670 -138.4490   40.0070 C.2       1 LYH        -0.0917
     27 CD         59.9170 -139.4470   40.4490 C.3       1 LYH        -0.0154
     28 CE         60.4500 -140.2610   41.7080 C.3       1 LYH         0.0374
     29 NZ         60.2240 -139.4080   42.9060 N.am      1 LYH        -0.2852
     30 N22        62.8020 -136.1800   41.5690 N.am      1 0JT        -0.2803
     31 C18        63.8750 -136.3080   42.5570 C.3       1 0JT         0.0466
     32 C19        64.2640 -134.8880   43.0940 C.3       1 0JT        -0.0235
     33 C21        63.0530 -133.9140   43.3060 C.3       1 0JT        -0.0606
     34 C20        65.2570 -134.2100   42.1000 C.3       1 0JT        -0.0606
     35 C17        63.4180 -137.3090   43.6600 C.3       1 0JT        -0.0127
     36 C16        62.5740 -138.4030   42.9710 C.3       1 0JT         0.0393
     37 C14        61.1450 -138.5610   43.4710 C.2       1 0JT         0.1762
     38 O15        60.8310 -137.9140   44.4490 O.2       1 0JT        -0.3971
     39 H          57.1180 -135.7811   33.9243 H         1 MH9         0.0513
     40 H          57.5463 -132.9106   34.8492 H         1 MH9         0.0698
     41 H          55.6684 -133.8358   32.6907 H         1 MH9         0.0470
     42 H          54.6857 -133.5263   35.5683 H         1 MH9         0.0851
     43 H          52.6659 -134.4171   34.3985 H         1 MH9         0.0499
     44 H          53.3967 -133.7992   32.7863 H         1 MH9         0.0499
     45 H          52.8331 -131.5347   33.4512 H         1 MH9         0.0298
     46 H          52.1960 -132.0828   34.9853 H         1 MH9         0.0298
     47 H          50.5397 -133.5466   33.8154 H         1 MH9         0.0268
     48 H          51.1933 -132.8990   32.1999 H         1 MH9         0.0268
     49 H          50.2291 -130.7394   32.6942 H         1 MH9         0.0265
     50 H          49.6648 -131.2996   34.2805 H         1 MH9         0.0265
     51 H          48.2318 -133.0410   33.1543 H         1 MH9         0.0265
     52 H          48.7795 -132.4211   31.5502 H         1 MH9         0.0265
     53 H          47.7117 -130.2485   32.0089 H         1 MH9         0.0263
     54 H          47.1886 -130.8418   33.6373 H         1 MH9         0.0263
     55 H          46.2565 -131.9531   30.9368 H         1 MH9         0.0230
     56 H          45.7419 -132.5367   32.5386 H         1 MH9         0.0230
     57 H          45.3013 -130.8959   32.0050 H         1 MH9         0.0230
     58 H          60.2956 -133.8600   34.3853 H         1 THR         0.1862
     59 H          61.4238 -136.4109   35.1296 H         1 THR         0.0824
     60 H          63.4915 -135.4968   35.3098 H         1 THR         0.0639
     61 H          63.9686 -133.3719   36.2012 H         1 THR         0.2101
     62 H          62.6739 -134.5635   33.1916 H         1 THR         0.0257
     63 H          62.0519 -133.1227   34.0330 H         1 THR         0.0257
     64 H          63.8068 -133.4086   33.9356 H         1 THR         0.0257
     65 H          62.8494 -136.5798   37.5470 H         1 LYH         0.1906
     66 H          61.4038 -135.0905   39.5839 H         1 LYH         0.0920
     67 H          59.6870 -136.8122   39.8667 H         1 LYH         0.0493
     68 H          61.9875 -138.8072   39.8711 H         1 LYH         0.0463
     69 H          59.7085 -140.1385   39.6327 H         1 LYH         0.0410
     70 H          59.0047 -138.9161   40.7210 H         1 LYH         0.0410
     71 H          61.5087 -140.4949   41.5956 H         1 LYH         0.0540
     72 H          59.9220 -141.2096   41.8052 H         1 LYH         0.0540
     73 H          59.3049 -139.4568   43.3457 H         1 LYH         0.1852
     74 H          61.8512 -136.0162   41.8999 H         1 0JT         0.1856
     75 H          64.7843 -136.7183   42.1177 H         1 0JT         0.0560
     76 H          64.7092 -135.0614   44.0737 H         1 0JT         0.0318
     77 H          62.5393 -133.7630   42.3566 H         1 0JT         0.0233
     78 H          62.3623 -134.3472   44.0295 H         1 0JT         0.0233
     79 H          63.4188 -132.9573   43.6788 H         1 0JT         0.0233
     80 H          66.1537 -134.8230   42.0094 H         1 0JT         0.0233
     81 H          64.7820 -134.1123   41.1238 H         1 0JT         0.0233
     82 H          65.5267 -133.2226   42.4747 H         1 0JT         0.0233
     83 H          62.8300 -136.7960   44.4211 H         1 0JT         0.0312
     84 H          64.2821 -137.7500   44.1570 H         1 0JT         0.0312
     85 H          63.0752 -139.3491   43.1755 H         1 0JT         0.0503
     86 H          62.5003 -138.1161   41.9220 H         1 0JT         0.0503
@<TRIPOS>BOND
     1    1    2 2  
     2    1    3 1  
     3    1   14 am 
     4    3    4 2  
     5    4    5 1  
     6    5    6 2  
     7    6    7 1  
     8    7    8 1  
     9    8    9 1  
    10    9   10 1  
    11   10   11 1  
    12   11   12 1  
    13   12   13 1  
    14   14   15 1  
    15   15   16 1  
    16   15   18 1  
    17   16   17 2  
    18   16   21 am 
    19   18   19 1  
    20   18   20 1  
    21   21   22 1  
    22   22   23 1  
    23   22   25 1  
    24   23   24 2  
    25   23   30 am 
    26   25   26 2  
    27   26   27 1  
    28   27   28 1  
    29   28   29 1  
    30   29   37 am 
    31   30   31 1  
    32   31   32 1  
    33   31   35 1  
    34   32   33 1  
    35   32   34 1  
    36   35   36 1  
    37   36   37 1  
    38   37   38 2  
    39    3   39 1  
    40    4   40 1  
    41    5   41 1  
    42    6   42 1  
    43    7   43 1  
    44    7   44 1  
    45    8   45 1  
    46    8   46 1  
    47    9   47 1  
    48    9   48 1  
    49   10   49 1  
    50   10   50 1  
    51   11   51 1  
    52   11   52 1  
    53   12   53 1  
    54   12   54 1  
    55   13   55 1  
    56   13   56 1  
    57   13   57 1  
    58   14   58 1  
    59   15   59 1  
    60   18   60 1  
    61   19   61 1  
    62   20   62 1  
    63   20   63 1  
    64   20   64 1  
    65   21   65 1  
    66   22   66 1  
    67   25   67 1  
    68   26   68 1  
    69   27   69 1  
    70   27   70 1  
    71   28   71 1  
    72   28   72 1  
    73   29   73 1  
    74   30   74 1  
    75   31   75 1  
    76   32   76 1  
    77   33   77 1  
    78   33   78 1  
    79   33   79 1  
    80   34   80 1  
    81   34   81 1  
    82   34   82 1  
    83   35   83 1  
    84   35   84 1  
    85   36   85 1  
    86   36   86 1  
@<TRIPOS>SUBSTRUCTURE
     1 MH9         1

