### 
### Created by X-TOOL on Mon Sep 10 21:13:10 2018
### 

@<TRIPOS>MOLECULE
4gkc_ligand
   50    50     1     0     0
SMALL
GAST_HUCK


@<TRIPOS>ATOM
      1 C1          7.9800    2.3790    8.0210 C.3       1 RET        -0.0970
      2 C2          8.9130    2.7700    6.8410 C.3       1 RET        -0.1037
      3 C3          8.4530    4.0590    6.1980 C.3       1 RET        -0.0389
      4 C4          8.6790    5.1520    7.1890 C.3       1 RET         0.0374
      5 C5          8.1030    4.8310    8.5530 C.2       1 RET         0.0234
      6 C6          7.7880    3.5930    8.9460 C.2       1 RET        -0.0560
      7 C7          7.2790    3.4680   10.3530 C.2       1 RET        -0.0696
      8 C8          6.5300    2.4410   10.8060 C.2       1 RET        -0.0618
      9 C9          6.0580    2.3590   12.2160 C.2       1 RET        -0.0512
     10 C10         5.2880    1.3270   12.5640 C.2       1 RET        -0.0715
     11 C11         4.7070    1.0200   13.8780 C.2       1 RET        -0.0806
     12 C12         3.7570    0.1150   14.0710 C.2       1 RET        -0.0756
     13 C13         3.2390   -0.2130   15.4260 C.2       1 RET        -0.0610
     14 C14         2.2780   -1.1260   15.5200 C.2       1 RET        -0.0818
     15 C15         1.6780   -1.6730   16.7180 C.3       1 RET        -0.0401
     16 C16         8.6750    1.2140    8.6710 C.3       1 RET        -0.1205
     17 C17         6.6440    1.9500    7.4690 C.3       1 RET        -0.1205
     18 C18         7.9690    6.0800    9.4140 C.3       1 RET         0.0278
     19 C19         6.4570    3.4010   13.2710 C.3       1 RET        -0.0323
     20 C20         3.8310    0.4670   16.6360 C.3       1 RET        -0.0402
     21 H           8.8877    1.9760    6.0946 H         1 RET         0.0062
     22 H           9.9242    2.9090    7.2234 H         1 RET         0.0062
     23 H           7.3988    3.9981    5.9276 H         1 RET         0.0308
     24 H           9.0105    4.2509    5.2812 H         1 RET         0.0308
     25 H           8.1825    6.0487    6.8181 H         1 RET         0.0732
     26 H           9.7550    5.2845    7.3023 H         1 RET         0.0732
     27 H           7.5318    4.2611   11.0567 H         1 RET         0.0605
     28 H           6.2607    1.6424   10.1147 H         1 RET         0.0560
     29 H           5.0596    0.6177   11.7684 H         1 RET         0.0484
     30 H           5.0782    1.5677   14.7443 H         1 RET         0.0518
     31 H           3.3421   -0.4057   13.2080 H         1 RET         0.0522
     32 H           1.8932   -1.5115   14.5758 H         1 RET         0.0575
     33 H           2.4471   -2.1581   17.3190 H         1 RET         0.0401
     34 H           1.2194   -0.8685   17.2930 H         1 RET         0.0401
     35 H           0.9172   -2.4029   16.4411 H         1 RET         0.0401
     36 H           8.0586    0.8332    9.4853 H         1 RET         0.0022
     37 H           8.8304    0.4273    7.9327 H         1 RET         0.0022
     38 H           9.6378    1.5403    9.0643 H         1 RET         0.0022
     39 H           6.7938    1.1654    6.7273 H         1 RET         0.0022
     40 H           6.0219    1.5712    8.2800 H         1 RET         0.0022
     41 H           6.1539    2.8044    7.0021 H         1 RET         0.0022
     42 H           6.9270    6.2072    9.7077 H         1 RET         0.0698
     43 H           8.5885    5.9740   10.3046 H         1 RET         0.0698
     44 H           8.2959    6.9496    8.8438 H         1 RET         0.0698
     45 H           5.5591    3.8640   13.6803 H         1 RET         0.0396
     46 H           7.0121    2.9117   14.0713 H         1 RET         0.0396
     47 H           7.0820    4.1644   12.8076 H         1 RET         0.0396
     48 H           3.0458    1.0001   17.1721 H         1 RET         0.0350
     49 H           4.2757   -0.2822   17.2910 H         1 RET         0.0350
     50 H           4.5976    1.1726   16.3159 H         1 RET         0.0350
@<TRIPOS>BOND
     1    1    2 1  
     2    1    6 1  
     3    1   16 1  
     4    1   17 1  
     5    2    3 1  
     6    3    4 1  
     7    4    5 1  
     8    5    6 2  
     9    5   18 1  
    10    6    7 1  
    11    7    8 2  
    12    8    9 1  
    13    9   10 2  
    14    9   19 1  
    15   10   11 1  
    16   11   12 2  
    17   12   13 1  
    18   13   14 2  
    19   13   20 1  
    20   14   15 1  
    21    2   21 1  
    22    2   22 1  
    23    3   23 1  
    24    3   24 1  
    25    4   25 1  
    26    4   26 1  
    27    7   27 1  
    28    8   28 1  
    29   10   29 1  
    30   11   30 1  
    31   12   31 1  
    32   14   32 1  
    33   15   33 1  
    34   15   34 1  
    35   15   35 1  
    36   16   36 1  
    37   16   37 1  
    38   16   38 1  
    39   17   39 1  
    40   17   40 1  
    41   17   41 1  
    42   18   42 1  
    43   18   43 1  
    44   18   44 1  
    45   19   45 1  
    46   19   46 1  
    47   19   47 1  
    48   20   48 1  
    49   20   49 1  
    50   20   50 1  
@<TRIPOS>SUBSTRUCTURE
     1 RET         1

