### 
### Created by X-TOOL on Mon Sep 10 21:13:09 2018
### 

@<TRIPOS>MOLECULE
4gkh_ligand
   43    46     1     0     0
SMALL
GAST_HUCK


@<TRIPOS>ATOM
      1 N1         83.8230   49.7250  -38.2610 N.ar      1 0J9        -0.2655
      2 C2         82.6670   50.4120  -37.9460 C.ar      1 0J9         0.0567
      3 N3         81.8670   49.8650  -36.9520 N.ar      1 0J9        -0.2672
      4 C4         82.2290   48.7200  -36.3470 C.ar      1 0J9         0.1646
      5 C5         83.3630   48.0550  -36.6530 C.ar      1 0J9         0.0878
      6 C6         84.1410   48.5880  -37.6340 C.ar      1 0J9         0.1276
      7 CAA        79.2050   48.5290  -35.8270 C.3       1 0J9        -0.0310
      8 CAB        79.8920   47.3270  -33.7580 C.3       1 0J9        -0.0310
      9 CAC        80.4420   49.7630  -34.0110 C.3       1 0J9        -0.0310
     10 NAD        85.2640   47.9980  -38.0100 N.pl3     1 0J9        -0.3126
     11 CAE        83.0860   41.8920  -35.3590 C.ar      1 0J9        -0.0614
     12 CAF        82.1250   42.8970  -35.3550 C.ar      1 0J9        -0.0613
     13 CAI        85.6160   46.1390  -35.9440 C.ar      1 0J9        -0.0537
     14 CAJ        84.4260   42.2300  -35.4900 C.ar      1 0J9        -0.0543
     15 CAK        86.1610   43.8240  -35.7580 C.ar      1 0J9        -0.0548
     16 CAL        82.5110   44.2270  -35.4930 C.ar      1 0J9        -0.0537
     17 NAO        82.2350   47.0250  -35.1560 N.2       1 0J9        -0.1910
     18 CAQ        84.2620   45.9450  -35.7120 C.ar      1 0J9         0.0002
     19 CAR        83.4070   47.0120  -35.7830 C.2       1 0J9         0.0744
     20 CAS        84.8070   43.5580  -35.6250 C.ar      1 0J9        -0.0180
     21 CAT        83.8520   44.5900  -35.6280 C.ar      1 0J9        -0.0100
     22 NAW        81.6020   48.0610  -35.3780 N.pl3     1 0J9        -0.1768
     23 CAX        80.3040   48.4290  -34.7530 C.3       1 0J9         0.0838
     24 CAG        86.5740   45.1350  -35.8840 C.ar      1 0J9        -0.0615
     25 H1         82.3976   51.3331  -38.4501 H         1 0J9         0.1030
     26 H2         78.2513   48.8015  -35.3514 H         1 0J9         0.0262
     27 H3         79.0979   47.5585  -36.3335 H         1 0J9         0.0262
     28 H4         79.4806   49.2984  -36.5632 H         1 0J9         0.0262
     29 H5         80.6606   47.2324  -32.9767 H         1 0J9         0.0262
     30 H6         79.7917   46.3702  -34.2913 H         1 0J9         0.0262
     31 H7         78.9297   47.5916  -33.2955 H         1 0J9         0.0262
     32 H8         80.7361   50.5492  -34.7219 H         1 0J9         0.0262
     33 H9         81.2099   49.6699  -33.2290 H         1 0J9         0.0262
     34 H10        79.4790   50.0274  -33.5497 H         1 0J9         0.0262
     35 H11        85.5592   47.1190  -37.5614 H         1 0J9         0.1841
     36 H12        85.8431   48.4177  -38.7513 H         1 0J9         0.1841
     37 H13        82.7913   40.8535  -35.2607 H         1 0J9         0.0617
     38 H14        81.0765   42.6449  -35.2445 H         1 0J9         0.0616
     39 H15        85.9486   47.1413  -36.1885 H         1 0J9         0.0616
     40 H16        85.1802   41.4514  -35.4869 H         1 0J9         0.0622
     41 H17        86.8834   43.0158  -35.7630 H         1 0J9         0.0616
     42 H18        81.7513   45.0002  -35.4957 H         1 0J9         0.0624
     43 H19        87.6293   45.3772  -35.9353 H         1 0J9         0.0616
@<TRIPOS>BOND
     1    2    1 ar 
     2    6    1 ar 
     3    3    2 ar 
     4    4    3 ar 
     5    4    5 ar 
     6   22    4 1  
     7    5    6 ar 
     8   19    5 1  
     9    6   10 1  
    10   23    7 1  
    11   23    8 1  
    12   23    9 1  
    13   12   11 ar 
    14   14   11 ar 
    15   16   12 ar 
    16   18   13 ar 
    17   13   24 ar 
    18   20   14 ar 
    19   20   15 ar 
    20   24   15 ar 
    21   21   16 ar 
    22   17   19 2  
    23   22   17 1  
    24   19   18 1  
    25   18   21 ar 
    26   21   20 ar 
    27   22   23 1  
    28    2   25 1  
    29    7   26 1  
    30    7   27 1  
    31    7   28 1  
    32    8   29 1  
    33    8   30 1  
    34    8   31 1  
    35    9   32 1  
    36    9   33 1  
    37    9   34 1  
    38   10   35 1  
    39   10   36 1  
    40   11   37 1  
    41   12   38 1  
    42   13   39 1  
    43   14   40 1  
    44   15   41 1  
    45   16   42 1  
    46   24   43 1  
@<TRIPOS>SUBSTRUCTURE
     1 0J9         1

