### 
### Created by X-TOOL on Mon Sep 10 21:13:09 2018
### 

@<TRIPOS>MOLECULE
4gki_ligand
   46    49     1     0     0
SMALL
GAST_HUCK


@<TRIPOS>ATOM
      1 N1         35.8280   13.0130   18.8720 N.ar      1 0JN        -0.2661
      2 C2         36.9640   12.2850   18.5260 C.ar      1 0JN         0.0558
      3 N3         37.9860   12.9600   17.8570 N.ar      1 0JN        -0.2691
      4 C4         37.8560   14.2660   17.5620 C.ar      1 0JN         0.1585
      5 C5         36.7510   14.9390   17.9080 C.ar      1 0JN         0.0863
      6 C6         35.7560   14.3120   18.5540 C.ar      1 0JN         0.1272
      7 CAA        40.0280   13.6270   15.4720 C.3       1 0JN        -0.0319
      8 CAB        40.4410   16.0870   15.5090 C.3       1 0JN        -0.0319
      9 CAE        35.6980   18.0990   12.5450 C.ar      1 0JN        -0.0629
     10 CAF        36.7770   18.0670   13.4180 C.ar      1 0JN        -0.0625
     11 CAG        32.6590   17.3480   16.1960 C.ar      1 0JN        -0.0704
     12 CAH        33.7330   17.3170   17.0780 C.ar      1 0JN        -0.0589
     13 CAI        34.4080   17.9260   13.0260 C.ar      1 0JN        -0.0569
     14 CAJ        32.8900   17.5520   14.8440 C.ar      1 0JN        -0.0629
     15 CAR        35.0380   17.4760   16.6270 C.ar      1 0JN        -0.0212
     16 CAS        36.9730   16.1790   17.4600 C.2       1 0JN         0.0551
     17 CAT        34.1900   17.7230   14.3820 C.ar      1 0JN        -0.0240
     18 NAX        38.6810   15.1200   16.9360 N.pl3     1 0JN        -0.1890
     19 CAY        40.0390   14.8770   16.3530 C.3       1 0JN         0.0794
     20 CAC        41.0630   14.6990   17.4770 C.3       1 0JN        -0.0319
     21 NAP        38.1720   16.2080   16.8820 N.2       1 0JN        -0.2101
     22 NAD        34.6800   15.0180   18.8810 N.pl3     1 0JN        -0.3122
     23 CAM        36.0780   17.4410   17.5620 C.3       1 0JN         0.0257
     24 CAU        35.2660   17.6910   15.2650 C.ar      1 0JN        -0.0105
     25 CAK        36.5560   17.8650   14.7730 C.ar      1 0JN        -0.0547
     26 H1         37.0511   11.2319   18.7677 H         1 0JN         0.1029
     27 H2         41.0321   13.4647   15.0532 H         1 0JN         0.0261
     28 H3         39.3066   13.7621   14.6527 H         1 0JN         0.0261
     29 H4         39.7375   12.7550   16.0763 H         1 0JN         0.0261
     30 H5         40.4497   16.9878   16.1403 H         1 0JN         0.0261
     31 H6         39.7180   16.2198   14.6907 H         1 0JN         0.0261
     32 H7         41.4444   15.9240   15.0889 H         1 0JN         0.0261
     33 H8         35.8636   18.2594   11.4858 H         1 0JN         0.0616
     34 H9         37.7857   18.1990   13.0436 H         1 0JN         0.0601
     35 H10        31.6478   17.2136   16.5626 H         1 0JN         0.0595
     36 H11        33.5495   17.1662   18.1357 H         1 0JN         0.0534
     37 H12        33.5681   17.9494   12.3411 H         1 0JN         0.0609
     38 H13        32.0587   17.5781   14.1488 H         1 0JN         0.0544
     39 H14        40.7848   13.8306   18.0923 H         1 0JN         0.0261
     40 H15        41.0798   15.6025   18.1043 H         1 0JN         0.0261
     41 H16        42.0602   14.5359   17.0422 H         1 0JN         0.0261
     42 H17        34.6255   16.0170   18.6360 H         1 0JN         0.1845
     43 H18        33.8999   14.5667   19.3796 H         1 0JN         0.1845
     44 H19        35.6387   17.4733   18.5699 H         1 0JN         0.0596
     45 H20        36.7110   18.3276   17.4092 H         1 0JN         0.0596
     46 H21        37.3976   17.8425   15.4558 H         1 0JN         0.0628
@<TRIPOS>BOND
     1    2    1 ar 
     2    6    1 ar 
     3    3    2 ar 
     4    4    3 ar 
     5    4    5 ar 
     6   18    4 1  
     7    5    6 ar 
     8    5   16 1  
     9    6   22 1  
    10   19    7 1  
    11   19    8 1  
    12    9   10 ar 
    13   13    9 ar 
    14   10   25 ar 
    15   12   11 ar 
    16   11   14 ar 
    17   15   12 ar 
    18   17   13 ar 
    19   17   14 ar 
    20   23   15 1  
    21   15   24 ar 
    22   16   21 2  
    23   16   23 1  
    24   24   17 ar 
    25   18   19 1  
    26   18   21 1  
    27   19   20 1  
    28   24   25 ar 
    29    2   26 1  
    30    7   27 1  
    31    7   28 1  
    32    7   29 1  
    33    8   30 1  
    34    8   31 1  
    35    8   32 1  
    36    9   33 1  
    37   10   34 1  
    38   11   35 1  
    39   12   36 1  
    40   13   37 1  
    41   14   38 1  
    42   20   39 1  
    43   20   40 1  
    44   20   41 1  
    45   22   42 1  
    46   22   43 1  
    47   23   44 1  
    48   23   45 1  
    49   25   46 1  
@<TRIPOS>SUBSTRUCTURE
     1 0JN         1

