### 
### Created by X-TOOL on Mon Sep 10 21:13:14 2018
### 

@<TRIPOS>MOLECULE
4gkm_ligand
   31    32     1     0     0
SMALL
GAST_HUCK


@<TRIPOS>ATOM
      1 OX1       -30.2110  -31.0620    6.7520 O.co2     1 683        -0.5647
      2 CY1       -29.6880  -30.2220    7.5340 C.2       1 683         0.0555
      3 OX2       -30.4070  -29.3430    8.0820 O.co2     1 683        -0.5647
      4 CY2       -28.2270  -30.2750    7.8260 C.ar      1 683         0.0259
      5 CY3       -27.5150  -29.0960    8.0260 C.ar      1 683        -0.0561
      6 CY4       -26.1590  -29.1460    8.3080 C.ar      1 683        -0.0540
      7 C4        -25.3840  -27.8920    8.5370 C.3       1 683        -0.0360
      8 CY5       -25.5070  -30.3640    8.3780 C.ar      1 683        -0.0675
      9 CY6       -26.2130  -31.5340    8.1650 C.ar      1 683        -0.0417
     10 CY0       -27.5740  -31.5050    7.9010 C.ar      1 683         0.0675
     11 N1        -28.3360  -32.6980    7.6700 N.pl3     1 683        -0.2731
     12 CX2       -28.0500  -33.9960    8.2080 C.ar      1 683         0.0727
     13 CX3       -27.1910  -34.1710    9.2840 C.ar      1 683        -0.0360
     14 CX4       -26.9230  -35.4310    9.7910 C.ar      1 683        -0.0697
     15 CX5       -27.5450  -36.5300    9.2260 C.ar      1 683        -0.0705
     16 CX6       -28.4200  -36.3710    8.1640 C.ar      1 683        -0.0580
     17 CX1       -28.6800  -35.1060    7.6510 C.ar      1 683         0.0317
     18 CX0       -29.6200  -34.9730    6.4980 C.2       1 683         0.0568
     19 OY1       -29.9210  -35.9930    5.8210 O.co2     1 683        -0.5647
     20 OY2       -30.1020  -33.8530    6.1860 O.co2     1 683        -0.5647
     21 H         -28.0207  -28.1393    7.9613 H         1 683         0.0559
     22 H         -24.3333  -28.1430    8.7443 H         1 683         0.0369
     23 H         -25.8078  -27.3506    9.3956 H         1 683         0.0369
     24 H         -25.4393  -27.2578    7.6400 H         1 683         0.0369
     25 H         -24.4464  -30.4013    8.5990 H         1 683         0.0550
     26 H         -25.6958  -32.4858    8.2049 H         1 683         0.0523
     27 H         -29.1637  -32.6148    7.0626 H         1 683         0.2092
     28 H         -26.7212  -33.3049    9.7358 H         1 683         0.0536
     29 H         -26.2351  -35.5548   10.6195 H         1 683         0.0606
     30 H         -27.3464  -37.5215    9.6167 H         1 683         0.0520
     31 H         -28.9047  -37.2384    7.7306 H         1 683         0.0619
@<TRIPOS>BOND
     1    1    2 ar 
     2    2    3 ar 
     3    2    4 1  
     4    4    5 ar 
     5    4   10 ar 
     6    5    6 ar 
     7    6    7 1  
     8    6    8 ar 
     9    8    9 ar 
    10    9   10 ar 
    11   10   11 1  
    12   11   12 1  
    13   12   13 ar 
    14   12   17 ar 
    15   13   14 ar 
    16   14   15 ar 
    17   15   16 ar 
    18   16   17 ar 
    19   17   18 1  
    20   18   19 ar 
    21   18   20 ar 
    22    5   21 1  
    23    7   22 1  
    24    7   23 1  
    25    7   24 1  
    26    8   25 1  
    27    9   26 1  
    28   11   27 1  
    29   13   28 1  
    30   14   29 1  
    31   15   30 1  
    32   16   31 1  
@<TRIPOS>SUBSTRUCTURE
     1 683         1

