### 
### Created by X-TOOL on Mon Sep 10 21:13:11 2018
### 

@<TRIPOS>MOLECULE
4glw_ligand
   25    26     1     0     0
SMALL
GAST_HUCK


@<TRIPOS>ATOM
      1 C5        -10.4340   -3.2040  -20.7560 C.ar      1 0XT         0.0918
      2 C6        -12.9480   -2.2240  -20.2890 C.ar      1 0XT         0.1023
      3 C8         -9.0900   -3.7820  -21.0240 C.3       1 0XT        -0.0082
      4 C10       -12.0820   -1.6450  -21.2100 C.ar      1 0XT         0.1210
      5 C11       -14.5520   -0.5980  -20.7280 C.ar      1 0XT         0.1626
      6 C12       -12.5270   -0.5810  -21.8800 C.ar      1 0XT         0.1463
      7 N4        -12.5530   -3.3240  -19.6300 N.ar      1 0XT        -0.2481
      8 N14       -15.7990   -0.0580  -20.5420 N.pl3     1 0XT        -0.3059
      9 N13       -13.7270   -0.0820  -21.6580 N.ar      1 0XT        -0.2361
     10 N9        -14.1480   -1.6870  -20.0490 N.ar      1 0XT        -0.2743
     11 C2        -11.2940   -3.8000  -19.8100 C.ar      1 0XT         0.2010
     12 O1        -10.8890   -4.9020  -19.0730 O.3       1 0XT        -0.2904
     13 C3        -11.8560   -5.6070  -18.3260 C.3       1 0XT         0.0668
     14 N7        -10.8450   -2.1340  -21.4540 N.ar      1 0XT        -0.2692
     15 N15       -11.7000   -0.0360  -22.7910 N.pl3     1 0XT        -0.3070
     16 H          -8.5050   -3.7798  -20.1043 H         1 0XT         0.0419
     17 H          -9.2009   -4.8052  -21.3831 H         1 0XT         0.0419
     18 H          -8.5826   -3.1832  -21.7804 H         1 0XT         0.0419
     19 H         -16.4445   -0.4827  -19.8762 H         1 0XT         0.1842
     20 H         -16.0808    0.7683  -21.0695 H         1 0XT         0.1842
     21 H         -12.3098   -4.9361  -17.5966 H         1 0XT         0.0591
     22 H         -12.6247   -5.9890  -18.9978 H         1 0XT         0.0591
     23 H         -11.3780   -6.4387  -17.8085 H         1 0XT         0.0591
     24 H         -11.9973    0.7798  -23.3262 H         1 0XT         0.1880
     25 H         -10.7758   -0.4387  -22.9463 H         1 0XT         0.1880
@<TRIPOS>BOND
     1    1    3 1  
     2    1   11 ar 
     3   14    1 ar 
     4    2    4 ar 
     5    2    7 ar 
     6   10    2 ar 
     7    4    6 ar 
     8    4   14 ar 
     9    5    8 1  
    10    5    9 ar 
    11    5   10 ar 
    12    6    9 ar 
    13    6   15 1  
    14    7   11 ar 
    15   11   12 1  
    16   12   13 1  
    17    3   16 1  
    18    3   17 1  
    19    3   18 1  
    20    8   19 1  
    21    8   20 1  
    22   13   21 1  
    23   13   22 1  
    24   13   23 1  
    25   15   24 1  
    26   15   25 1  
@<TRIPOS>SUBSTRUCTURE
     1 0XT         1

