### 
### Created by X-TOOL on Mon Sep 10 21:13:14 2018
### 

@<TRIPOS>MOLECULE
4gm3_ligand
   98   100     1     0     0
SMALL
GAST_HUCK


@<TRIPOS>ATOM
      1 CM          4.9690   17.5930  -47.3510 C.3       1 ALQ        -0.0456
      2 CA          5.2500   17.9520  -48.8260 C.3       1 ALQ         0.0428
      3 CB          5.4670   19.4340  -48.8840 C.3       1 ALQ        -0.0456
      4 C           6.4470   17.1070  -49.3250 C.2       1 ALQ         0.1778
      5 O           6.7210   16.1780  -48.5880 O.2       1 ALQ        -0.3969
      6 CAD         8.3630   16.5460  -51.0250 C.3       1 0XL         0.1325
      7 CAE         8.5030   15.2360  -50.0220 C.2       1 0XL         0.2266
      8 CAZ         8.2160   16.0190  -52.5050 C.3       1 0XL        -0.0227
      9 NAC         7.1660   17.3570  -50.5140 N.am      1 0XL        -0.2757
     10 OAG         7.7900   14.2680  -50.2350 O.2       1 0XL        -0.3419
     11 CBA         9.6560   17.3280  -50.7880 C.3       1 0XL        -0.0227
     12 CBD        10.3790   17.7940  -52.0150 C.3       1 0XL        -0.0638
     13 CBE         8.8760   14.7020  -52.9410 C.3       1 0XL        -0.0638
     14 N           9.3510   15.1950  -48.9050 N.am      1 ARG        -0.2629
     15 CA          9.5500   14.0660  -47.9050 C.3       1 ARG         0.1310
     16 C           8.2630   13.1120  -47.6960 C.2       1 ARG         0.2011
     17 O           8.4960   11.9340  -47.4330 O.2       1 ARG        -0.3947
     18 CB          9.8500   14.6640  -46.4650 C.3       1 ARG        -0.0091
     19 CG         10.1760   13.6510  -45.3400 C.3       1 ARG        -0.0156
     20 CD         10.5130   14.2870  -43.9340 C.3       1 ARG         0.0627
     21 NE         11.7790   15.0210  -43.9090 N.pl3     1 ARG        -0.2723
     22 CZ         12.9530   14.3520  -44.3400 C.cat     1 ARG         0.2882
     23 NH1        14.1880   14.7970  -44.4200 N.pl3     1 ARG        -0.2849
     24 NH2        12.7400   13.0090  -44.7330 N.pl3     1 ARG        -0.2849
     25 N           6.9380   13.5980  -47.8020 N.am      1 AC5        -0.2740
     26 O           4.2300   11.3880  -48.9850 O.2       1 AC5        -0.3417
     27 CA          5.6240   12.8660  -47.6460 C.3       1 AC5         0.1332
     28 C           5.1740   12.1790  -48.9890 C.2       1 AC5         0.2282
     29 CB1         5.6310   11.9790  -46.4190 C.3       1 AC5        -0.0199
     30 CB2         4.5180   13.9140  -47.3040 C.3       1 AC5        -0.0199
     31 CG1         5.5120   12.9840  -45.2760 C.3       1 AC5        -0.0516
     32 CG2         4.5460   14.0730  -45.7890 C.3       1 AC5        -0.0516
     33 NAV         5.8420   12.4650  -50.1690 N.am      1 0XM        -0.2591
     34 CBF         5.5010   11.8780  -51.4370 C.3       1 0XM         0.1089
     35 CBG         4.7740   12.7780  -52.4190 C.ar      1 0XM        -0.0066
     36 CBH         6.1840   10.6140  -52.0160 C.ar      1 0XM        -0.0066
     37 CBI         5.4680    9.4530  -52.3360 C.ar      1 0XM        -0.0561
     38 CBJ         6.1070    8.3180  -52.8350 C.ar      1 0XM        -0.0681
     39 CBK         7.4910    8.3030  -53.0190 C.ar      1 0XM        -0.0685
     40 CBL         8.2350    9.4470  -52.6970 C.ar      1 0XM        -0.0681
     41 CBM         7.5920   10.5840  -52.2020 C.ar      1 0XM        -0.0561
     42 CBN         4.0560   12.1890  -53.4610 C.ar      1 0XM        -0.0561
     43 CBO         3.3700   12.9720  -54.3760 C.ar      1 0XM        -0.0681
     44 CBP         3.3800   14.3540  -54.2570 C.ar      1 0XM        -0.0685
     45 CBQ         4.0810   14.9520  -53.2240 C.ar      1 0XM        -0.0681
     46 CBR         4.7640   14.1700  -52.3040 C.ar      1 0XM        -0.0561
     47 H1          4.1193   18.1877  -46.9844 H         1 ALQ         0.0257
     48 H2          5.8596   17.8130  -46.7440 H         1 ALQ         0.0257
     49 H3          4.7278   16.5226  -47.2737 H         1 ALQ         0.0257
     50 H4          4.3733   17.7028  -49.4418 H         1 ALQ         0.0532
     51 H5          5.6715   19.7342  -49.9223 H         1 ALQ         0.0257
     52 H6          6.3234   19.7044  -48.2488 H         1 ALQ         0.0257
     53 H7          4.5654   19.9510  -48.5236 H         1 ALQ         0.0257
     54 H8          8.6217   16.8046  -53.1594 H         1 0XL         0.0275
     55 H9          7.1379   15.9064  -52.6921 H         1 0XL         0.0275
     56 H10         6.8684   18.1314  -51.0723 H         1 0XL         0.1838
     57 H11        10.3407   16.6811  -50.2199 H         1 0XL         0.0275
     58 H12         9.4069   18.2153  -50.1875 H         1 0XL         0.0275
     59 H13        11.2870   18.3404  -51.7202 H         1 0XL         0.0229
     60 H14         9.7235   18.4589  -52.5965 H         1 0XL         0.0229
     61 H15        10.6573   16.9248  -52.6290 H         1 0XL         0.0229
     62 H16         8.6551   14.5149  -54.0022 H         1 0XL         0.0229
     63 H17         8.4808   13.8749  -52.3329 H         1 0XL         0.0229
     64 H18         9.9646   14.7732  -52.8001 H         1 0XL         0.0229
     65 H19         9.8972   16.0172  -48.7449 H         1 ARG         0.1889
     66 H20        10.3993   13.4548  -48.2444 H         1 ARG         0.0802
     67 H21         8.9640   15.2354  -46.1512 H         1 ARG         0.0314
     68 H22        10.7099   15.3434  -46.5598 H         1 ARG         0.0314
     69 H23        11.0438   13.0556  -45.6601 H         1 ARG         0.0301
     70 H24         9.3049   12.9912  -45.2142 H         1 ARG         0.0301
     71 H25        10.5658   13.4781  -43.1905 H         1 ARG         0.0689
     72 H26         9.7037   14.9812  -43.6638 H         1 ARG         0.0689
     73 H27        11.8164   15.9985  -43.5866 H         1 ARG         0.2642
     74 H28        14.9379   14.1771  -44.7579 H         1 ARG         0.2615
     75 H29        14.4053   15.7655  -44.1447 H         1 ARG         0.2615
     76 H30        11.7937   12.6044  -44.6922 H         1 ARG         0.2615
     77 H31        13.5313   12.4364  -45.0598 H         1 ARG         0.2615
     78 H32         6.8588   14.5726  -48.0117 H         1 AC5         0.1839
     79 H33         6.5682   11.4075  -46.3483 H         1 AC5         0.0277
     80 H34         4.7778   11.2848  -46.4268 H         1 AC5         0.0277
     81 H35         3.5328   13.5513  -47.6323 H         1 AC5         0.0277
     82 H36         4.7368   14.8745  -47.7934 H         1 AC5         0.0277
     83 H37         6.4946   13.4198  -45.0424 H         1 AC5         0.0265
     84 H38         5.1031   12.4988  -44.3775 H         1 AC5         0.0265
     85 H39         3.5406   13.9236  -45.3684 H         1 AC5         0.0265
     86 H40         4.9136   15.0727  -45.5144 H         1 AC5         0.0265
     87 H41         6.6019   13.1143  -50.1372 H         1 0XM         0.1913
     88 H42         4.6109   11.3481  -51.0670 H         1 0XM         0.0882
     89 H43         4.3936    9.4364  -52.1926 H         1 0XM         0.0561
     90 H44         5.5233    7.4387  -53.0824 H         1 0XM         0.0600
     91 H45         7.9839    7.4184  -53.4058 H         1 0XM         0.0561
     92 H46         9.3105    9.4491  -52.8324 H         1 0XM         0.0600
     93 H47         8.1792   11.4610  -51.9548 H         1 0XM         0.0561
     94 H48         4.0347   11.1093  -53.5555 H         1 0XM         0.0561
     95 H49         2.8242   12.5032  -55.1868 H         1 0XM         0.0600
     96 H50         2.8399   14.9645  -54.9716 H         1 0XM         0.0561
     97 H51         4.0963   16.0321  -53.1339 H         1 0XM         0.0600
     98 H52         5.2957   14.6443  -51.4871 H         1 0XM         0.0561
@<TRIPOS>BOND
     1    2    1 1  
     2    2    3 1  
     3    4    2 1  
     4    4    5 2  
     5    9    4 am 
     6    7    6 1  
     7    6    8 1  
     8    6    9 1  
     9    6   11 1  
    10    7   10 2  
    11   14    7 am 
    12    8   13 1  
    13   11   12 1  
    14   15   14 1  
    15   16   15 1  
    16   15   18 1  
    17   16   17 2  
    18   25   16 am 
    19   18   19 1  
    20   19   20 1  
    21   20   21 1  
    22   21   22 ar 
    23   22   23 ar 
    24   22   24 ar 
    25   27   25 1  
    26   28   26 2  
    27   27   28 1  
    28   27   29 1  
    29   27   30 1  
    30   28   33 am 
    31   29   31 1  
    32   30   32 1  
    33   31   32 1  
    34   33   34 1  
    35   34   35 1  
    36   34   36 1  
    37   35   42 ar 
    38   35   46 ar 
    39   36   37 ar 
    40   36   41 ar 
    41   37   38 ar 
    42   38   39 ar 
    43   39   40 ar 
    44   40   41 ar 
    45   42   43 ar 
    46   43   44 ar 
    47   44   45 ar 
    48   45   46 ar 
    49    1   47 1  
    50    1   48 1  
    51    1   49 1  
    52    2   50 1  
    53    3   51 1  
    54    3   52 1  
    55    3   53 1  
    56    8   54 1  
    57    8   55 1  
    58    9   56 1  
    59   11   57 1  
    60   11   58 1  
    61   12   59 1  
    62   12   60 1  
    63   12   61 1  
    64   13   62 1  
    65   13   63 1  
    66   13   64 1  
    67   14   65 1  
    68   15   66 1  
    69   18   67 1  
    70   18   68 1  
    71   19   69 1  
    72   19   70 1  
    73   20   71 1  
    74   20   72 1  
    75   21   73 1  
    76   23   74 1  
    77   23   75 1  
    78   24   76 1  
    79   24   77 1  
    80   25   78 1  
    81   29   79 1  
    82   29   80 1  
    83   30   81 1  
    84   30   82 1  
    85   31   83 1  
    86   31   84 1  
    87   32   85 1  
    88   32   86 1  
    89   33   87 1  
    90   34   88 1  
    91   37   89 1  
    92   38   90 1  
    93   39   91 1  
    94   40   92 1  
    95   41   93 1  
    96   42   94 1  
    97   43   95 1  
    98   44   96 1  
    99   45   97 1  
   100   46   98 1  
@<TRIPOS>SUBSTRUCTURE
     1 ALQ         1

