### 
### Created by X-TOOL on Mon Sep 10 21:13:14 2018
### 

@<TRIPOS>MOLECULE
4gm8_ligand
   98   100     1     0     0
SMALL
GAST_HUCK


@<TRIPOS>ATOM
      1 CM         11.7350  -16.8730   34.4450 C.3       1 ALQ        -0.0456
      2 CA         11.1110  -16.6020   35.7810 C.3       1 ALQ         0.0428
      3 CB         10.7210  -17.8690   36.5170 C.3       1 ALQ        -0.0456
      4 C          11.9750  -15.6460   36.6390 C.2       1 ALQ         0.1778
      5 O          11.4910  -14.4070   36.4730 O.2       1 ALQ        -0.3969
      6 CAD        13.9720  -15.3790   38.0480 C.3       1 0XL         0.1325
      7 CAE        14.1320  -13.9720   37.3840 C.2       1 0XL         0.2266
      8 CAZ        13.3920  -15.0970   39.3910 C.3       1 0XL        -0.0227
      9 NAC        12.9970  -16.2690   37.3390 N.am      1 0XL        -0.2757
     10 OAG        13.7480  -12.9950   38.2300 O.2       1 0XL        -0.3419
     11 CBA        15.3010  -16.0680   38.1310 C.3       1 0XL        -0.0227
     12 CBD        16.1120  -15.3900   39.2060 C.3       1 0XL        -0.0638
     13 CBE        12.9840  -16.3230   40.1760 C.3       1 0XL        -0.0638
     14 N          14.6350  -14.0690   36.0990 N.am      1 ARG        -0.2629
     15 CA         14.9360  -12.8250   35.3180 C.3       1 ARG         0.1310
     16 C          13.7580  -11.8300   35.1560 C.2       1 ARG         0.2011
     17 O          14.2240  -10.5780   35.1610 O.2       1 ARG        -0.3947
     18 CB         15.5140  -13.2370   33.9930 C.3       1 ARG        -0.0091
     19 CG         16.3220  -12.1190   33.4070 C.3       1 ARG        -0.0156
     20 CD         16.1910  -12.2530   31.8960 C.3       1 ARG         0.0627
     21 NE         16.9820  -13.4220   31.4410 N.pl3     1 ARG        -0.2723
     22 CZ         18.3580  -13.3430   31.5470 C.cat     1 ARG         0.2882
     23 NH1        18.9570  -12.1060   31.5420 N.pl3     1 ARG        -0.2849
     24 NH2        19.5040  -14.0550   31.4820 N.pl3     1 ARG        -0.2849
     25 N          12.5470  -12.4880   35.0840 N.am      1 AC5        -0.2740
     26 O           9.7810  -10.0890   35.9010 O.2       1 AC5        -0.3417
     27 CA         11.2500  -11.7260   34.9630 C.3       1 AC5         0.1332
     28 C          10.8550  -10.8370   36.2020 C.2       1 AC5         0.2281
     29 CB1        11.3400  -10.8800   33.7510 C.3       1 AC5        -0.0199
     30 CB2        10.2330  -12.7350   34.6660 C.3       1 AC5        -0.0199
     31 CG1        11.1060  -11.8700   32.6350 C.3       1 AC5        -0.0516
     32 CG2        10.6160  -13.1480   33.2600 C.3       1 AC5        -0.0516
     33 NAV        11.6680  -10.9500   37.3420 N.am      1 0XN        -0.2602
     34 CBF        11.1850  -10.2050   38.5280 C.3       1 0XN         0.1053
     35 CBG        10.6010  -11.2820   39.4180 C.ar      1 0XN        -0.0110
     36 CBH        12.2530   -9.3180   39.1850 C.ar      1 0XN        -0.0110
     37 CBI        12.1970   -7.9280   38.9420 C.ar      1 0XN        -0.0579
     38 CBJ        13.1380   -7.0530   39.5040 C.ar      1 0XN        -0.0345
     39 CBK        14.1450   -7.5780   40.3110 C.ar      1 0XN         0.1251
     40 CBL        14.2170   -8.9660   40.5580 C.ar      1 0XN        -0.0345
     41 CBM        13.2650   -9.8440   39.9910 C.ar      1 0XN        -0.0579
     42 CBN         9.4510  -11.1280   40.1840 C.ar      1 0XN        -0.0579
     43 CBO         8.9950  -12.2300   40.9360 C.ar      1 0XN        -0.0345
     44 CBP         9.6810  -13.4570   40.8900 C.ar      1 0XN         0.1251
     45 CBQ        10.8020  -13.5940   40.1050 C.ar      1 0XN        -0.0345
     46 CBR        11.2580  -12.5070   39.3600 C.ar      1 0XN        -0.0579
     47 F01        15.0380   -6.7430   40.8400 F         1 0XN        -0.1891
     48 F02         9.2940  -14.5200   41.5890 F         1 0XN        -0.1891
     49 H1         11.0901  -17.5542   33.8705 H         1 ALQ         0.0257
     50 H2         12.7221  -17.3367   34.5886 H         1 ALQ         0.0257
     51 H3         11.8506  -15.9271   33.8956 H         1 ALQ         0.0257
     52 H4         10.1712  -16.0674   35.5784 H         1 ALQ         0.0532
     53 H5         10.2707  -17.6065   37.4857 H         1 ALQ         0.0257
     54 H6         11.6160  -18.4863   36.6840 H         1 ALQ         0.0257
     55 H7          9.9933  -18.4333   35.9154 H         1 ALQ         0.0257
     56 H8         12.5010  -14.4668   39.2534 H         1 0XL         0.0275
     57 H9         14.1421  -14.5482   39.9793 H         1 0XL         0.0275
     58 H10        13.0795  -17.2651   37.3693 H         1 0XL         0.1838
     59 H11        15.8224  -15.9905   37.1655 H         1 0XL         0.0275
     60 H12        15.1564  -17.1283   38.3856 H         1 0XL         0.0275
     61 H13        17.0944  -15.8782   39.2870 H         1 0XL         0.0229
     62 H14        15.5837  -15.4675   40.1677 H         1 0XL         0.0229
     63 H15        16.2497  -14.3297   38.9476 H         1 0XL         0.0229
     64 H16        12.5696  -16.0153   41.1474 H         1 0XL         0.0229
     65 H17        13.8633  -16.9636   40.3388 H         1 0XL         0.0229
     66 H18        12.2222  -16.8822   39.6130 H         1 0XL         0.0229
     67 H19        14.7976  -14.9676   35.6915 H         1 ARG         0.1889
     68 H20        15.7191  -12.2835   35.8689 H         1 ARG         0.0802
     69 H21        14.6956  -13.4929   33.3040 H         1 ARG         0.0314
     70 H22        16.1606  -14.1152   34.1366 H         1 ARG         0.0314
     71 H23        17.3759  -12.2102   33.7087 H         1 ARG         0.0301
     72 H24        15.9280  -11.1475   33.7400 H         1 ARG         0.0301
     73 H25        16.5698  -11.3411   31.4113 H         1 ARG         0.0689
     74 H26        15.1336  -12.3978   31.6295 H         1 ARG         0.0689
     75 H27        16.5231  -14.2618   31.0601 H         1 ARG         0.2642
     76 H28        19.9812  -12.0294   31.6201 H         1 ARG         0.2615
     77 H29        18.3817  -11.2556   31.4601 H         1 ARG         0.2615
     78 H30        19.4705  -15.0843   31.4650 H         1 ARG         0.2615
     79 H31        20.4113  -13.5686   31.4494 H         1 ARG         0.2615
     80 H32        12.5286  -13.4874   35.1125 H         1 AC5         0.1839
     81 H33        12.3327  -10.4140   33.6657 H         1 AC5         0.0277
     82 H34        10.5668  -10.0976   33.7554 H         1 AC5         0.0277
     83 H35         9.2207  -12.3058   34.6966 H         1 AC5         0.0277
     84 H36        10.2930  -13.5831   35.3639 H         1 AC5         0.0277
     85 H37        12.0451  -12.0533   32.0923 H         1 AC5         0.0265
     86 H38        10.3501  -11.4788   31.9381 H         1 AC5         0.0265
     87 H39         9.7451  -13.5422   32.7158 H         1 AC5         0.0265
     88 H40        11.4121  -13.9069   33.2770 H         1 AC5         0.0265
     89 H41        12.5084  -11.4918   37.3522 H         1 0XN         0.1912
     90 H42        10.3716   -9.5337   38.2154 H         1 0XN         0.0866
     91 H43        11.4120   -7.5299   38.3093 H         1 0XN         0.0552
     92 H44        13.0828   -5.9872   39.3139 H         1 0XN         0.0587
     93 H45        15.0071   -9.3611   41.1863 H         1 0XN         0.0587
     94 H46        13.3198  -10.9101   40.1791 H         1 0XN         0.0552
     95 H47         8.9182  -10.1841   40.2026 H         1 0XN         0.0552
     96 H48         8.1098  -12.1309   41.5538 H         1 0XN         0.0587
     97 H49        11.3278  -14.5411   40.0657 H         1 0XN         0.0587
     98 H50        12.1329  -12.6175   38.7296 H         1 0XN         0.0552
@<TRIPOS>BOND
     1    2    1 1  
     2    2    3 1  
     3    4    2 1  
     4    4    5 2  
     5    9    4 am 
     6    7    6 1  
     7    6    8 1  
     8    6    9 1  
     9    6   11 1  
    10    7   10 2  
    11   14    7 am 
    12    8   13 1  
    13   11   12 1  
    14   15   14 1  
    15   16   15 1  
    16   15   18 1  
    17   16   17 2  
    18   25   16 am 
    19   18   19 1  
    20   19   20 1  
    21   20   21 1  
    22   21   22 ar 
    23   22   23 ar 
    24   22   24 ar 
    25   27   25 1  
    26   28   26 2  
    27   27   28 1  
    28   27   29 1  
    29   27   30 1  
    30   28   33 am 
    31   29   31 1  
    32   30   32 1  
    33   31   32 1  
    34   33   34 1  
    35   34   35 1  
    36   34   36 1  
    37   35   42 ar 
    38   35   46 ar 
    39   36   37 ar 
    40   36   41 ar 
    41   37   38 ar 
    42   38   39 ar 
    43   39   40 ar 
    44   39   47 1  
    45   40   41 ar 
    46   42   43 ar 
    47   43   44 ar 
    48   44   45 ar 
    49   44   48 1  
    50   45   46 ar 
    51    1   49 1  
    52    1   50 1  
    53    1   51 1  
    54    2   52 1  
    55    3   53 1  
    56    3   54 1  
    57    3   55 1  
    58    8   56 1  
    59    8   57 1  
    60    9   58 1  
    61   11   59 1  
    62   11   60 1  
    63   12   61 1  
    64   12   62 1  
    65   12   63 1  
    66   13   64 1  
    67   13   65 1  
    68   13   66 1  
    69   14   67 1  
    70   15   68 1  
    71   18   69 1  
    72   18   70 1  
    73   19   71 1  
    74   19   72 1  
    75   20   73 1  
    76   20   74 1  
    77   21   75 1  
    78   23   76 1  
    79   23   77 1  
    80   24   78 1  
    81   24   79 1  
    82   25   80 1  
    83   29   81 1  
    84   29   82 1  
    85   30   83 1  
    86   30   84 1  
    87   31   85 1  
    88   31   86 1  
    89   32   87 1  
    90   32   88 1  
    91   33   89 1  
    92   34   90 1  
    93   37   91 1  
    94   38   92 1  
    95   40   93 1  
    96   41   94 1  
    97   42   95 1  
    98   43   96 1  
    99   45   97 1  
   100   46   98 1  
@<TRIPOS>SUBSTRUCTURE
     1 ALQ         1

