### 
### Created by X-TOOL on Mon Sep 10 21:13:15 2018
### 

@<TRIPOS>MOLECULE
4gmc_ligand
   74    79     1     0     0
SMALL
GAST_HUCK


@<TRIPOS>ATOM
      1 C1        -23.7390  -16.9060  -30.4580 C.ar      1 1BI         0.0339
      2 C2        -25.1170  -16.4000  -30.3710 C.ar      1 1BI        -0.0256
      3 C3        -25.4360  -15.2330  -29.5410 C.ar      1 1BI         0.0683
      4 C4        -24.3710  -14.5790  -28.8020 C.ar      1 1BI        -0.0193
      5 C5        -22.9840  -15.0910  -28.8910 C.ar      1 1BI        -0.0721
      6 C6        -22.6790  -16.2420  -29.7170 C.ar      1 1BI        -0.0623
      7 N7        -26.6680  -14.5510  -29.2710 N.pl3     1 1BI        -0.2512
      8 C8        -26.3920  -13.4590  -28.3610 C.2       1 1BI         0.0510
      9 C9        -24.9700  -13.4670  -28.0540 C.2       1 1BI        -0.0367
     10 C10       -24.1970  -12.4700  -27.1050 C.3       1 1BI        -0.0242
     11 C11       -23.6280  -13.2220  -25.8400 C.3       1 1BI        -0.0459
     12 C12       -22.8280  -12.2870  -24.8900 C.3       1 1BI        -0.0517
     13 C13       -21.7070  -11.5070  -25.6380 C.3       1 1BI        -0.0528
     14 C14       -22.1990  -10.7850  -26.9340 C.3       1 1BI        -0.0517
     15 C15       -23.0310  -11.7060  -27.8750 C.3       1 1BI        -0.0459
     16 C16       -27.4060  -12.5220  -27.8210 C.2       1 1BI        -0.0012
     17 C17       -28.3030  -11.6950  -28.5600 C.2       1 1BI        -0.0568
     18 C18       -29.0540  -11.0020  -27.6220 C.2       1 1BI         0.0793
     19 O19       -28.6700  -11.3540  -26.3470 O.3       1 1BI        -0.2675
     20 C20       -27.6650  -12.2810  -26.4780 C.2       1 1BI         0.0900
     21 C21       -23.4120  -18.1240  -31.3290 C.2       1 1BI         0.2155
     22 O22       -22.3100  -18.7340  -31.3910 O.2       1 1BI        -0.3878
     23 N23       -24.6520  -18.4370  -32.1050 N.am      1 1BI        -0.1548
     24 C24       -28.0340  -14.9010  -29.8410 C.3       1 1BI         0.1370
     25 C25       -28.1640  -14.8130  -31.4120 C.2       1 1BI         0.2072
     26 O26       -27.1990  -14.3680  -32.0980 O.2       1 1BI        -0.3940
     27 N27       -29.4010  -15.2500  -32.0850 N.am      1 1BI        -0.2667
     28 C28       -30.5940  -15.7920  -31.2890 C.3       1 1BI         0.0574
     29 C29       -31.9150  -15.0640  -31.6930 C.3       1 1BI         0.0681
     30 O30       -32.0850  -14.9480  -33.2580 O.3       1 1BI        -0.3758
     31 C31       -30.8040  -14.4420  -34.0300 C.3       1 1BI         0.0681
     32 C32       -29.5080  -15.1680  -33.5850 C.3       1 1BI         0.0574
     33 S36       -24.6160  -19.6160  -33.0980 S.o2      1 1BI         0.0902
     34 O37       -23.9480  -20.6830  -32.5770 O.2       1 1BI        -0.1456
     35 O38       -25.9110  -19.9610  -33.3870 O.2       1 1BI        -0.1456
     36 C39       -23.7770  -19.0350  -34.6060 C.ar      1 1BI         0.1131
     37 C40       -22.3630  -18.7910  -34.5770 C.ar      1 1BI        -0.0347
     38 C41       -21.6830  -18.3310  -35.7470 C.ar      1 1BI        -0.0599
     39 C42       -22.4290  -18.1140  -36.9600 C.ar      1 1BI        -0.0616
     40 C43       -23.8520  -18.3590  -36.9960 C.ar      1 1BI        -0.0599
     41 C44       -24.5240  -18.8180  -35.8160 C.ar      1 1BI        -0.0347
     42 H1        -25.9057  -16.8947  -30.9262 H         1 1BI         0.0592
     43 H2        -22.1924  -14.6019  -28.3350 H         1 1BI         0.0534
     44 H3        -21.6607  -16.6078  -29.7823 H         1 1BI         0.0547
     45 H4        -24.9173  -11.7161  -26.7546 H         1 1BI         0.0385
     46 H5        -22.9624  -14.0286  -26.1810 H         1 1BI         0.0282
     47 H6        -24.4705  -13.6539  -25.2799 H         1 1BI         0.0282
     48 H7        -22.3676  -12.8964  -24.0984 H         1 1BI         0.0267
     49 H8        -23.5222  -11.5630  -24.4384 H         1 1BI         0.0267
     50 H9        -20.9157  -12.2186  -25.9164 H         1 1BI         0.0265
     51 H10       -21.2954  -10.7500  -24.9542 H         1 1BI         0.0265
     52 H11       -21.3197  -10.4237  -27.4875 H         1 1BI         0.0267
     53 H12       -22.8248   -9.9292  -26.6406 H         1 1BI         0.0267
     54 H13       -23.4775  -11.0886  -28.6684 H         1 1BI         0.0282
     55 H14       -22.3581  -12.4508  -28.3249 H         1 1BI         0.0282
     56 H15       -28.3823  -11.6222  -29.6437 H         1 1BI         0.0330
     57 H16       -29.8358  -10.2822  -27.8598 H         1 1BI         0.0968
     58 H17       -27.1459  -12.7583  -25.6482 H         1 1BI         0.0982
     59 H18       -25.4835  -17.8951  -31.9828 H         1 1BI         0.2135
     60 H19       -28.7701  -14.2115  -29.4020 H         1 1BI         0.0834
     61 H20       -28.2719  -15.9318  -29.5396 H         1 1BI         0.0834
     62 H21       -30.4111  -15.6354  -30.2157 H         1 1BI         0.0545
     63 H22       -30.7009  -16.8683  -31.4896 H         1 1BI         0.0545
     64 H23       -31.9060  -14.0516  -31.2629 H         1 1BI         0.0580
     65 H24       -32.7675  -15.6277  -31.2861 H         1 1BI         0.0580
     66 H25       -30.6845  -13.3644  -33.8442 H         1 1BI         0.0580
     67 H26       -30.9514  -14.6144  -35.1063 H         1 1BI         0.0580
     68 H27       -29.5110  -16.1874  -33.9982 H         1 1BI         0.0545
     69 H28       -28.6393  -14.6169  -33.9745 H         1 1BI         0.0545
     70 H29       -21.8069  -18.9567  -33.6614 H         1 1BI         0.0637
     71 H30       -20.6150  -18.1470  -35.7217 H         1 1BI         0.0618
     72 H31       -21.9195  -17.7649  -37.8509 H         1 1BI         0.0618
     73 H32       -24.4094  -18.1965  -37.9114 H         1 1BI         0.0618
     74 H33       -25.5923  -19.0011  -35.8354 H         1 1BI         0.0637
@<TRIPOS>BOND
     1    1    2 ar 
     2    1    6 ar 
     3    1   21 1  
     4    2    3 ar 
     5    3    4 ar 
     6    3    7 1  
     7    4    5 ar 
     8    4    9 1  
     9    5    6 ar 
    10    7    8 1  
    11    7   24 1  
    12    8    9 2  
    13    8   16 1  
    14    9   10 1  
    15   10   11 1  
    16   10   15 1  
    17   11   12 1  
    18   12   13 1  
    19   13   14 1  
    20   14   15 1  
    21   16   17 1  
    22   16   20 2  
    23   17   18 2  
    24   18   19 1  
    25   19   20 1  
    26   21   22 2  
    27   21   23 am 
    28   23   33 am 
    29   24   25 1  
    30   25   26 2  
    31   25   27 am 
    32   27   28 1  
    33   27   32 1  
    34   28   29 1  
    35   29   30 1  
    36   30   31 1  
    37   31   32 1  
    38   33   34 2  
    39   33   35 2  
    40   33   36 1  
    41   36   37 ar 
    42   36   41 ar 
    43   37   38 ar 
    44   38   39 ar 
    45   39   40 ar 
    46   40   41 ar 
    47    2   42 1  
    48    5   43 1  
    49    6   44 1  
    50   10   45 1  
    51   11   46 1  
    52   11   47 1  
    53   12   48 1  
    54   12   49 1  
    55   13   50 1  
    56   13   51 1  
    57   14   52 1  
    58   14   53 1  
    59   15   54 1  
    60   15   55 1  
    61   17   56 1  
    62   18   57 1  
    63   20   58 1  
    64   23   59 1  
    65   24   60 1  
    66   24   61 1  
    67   28   62 1  
    68   28   63 1  
    69   29   64 1  
    70   29   65 1  
    71   31   66 1  
    72   31   67 1  
    73   32   68 1  
    74   32   69 1  
    75   37   70 1  
    76   38   71 1  
    77   39   72 1  
    78   40   73 1  
    79   41   74 1  
@<TRIPOS>SUBSTRUCTURE
     1 1BI         1

