### 
### Created by X-TOOL on Mon Sep 10 21:13:13 2018
### 

@<TRIPOS>MOLECULE
4gmy_ligand
   36    38     1     0     0
SMALL
GAST_HUCK


@<TRIPOS>ATOM
      1 C4         11.9250  -22.7630    4.8800 C.ar      1 0X5         0.0841
      2 C5         11.7070  -21.9000    3.7930 C.ar      1 0X5         0.0614
      3 C6         12.2370  -20.6260    3.8140 C.ar      1 0X5        -0.0422
      4 C11         9.3480  -25.5150    5.1040 C.ar      1 0X5         0.0712
      5 C8         11.3780  -24.1440    4.9180 C.2       1 0X5         0.2361
      6 C12         9.9140  -26.7900    5.1580 C.ar      1 0X5        -0.0298
      7 C13         9.1120  -27.9070    5.2740 C.ar      1 0X5        -0.0225
      8 C3         12.6700  -22.2890    5.9710 C.ar      1 0X5         0.0614
      9 C1         12.9740  -20.1800    4.8910 C.ar      1 0X5        -0.0567
     10 C2         13.1910  -21.0120    5.9690 C.ar      1 0X5        -0.0422
     11 CL1        10.7840  -22.3710    2.4030 Cl        1 0X5        -0.0647
     12 O9         12.1390  -25.0940    4.8570 O.2       1 0X5        -0.3713
     13 N10        10.0460  -24.3040    5.0250 N.am      1 0X5        -0.2284
     14 N14         7.7960  -27.7790    5.3270 N.ar      1 0X5        -0.3064
     15 C15         7.2090  -26.5890    5.2760 C.ar      1 0X5         0.1203
     16 C16         7.9720  -25.4420    5.1870 C.ar      1 0X5         0.0035
     17 N17         5.8170  -26.4890    5.3460 N.am      1 0X5        -0.2222
     18 C18         5.1060  -25.4200    4.8970 C.2       1 0X5         0.2102
     19 O19         5.5920  -24.4300    4.3790 O.2       1 0X5        -0.3827
     20 C20         3.6150  -25.4250    5.0160 C.3       1 0X5         0.0556
     21 C21         2.9590  -24.0660    5.2620 C.3       1 0X5        -0.0303
     22 C22         2.8970  -24.7110    3.8800 C.3       1 0X5        -0.0303
     23 CL2        12.9570  -23.2980    7.3520 Cl        1 0X5        -0.0647
     24 H1         12.0714  -19.9654    2.9706 H         1 0X5         0.0636
     25 H2         10.9909  -26.9034    5.1085 H         1 0X5         0.0479
     26 H3          9.5614  -28.8923    5.3218 H         1 0X5         0.0727
     27 H4         13.3825  -19.1759    4.8901 H         1 0X5         0.0652
     28 H5         13.7713  -20.6623    6.8152 H         1 0X5         0.0636
     29 H6          9.4964  -23.4690    5.0508 H         1 0X5         0.2294
     30 H7          7.4853  -24.4734    5.1822 H         1 0X5         0.0459
     31 H8          5.3121  -27.2510    5.7515 H         1 0X5         0.2302
     32 H9          3.2329  -26.3501    5.4722 H         1 0X5         0.0544
     33 H10         3.5828  -23.1750    5.4264 H         1 0X5         0.0294
     34 H11         2.0507  -23.9965    5.8785 H         1 0X5         0.0294
     35 H12         1.9428  -25.1046    3.4997 H         1 0X5         0.0294
     36 H13         3.4750  -24.2831    3.0476 H         1 0X5         0.0294
@<TRIPOS>BOND
     1    1    2 ar 
     2    5    1 1  
     3    1    8 ar 
     4    2    3 ar 
     5    2   11 1  
     6    3    9 ar 
     7    4    6 ar 
     8   13    4 1  
     9    4   16 ar 
    10    5   12 2  
    11    5   13 am 
    12    6    7 ar 
    13    7   14 ar 
    14    8   10 ar 
    15    8   23 1  
    16    9   10 ar 
    17   14   15 ar 
    18   15   16 ar 
    19   15   17 1  
    20   17   18 am 
    21   18   19 2  
    22   18   20 1  
    23   20   21 1  
    24   20   22 1  
    25   21   22 1  
    26    3   24 1  
    27    6   25 1  
    28    7   26 1  
    29    9   27 1  
    30   10   28 1  
    31   13   29 1  
    32   16   30 1  
    33   17   31 1  
    34   20   32 1  
    35   21   33 1  
    36   21   34 1  
    37   22   35 1  
    38   22   36 1  
@<TRIPOS>SUBSTRUCTURE
     1 0X5         1

