### 
### Created by X-TOOL on Mon Sep 10 21:13:14 2018
### 

@<TRIPOS>MOLECULE
4gny_ligand
   42    41     1     0     0
SMALL
GAST_HUCK


@<TRIPOS>ATOM
      1 S          25.8550   41.9890   17.5910 S.o2      1 SDS        -0.0737
      2 O1S        26.0360   42.8360   16.4370 O.co2     1 SDS        -0.4611
      3 O2S        25.1200   40.7540   17.2560 O.3       1 SDS        -0.2658
      4 O3S        27.1480   41.6690   18.2190 O.co2     1 SDS        -0.4611
      5 O4         25.0610   42.8460   18.4380 O.co2     1 SDS        -0.4611
      6 C1         23.8260   40.7930   16.7640 C.3       1 SDS         0.0737
      7 C2         22.2520   28.4280   20.6220 C.3       1 SDS        -0.0653
      8 C3         22.5030   29.8840   20.3940 C.3       1 SDS        -0.0559
      9 C4         23.1210   30.1190   19.0630 C.3       1 SDS        -0.0533
     10 C5         23.7960   31.4470   19.0030 C.3       1 SDS        -0.0531
     11 C6         22.8720   32.5990   19.2180 C.3       1 SDS        -0.0531
     12 C7         23.3880   33.7660   18.4360 C.3       1 SDS        -0.0531
     13 C8         22.7940   35.0660   18.8480 C.3       1 SDS        -0.0531
     14 C9         23.4400   36.1220   18.0190 C.3       1 SDS        -0.0531
     15 C10        22.8300   37.4630   18.2380 C.3       1 SDS        -0.0530
     16 C11        23.6520   38.4760   17.5130 C.3       1 SDS        -0.0509
     17 C12        22.9680   39.8040   17.4880 C.3       1 SDS        -0.0273
     18 H1         23.8374   40.5478   15.6917 H         1 SDS         0.0583
     19 H2         23.4140   41.8031   16.9048 H         1 SDS         0.0583
     20 H3         21.7954   28.2854   21.6125 H         1 SDS         0.0230
     21 H4         23.2046   27.8799   20.5751 H         1 SDS         0.0230
     22 H5         21.5713   28.0474   19.8463 H         1 SDS         0.0230
     23 H6         23.1804   30.2584   21.1756 H         1 SDS         0.0263
     24 H7         21.5472   30.4258   20.4468 H         1 SDS         0.0263
     25 H8         22.3367   30.0812   18.2926 H         1 SDS         0.0265
     26 H9         23.8637   29.3311   18.8692 H         1 SDS         0.0265
     27 H10        24.2619   31.5555   18.0125 H         1 SDS         0.0265
     28 H11        24.5745   31.4765   19.7796 H         1 SDS         0.0265
     29 H12        22.8374   32.8538   20.2875 H         1 SDS         0.0265
     30 H13        21.8620   32.3358   18.8709 H         1 SDS         0.0265
     31 H14        23.1602   33.6006   17.3726 H         1 SDS         0.0265
     32 H15        24.4780   33.8223   18.5730 H         1 SDS         0.0265
     33 H16        22.9905   35.2501   19.9145 H         1 SDS         0.0265
     34 H17        21.7084   35.0583   18.6711 H         1 SDS         0.0265
     35 H18        23.3331   35.8536   16.9576 H         1 SDS         0.0265
     36 H19        24.5077   36.1722   18.2788 H         1 SDS         0.0265
     37 H20        22.8175   37.6948   19.3132 H         1 SDS         0.0265
     38 H21        21.8011   37.4716   17.8490 H         1 SDS         0.0265
     39 H22        23.8132   38.1352   16.4796 H         1 SDS         0.0266
     40 H23        24.6225   38.5811   18.0201 H         1 SDS         0.0266
     41 H24        22.0017   39.7091   16.9711 H         1 SDS         0.0288
     42 H25        22.8001   40.1494   18.5188 H         1 SDS         0.0288
@<TRIPOS>BOND
     1    1    2 ar 
     2    3    1 1  
     3    1    4 ar 
     4    1    5 ar 
     5    6    3 1  
     6   17    6 1  
     7    8    7 1  
     8    9    8 1  
     9   10    9 1  
    10   11   10 1  
    11   12   11 1  
    12   13   12 1  
    13   14   13 1  
    14   15   14 1  
    15   16   15 1  
    16   16   17 1  
    17    6   18 1  
    18    6   19 1  
    19    7   20 1  
    20    7   21 1  
    21    7   22 1  
    22    8   23 1  
    23    8   24 1  
    24    9   25 1  
    25    9   26 1  
    26   10   27 1  
    27   10   28 1  
    28   11   29 1  
    29   11   30 1  
    30   12   31 1  
    31   12   32 1  
    32   13   33 1  
    33   13   34 1  
    34   14   35 1  
    35   14   36 1  
    36   15   37 1  
    37   15   38 1  
    38   16   39 1  
    39   16   40 1  
    40   17   41 1  
    41   17   42 1  
@<TRIPOS>SUBSTRUCTURE
     1 SDS         1

