### 
### Created by X-TOOL on Mon Sep 10 21:13:08 2018
### 

@<TRIPOS>MOLECULE
4gq4_ligand
   48    51     1     0     0
SMALL
GAST_HUCK


@<TRIPOS>ATOM
      1 FAC        -6.7250    6.4740   11.9360 F         1 0RT        -0.1681
      2 CAZ        -6.3090    7.8100   12.1970 C.3       1 0RT         0.4027
      3 FAD        -6.6780    8.2860   10.9120 F         1 0RT        -0.1681
      4 FAE        -5.1690    7.8840   12.3710 F         1 0RT        -0.1681
      5 CAM        -7.3680    8.3500   13.1430 C.3       1 0RT         0.0918
      6 CAT        -8.7670    8.2900   12.8530 C.2       1 0RT         0.0295
      7 SAR        -9.6990    6.8110   12.9990 S.3       1 0RT        -0.0086
      8 CAG        -9.6040    9.2380   12.3110 C.2       1 0RT        -0.0561
      9 C5        -10.9070    8.9110   12.0560 C.ar      1 0RT         0.0334
     10 C4        -11.0540    7.5130   12.3840 C.ar      1 0RT         0.1043
     11 N3        -12.2200    6.9060   12.1920 N.ar      1 0RT        -0.2823
     12 C2        -13.2060    7.5450   11.6540 C.ar      1 0RT         0.0547
     13 N1        -13.1800    8.8850   11.3140 N.ar      1 0RT        -0.2686
     14 C6        -12.0660    9.5380   11.5870 C.ar      1 0RT         0.1241
     15 NAY       -12.0760   10.9060   11.2930 N.pl3     1 0RT        -0.2833
     16 CAK       -11.2120   11.8840   11.9440 C.3       1 0RT         0.0596
     17 CAI       -12.0880   12.9190   12.6080 C.3       1 0RT         0.0843
     18 CAJ       -13.2880   11.4210   10.6250 C.3       1 0RT         0.0596
     19 CAH       -13.1780   12.8960   10.2840 C.3       1 0RT         0.0843
     20 NAX       -12.9050   13.6350   11.6360 N.2       1 0RT        -0.2453
     21 CAS       -13.6200   14.7320   11.9520 C.2       1 0RT         0.3266
     22 SAQ       -13.5210   15.3680   13.5070 S.3       1 0RT         0.0617
     23 CBA       -14.3170   16.8820   13.0350 C.3       1 0RT         0.0814
     24 CAA       -15.4050   17.1500   14.0430 C.3       1 0RT        -0.0422
     25 CAB       -13.2810   17.9190   12.8620 C.3       1 0RT        -0.0422
     26 CAL       -15.0390   16.5660   11.7470 C.3       1 0RT         0.0886
     27 NAN       -14.3650   15.4460   11.1260 N.pl3     1 0RT        -0.2055
     28 H1         -7.1326    9.4147   13.2875 H         1 0RT         0.0558
     29 H2         -7.2307    7.8120   14.0925 H         1 0RT         0.0558
     30 H3         -9.2330   10.2372   12.0877 H         1 0RT         0.0290
     31 H4        -14.1169    6.9920   11.4554 H         1 0RT         0.0981
     32 H5        -10.5665   12.3672   11.1958 H         1 0RT         0.0554
     33 H6        -10.5875   11.3848   12.6994 H         1 0RT         0.0554
     34 H7        -11.4488   13.6408   13.1375 H         1 0RT         0.0628
     35 H8        -12.7496   12.4169   13.3293 H         1 0RT         0.0628
     36 H9        -14.1488   11.2764   11.2944 H         1 0RT         0.0554
     37 H10       -13.4470   10.8545    9.6956 H         1 0RT         0.0554
     38 H11       -14.1160   13.2551    9.8354 H         1 0RT         0.0628
     39 H12       -12.3478   13.0647    9.5824 H         1 0RT         0.0628
     40 H13       -15.9236   18.0846   13.7830 H         1 0RT         0.0248
     41 H14       -14.9614   17.2435   15.0452 H         1 0RT         0.0248
     42 H15       -16.1241   16.3176   14.0364 H         1 0RT         0.0248
     43 H16       -13.7562   18.8667   12.5687 H         1 0RT         0.0248
     44 H17       -12.5751   17.6051   12.0789 H         1 0RT         0.0248
     45 H18       -12.7396   18.0581   13.8094 H         1 0RT         0.0248
     46 H19       -15.0096   17.4384   11.0776 H         1 0RT         0.0661
     47 H20       -16.0855   16.3020   11.9595 H         1 0RT         0.0661
     48 H21       -14.4580   15.2239   10.1245 H         1 0RT         0.2597
@<TRIPOS>BOND
     1    1    2 1  
     2    2    3 1  
     3    2    4 1  
     4    2    5 1  
     5    5    6 1  
     6    6    7 1  
     7    6    8 2  
     8    7   10 1  
     9    8    9 1  
    10    9   10 ar 
    11    9   14 ar 
    12   10   11 ar 
    13   11   12 ar 
    14   12   13 ar 
    15   13   14 ar 
    16   14   15 1  
    17   15   16 1  
    18   15   18 1  
    19   16   17 1  
    20   17   20 1  
    21   18   19 1  
    22   19   20 1  
    23   20   21 2  
    24   21   22 1  
    25   21   27 1  
    26   22   23 1  
    27   23   24 1  
    28   23   25 1  
    29   23   26 1  
    30   26   27 1  
    31    5   28 1  
    32    5   29 1  
    33    8   30 1  
    34   12   31 1  
    35   16   32 1  
    36   16   33 1  
    37   17   34 1  
    38   17   35 1  
    39   18   36 1  
    40   18   37 1  
    41   19   38 1  
    42   19   39 1  
    43   24   40 1  
    44   24   41 1  
    45   24   42 1  
    46   25   43 1  
    47   25   44 1  
    48   25   45 1  
    49   26   46 1  
    50   26   47 1  
    51   27   48 1  
@<TRIPOS>SUBSTRUCTURE
     1 0RT         1

