### 
### Created by X-TOOL on Mon Sep 10 21:13:14 2018
### 

@<TRIPOS>MOLECULE
4gqp_ligand
   27    27     1     0     0
SMALL
GAST_HUCK


@<TRIPOS>ATOM
      1 N          -2.2240   -2.0410   15.2970 N.4       1 B40         0.2282
      2 CA         -2.8150   -3.4030   15.5240 C.3       1 B40        -0.0162
      3 C          -1.6300   -4.3280   15.3530 C.3       1 B40        -0.0197
      4 CB         -3.3150   -3.6640   17.0270 C.3       1 B40         0.0238
      5 CG         -4.0300   -4.9260   17.2130 C.ar      1 B40        -0.0377
      6 CD1        -3.3680   -6.0190   17.7230 C.ar      1 B40        -0.0601
      7 CD2        -5.4040   -5.0520   16.9880 C.ar      1 B40        -0.0601
      8 CE1        -4.0710   -7.1960   17.9670 C.ar      1 B40        -0.0686
      9 CE2        -6.1350   -6.2430   17.1710 C.ar      1 B40        -0.0686
     10 CZ         -5.4650   -7.3510   17.6720 C.ar      1 B40        -0.0687
     11 CM         -3.3880   -1.0880   15.2610 C.3       1 B40        -0.0445
     12 H1         -1.7239   -2.0170   14.4221 H         1 B40         0.2015
     13 H2         -1.5972   -1.8008   16.0490 H         1 B40         0.2015
     14 H3         -3.6235   -3.6044   14.8058 H         1 B40         0.0871
     15 H4         -1.9533   -5.3691   15.5002 H         1 B40         0.0286
     16 H5         -0.8578   -4.0756   16.0946 H         1 B40         0.0286
     17 H6         -1.2174   -4.2120   14.3399 H         1 B40         0.0286
     18 H7         -3.9870   -2.8419   17.3141 H         1 B40         0.0481
     19 H8         -2.4352   -3.6661   17.6872 H         1 B40         0.0481
     20 H9         -2.3060   -5.9643   17.9335 H         1 B40         0.0557
     21 H10        -5.9435   -4.1746   16.6500 H         1 B40         0.0557
     22 H11        -3.5387   -8.0348   18.4006 H         1 B40         0.0599
     23 H12        -7.1902   -6.2925   16.9276 H         1 B40         0.0599
     24 H13        -5.9749   -8.2939   17.8333 H         1 B40         0.0559
     25 H14        -3.0192   -0.0648   15.0963 H         1 B40         0.0777
     26 H15        -3.9287   -1.1333   16.2179 H         1 B40         0.0777
     27 H16        -4.0669   -1.3692   14.4425 H         1 B40         0.0777
@<TRIPOS>BOND
     1    1    2 1  
     2    1   11 1  
     3    2    3 1  
     4    2    4 1  
     5    4    5 1  
     6    5    6 ar 
     7    5    7 ar 
     8    6    8 ar 
     9    7    9 ar 
    10    8   10 ar 
    11    9   10 ar 
    12    1   12 1  
    13    1   13 1  
    14    2   14 1  
    15    3   15 1  
    16    3   16 1  
    17    3   17 1  
    18    4   18 1  
    19    4   19 1  
    20    6   20 1  
    21    7   21 1  
    22    8   22 1  
    23    9   23 1  
    24   10   24 1  
    25   11   25 1  
    26   11   26 1  
    27   11   27 1  
@<TRIPOS>SUBSTRUCTURE
     1 B40         1

