### 
### Created by X-TOOL on Mon Sep 10 21:13:10 2018
### 

@<TRIPOS>MOLECULE
4gqq_ligand
   27    27     1     0     0
SMALL
GAST_HUCK


@<TRIPOS>ATOM
      1 C5'         9.8770  -20.8740  121.0190 C.3       1 0XR        -0.0374
      2 C4'         9.1890  -19.5740  120.5900 C.3       1 0XR         0.0721
      3 O2'         8.9770  -19.6330  119.1750 O.3       1 0XR        -0.2816
      4 C3'         8.1490  -18.6400  118.7540 C.2       1 0XR         0.2442
      5 O1'         7.6920  -17.8230  119.5530 O.2       1 0XR        -0.3669
      6 C2'         7.7870  -18.5770  117.2690 C.2       1 0XR         0.0162
      7 C1'         7.1010  -17.2520  116.9400 C.2       1 0XR        -0.0475
      8 C1          6.6500  -17.1900  115.4820 C.ar      1 0XR        -0.0328
      9 C2          6.8780  -18.2440  114.6040 C.ar      1 0XR        -0.0287
     10 C6          5.9350  -16.0760  115.0580 C.ar      1 0XR        -0.0672
     11 C5          5.4390  -16.0160  113.7590 C.ar      1 0XR        -0.0342
     12 C4          5.6610  -17.0740  112.8840 C.ar      1 0XR         0.1232
     13 O4          5.1780  -17.0180  111.6150 O.3       1 0XR        -0.3320
     14 C3          6.3800  -18.1870  113.3050 C.ar      1 0XR         0.1218
     15 O3          6.5700  -19.2190  112.4400 O.3       1 0XR        -0.3356
     16 H1         10.0522  -20.8551  122.1048 H         1 0XR         0.0255
     17 H2         10.8389  -20.9703  120.4941 H         1 0XR         0.0255
     18 H3          9.2340  -21.7299  120.7662 H         1 0XR         0.0255
     19 H4          9.8289  -18.7139  120.8362 H         1 0XR         0.0607
     20 H5          8.2240  -19.4734  121.1083 H         1 0XR         0.0607
     21 H6          7.9900  -19.3666  116.5470 H         1 0XR         0.0617
     22 H7          6.9515  -16.4479  117.6591 H         1 0XR         0.0733
     23 H8          7.4431  -19.1095  114.9307 H         1 0XR         0.0541
     24 H9          5.7633  -15.2518  115.7408 H         1 0XR         0.0547
     25 H10         4.8810  -15.1468  113.4301 H         1 0XR         0.0531
     26 H11         4.2320  -16.9347  111.6408 H         1 0XR         0.2473
     27 H12         7.0749  -19.9006  112.8679 H         1 0XR         0.2444
@<TRIPOS>BOND
     1    1    2 1  
     2    2    3 1  
     3    3    4 1  
     4    4    5 2  
     5    4    6 1  
     6    6    7 2  
     7    7    8 1  
     8    8    9 ar 
     9    8   10 ar 
    10    9   14 ar 
    11   10   11 ar 
    12   11   12 ar 
    13   12   13 1  
    14   12   14 ar 
    15   14   15 1  
    16    1   16 1  
    17    1   17 1  
    18    1   18 1  
    19    2   19 1  
    20    2   20 1  
    21    6   21 1  
    22    7   22 1  
    23    9   23 1  
    24   10   24 1  
    25   11   25 1  
    26   13   26 1  
    27   15   27 1  
@<TRIPOS>SUBSTRUCTURE
     1 0XR         1

