### 
### Created by X-TOOL on Mon Sep 10 21:13:09 2018
### 

@<TRIPOS>MOLECULE
4gqr_ligand
   33    35     1     0     0
SMALL
GAST_HUCK


@<TRIPOS>ATOM
      1 C1         14.2640   13.8960   35.1200 C.ar      1 MYC        -0.0094
      2 C2         15.1520   14.3270   36.0970 C.ar      1 MYC         0.0929
      3 C3         14.6650   14.9030   37.2670 C.ar      1 MYC         0.0812
      4 C4         13.3060   15.0600   37.4600 C.ar      1 MYC         0.1205
      5 C5         12.4130   14.6220   36.4780 C.ar      1 MYC        -0.0055
      6 C6         12.8910   14.0440   35.3170 C.ar      1 MYC         0.0766
      7 C9         15.5370   15.2540   38.2980 C.2       1 MYC         0.1454
      8 C10        14.9800   15.5290   39.5470 C.2       1 MYC         0.1598
      9 C11        13.6000   15.5780   39.6650 C.2       1 MYC         0.1506
     10 C14        12.9770   15.5700   40.9150 C.ar      1 MYC        -0.0139
     11 C15        13.7160   15.4030   42.0780 C.ar      1 MYC        -0.0437
     12 C16        13.0720   15.4200   43.3130 C.ar      1 MYC         0.1081
     13 C17        11.7040   15.6020   43.3790 C.ar      1 MYC         0.1445
     14 C18        10.9640   15.7630   42.2200 C.ar      1 MYC         0.1081
     15 C19        11.6020   15.7480   40.9830 C.ar      1 MYC        -0.0437
     16 O12        12.8130   15.6930   38.5620 O.3       1 MYC        -0.2594
     17 O13        16.7430   15.3300   38.1170 O.2       1 MYC        -0.4152
     18 O23         9.6120   15.9310   42.2840 O.3       1 MYC        -0.3401
     19 O24        11.0770   15.6400   44.5940 O.3       1 MYC        -0.3411
     20 O25        13.8030   15.2570   44.4540 O.3       1 MYC        -0.3401
     21 O27        15.7950   15.7350   40.6150 O.3       1 MYC        -0.3399
     22 O29        12.0170   13.6150   34.3650 O.3       1 MYC        -0.3353
     23 O30        16.4900   14.1920   35.9030 O.3       1 MYC        -0.3327
     24 H1         14.6368   13.4459   34.2070 H         1 MYC         0.0396
     25 H2         11.3453   14.7356   36.6270 H         1 MYC         0.0393
     26 H3         14.7892   15.2600   42.0254 H         1 MYC         0.0415
     27 H4         11.0257   15.8752   40.0737 H         1 MYC         0.0415
     28 H5          9.1838   15.2272   41.8110 H         1 MYC         0.2437
     29 H6         11.7179   15.5146   45.2839 H         1 MYC         0.2409
     30 H7         13.4943   14.4886   44.9194 H         1 MYC         0.2437
     31 H8         16.7011   15.6619   40.3392 H         1 MYC         0.2421
     32 H9         12.5010   13.2455   33.6358 H         1 MYC         0.2494
     33 H10        16.8557   13.6499   36.5922 H         1 MYC         0.2504
@<TRIPOS>BOND
     1    1    2 ar 
     2    1    6 ar 
     3    2    3 ar 
     4    2   23 1  
     5    3    4 ar 
     6    3    7 1  
     7    4    5 ar 
     8    4   16 1  
     9    5    6 ar 
    10    6   22 1  
    11    7    8 1  
    12    7   17 2  
    13    8    9 2  
    14    8   21 1  
    15    9   10 1  
    16    9   16 1  
    17   10   11 ar 
    18   10   15 ar 
    19   11   12 ar 
    20   12   13 ar 
    21   12   20 1  
    22   13   14 ar 
    23   13   19 1  
    24   14   15 ar 
    25   14   18 1  
    26    1   24 1  
    27    5   25 1  
    28   11   26 1  
    29   15   27 1  
    30   18   28 1  
    31   19   29 1  
    32   20   30 1  
    33   21   31 1  
    34   22   32 1  
    35   23   33 1  
@<TRIPOS>SUBSTRUCTURE
     1 MYC         1

