### 
### Created by X-TOOL on Mon Sep 10 21:13:15 2018
### 

@<TRIPOS>MOLECULE
4gs6_ligand
   52    53     1     0     0
SMALL
GAST_HUCK


@<TRIPOS>ATOM
      1 C2         15.0090   18.5770   55.3550 C.ar      1 1FM         0.0770
      2 C3         14.4020   17.6370   54.4810 C.ar      1 1FM        -0.0373
      3 C11        14.2440   19.6720   55.8090 C.ar      1 1FM         0.0976
      4 C14        13.0920   17.8480   54.0770 C.ar      1 1FM        -0.0388
      5 C15        12.3620   18.9370   54.5250 C.ar      1 1FM         0.0832
      6 O15        17.1290   17.4400   55.3210 O.3       1 1FM        -0.2789
      7 C16        12.9450   19.8400   55.3920 C.ar      1 1FM        -0.0030
      8 C17        14.7180   15.5760   53.1130 C.2       1 1FM        -0.0683
      9 C18        19.3330   16.5290   54.5660 C.3       1 1FM        -0.0225
     10 C23        15.1630   16.4920   53.9690 C.2       1 1FM        -0.0668
     11 C24        16.3960   14.9490   51.4140 C.3       1 1FM         0.0954
     12 C26        16.4190   18.5020   55.8530 C.2       1 1FM         0.2447
     13 C31        18.5780   17.3700   55.5820 C.3       1 1FM         0.0831
     14 C34        15.5290   14.4800   52.5580 C.3       1 1FM         0.0100
     15 O38        16.8910   19.3470   56.6200 O.2       1 1FM        -0.3723
     16 C39        17.7680   14.2850   51.2320 C.3       1 1FM         0.1092
     17 C40        18.7840   14.7650   52.2380 C.3       1 1FM         0.0837
     18 O40        19.1470   13.8340   53.1190 O.3       1 1FM        -0.3891
     19 C41        19.2310   16.0190   52.1810 C.3       1 1FM        -0.0242
     20 C42        19.4540   16.8980   53.2970 C.3       1 1FM        -0.0480
     21 O42        15.6860   14.8940   50.1960 O.3       1 1FM        -0.3863
     22 O44        17.6830   12.8680   51.2040 O.3       1 1FM        -0.3864
     23 O46        14.7940   20.6070   56.6690 O.3       1 1FM        -0.3313
     24 O48        11.0270   19.1980   54.1650 O.3       1 1FM        -0.3218
     25 C59        10.3490   18.2530   53.3440 C.3       1 1FM         0.0602
     26 C62        18.7820   16.8750   56.9870 C.3       1 1FM        -0.0344
     27 H1         12.6286   17.1445   53.3948 H         1 1FM         0.0426
     28 H2         12.3728   20.6894   55.7471 H         1 1FM         0.0445
     29 H3         13.6771   15.6418   52.7998 H         1 1FM         0.0768
     30 H4         18.8412   15.5452   54.5547 H         1 1FM         0.0293
     31 H5         20.3566   16.4228   54.9544 H         1 1FM         0.0293
     32 H6         16.1871   16.3817   54.3224 H         1 1FM         0.0434
     33 H7         16.6039   16.0093   51.6202 H         1 1FM         0.0651
     34 H8         18.9807   18.3917   55.5186 H         1 1FM         0.0644
     35 H9         14.8572   13.6884   52.1945 H         1 1FM         0.0501
     36 H10        16.1746   14.0770   53.3522 H         1 1FM         0.0501
     37 H11        18.1354   14.5969   50.2432 H         1 1FM         0.0647
     38 H12        17.9901   15.1026   52.9205 H         1 1FM         0.0620
     39 H13        19.7850   14.2001   53.7202 H         1 1FM         0.2099
     40 H14        18.5135   16.5496   51.5379 H         1 1FM         0.0291
     41 H15        20.2028   15.9534   51.6699 H         1 1FM         0.0291
     42 H16        20.4865   17.2616   53.1889 H         1 1FM         0.0267
     43 H17        18.7541   17.7358   53.1616 H         1 1FM         0.0267
     44 H18        16.1758   15.3537   49.5242 H         1 1FM         0.2102
     45 H19        18.5295   12.5057   50.9702 H         1 1FM         0.2100
     46 H20        15.6899   20.3628   56.8694 H         1 1FM         0.2505
     47 H21         9.3229   18.6013   53.1548 H         1 1FM         0.0579
     48 H22        10.3173   17.2794   53.8549 H         1 1FM         0.0579
     49 H23        10.8828   18.1482   52.3879 H         1 1FM         0.0579
     50 H24        19.8591   16.8155   57.2020 H         1 1FM         0.0258
     51 H25        18.3313   15.8772   57.0933 H         1 1FM         0.0258
     52 H26        18.3049   17.5701   57.6936 H         1 1FM         0.0258
@<TRIPOS>BOND
     1    1    2 ar 
     2    1    3 ar 
     3    1   12 1  
     4    2    4 ar 
     5    2   10 1  
     6    3    7 ar 
     7    3   23 1  
     8    4    5 ar 
     9    5    7 ar 
    10    5   24 1  
    11   12    6 1  
    12    6   13 1  
    13   10    8 2  
    14    8   14 1  
    15   13    9 1  
    16    9   20 1  
    17   14   11 1  
    18   11   16 1  
    19   11   21 1  
    20   12   15 2  
    21   13   26 1  
    22   16   17 1  
    23   16   22 1  
    24   17   18 1  
    25   17   19 1  
    26   19   20 1  
    27   24   25 1  
    28    4   27 1  
    29    7   28 1  
    30    8   29 1  
    31    9   30 1  
    32    9   31 1  
    33   10   32 1  
    34   11   33 1  
    35   13   34 1  
    36   14   35 1  
    37   14   36 1  
    38   16   37 1  
    39   17   38 1  
    40   18   39 1  
    41   19   40 1  
    42   19   41 1  
    43   20   42 1  
    44   20   43 1  
    45   21   44 1  
    46   22   45 1  
    47   23   46 1  
    48   25   47 1  
    49   25   48 1  
    50   25   49 1  
    51   26   50 1  
    52   26   51 1  
    53   26   52 1  
@<TRIPOS>SUBSTRUCTURE
     1 1FM         1

