### 
### Created by X-TOOL on Mon Sep 10 21:13:13 2018
### 

@<TRIPOS>MOLECULE
4gs8_ligand
   56    57     1     0     0
SMALL
GAST_HUCK


@<TRIPOS>ATOM
      1 C10      -111.6190   60.7990   27.4410 C.2       1 MGJ         0.0875
      2 N12      -114.8110   57.2590   27.0600 N.am      1 MGJ        -0.2594
      3 C13      -113.9040   56.5430   26.3490 C.2       1 MGJ         0.2239
      4 C15      -113.1190   55.3720   26.9510 C.3       1 MGJ         0.0594
      5 C17      -113.0360   52.9420   27.5700 C.3       1 MGJ        -0.0269
      6 C20      -110.7460   50.0540   25.9580 C.ar      1 MGJ        -0.0428
      7 C21      -110.9700   49.7030   24.6430 C.ar      1 MGJ        -0.0603
      8 C22      -110.0170   48.8540   23.7830 C.ar      1 MGJ        -0.0686
      9 C24      -108.3510   49.1150   25.6710 C.ar      1 MGJ        -0.0686
     10 C26      -114.9490   53.8900   26.1270 C.3       1 MGJ         0.0230
     11 O04      -117.4280   59.5240   25.7620 O.2       1 MGJ        -0.3944
     12 C03      -116.8960   58.5470   26.2630 C.2       1 MGJ         0.2035
     13 N02      -117.6640   57.4570   26.4330 N.am      1 MGJ        -0.2880
     14 C01      -118.4630   56.8790   25.3530 C.3       1 MGJ         0.0196
     15 C05      -115.4090   58.5800   26.6990 C.3       1 MGJ         0.1421
     16 C06      -114.5670   59.4230   25.7050 C.3       1 MGJ         0.0427
     17 C07      -113.2730   60.0570   26.2020 C.2       1 MGJ         0.0561
     18 C08      -112.3330   60.6850   25.3740 C.2       1 MGJ        -0.0276
     19 N09      -111.3340   61.1340   26.1640 N.2       1 MGJ        -0.3437
     20 N11      -112.8000   60.1330   27.4760 N.pl3     1 MGJ        -0.2623
     21 O14      -113.6610   56.8170   25.1960 O.2       1 MGJ        -0.3910
     22 N16      -113.8860   54.1350   27.1610 N.4       1 MGJ         0.2636
     23 C27      -114.6650   53.8160   24.6160 C.2       1 MGJ         0.0813
     24 O28      -113.6300   53.2750   24.1090 O.co2     1 MGJ        -0.5645
     25 O29      -115.5700   54.2930   23.8890 O.co2     1 MGJ        -0.5645
     26 C18      -112.0290   52.2650   26.5990 C.3       1 MGJ        -0.0027
     27 C19      -111.8570   50.7340   26.7930 C.3       1 MGJ        -0.0143
     28 C23      -108.6290   48.7060   24.4110 C.ar      1 MGJ        -0.0687
     29 C25      -109.3840   49.7500   26.6160 C.ar      1 MGJ        -0.0603
     30 H        -110.9984   61.0276   28.3062 H         1 MGJ         0.1149
     31 H        -115.1138   56.8569   27.9241 H         1 MGJ         0.1886
     32 H        -112.7236   55.6947   27.9254 H         1 MGJ         0.1063
     33 H        -112.2831   55.1412   26.2743 H         1 MGJ         0.1063
     34 H        -113.7406   52.1553   27.8774 H         1 MGJ         0.0817
     35 H        -112.4487   53.2689   28.4408 H         1 MGJ         0.0817
     36 H        -111.8864   50.0514   24.1804 H         1 MGJ         0.0557
     37 H        -110.2982   48.4091   22.8353 H         1 MGJ         0.0599
     38 H        -107.3383   48.9870   26.0359 H         1 MGJ         0.0599
     39 H        -115.6845   54.6978   26.2551 H         1 MGJ         0.0989
     40 H        -115.4109   52.9279   26.3932 H         1 MGJ         0.0989
     41 H        -117.6901   57.0240   27.3340 H         1 MGJ         0.1848
     42 H        -119.0041   55.9979   25.7284 H         1 MGJ         0.0484
     43 H        -117.8010   56.5785   24.5275 H         1 MGJ         0.0484
     44 H        -119.1849   57.6258   24.9908 H         1 MGJ         0.0484
     45 H        -115.3997   59.1485   27.6407 H         1 MGJ         0.0824
     46 H        -115.2108   60.2391   25.3451 H         1 MGJ         0.0491
     47 H        -114.3038   58.7653   24.8635 H         1 MGJ         0.0491
     48 H        -112.3964   60.7914   24.2921 H         1 MGJ         0.0324
     49 H        -113.2574   59.7526   28.3168 H         1 MGJ         0.2386
     50 H        -114.4207   54.3277   27.9934 H         1 MGJ         0.2067
     51 H        -111.0467   52.7392   26.7412 H         1 MGJ         0.0339
     52 H        -112.3760   52.4415   25.5702 H         1 MGJ         0.0339
     53 H        -111.6344   50.5545   27.8552 H         1 MGJ         0.0428
     54 H        -112.8121   50.2545   26.5324 H         1 MGJ         0.0428
     55 H        -107.8372   48.2557   23.8233 H         1 MGJ         0.0559
     56 H        -109.1732   49.9660   27.6571 H         1 MGJ         0.0557
@<TRIPOS>BOND
     1    1   19 2  
     2   20    1 1  
     3    3    2 am 
     4    2   15 1  
     5    4    3 1  
     6    3   21 2  
     7   22    4 1  
     8    5   22 1  
     9   26    5 1  
    10    6    7 ar 
    11   27    6 1  
    12    6   29 ar 
    13    7    8 ar 
    14    8   28 ar 
    15    9   28 ar 
    16   29    9 ar 
    17   22   10 1  
    18   10   23 1  
    19   12   11 2  
    20   12   13 am 
    21   15   12 1  
    22   13   14 1  
    23   15   16 1  
    24   16   17 1  
    25   17   18 2  
    26   17   20 1  
    27   18   19 1  
    28   23   24 ar 
    29   23   25 ar 
    30   26   27 1  
    31    1   30 1  
    32    2   31 1  
    33    4   32 1  
    34    4   33 1  
    35    5   34 1  
    36    5   35 1  
    37    7   36 1  
    38    8   37 1  
    39    9   38 1  
    40   10   39 1  
    41   10   40 1  
    42   13   41 1  
    43   14   42 1  
    44   14   43 1  
    45   14   44 1  
    46   15   45 1  
    47   16   46 1  
    48   16   47 1  
    49   18   48 1  
    50   20   49 1  
    51   22   50 1  
    52   26   51 1  
    53   26   52 1  
    54   27   53 1  
    55   27   54 1  
    56   28   55 1  
    57   29   56 1  
@<TRIPOS>SUBSTRUCTURE
     1 MGJ         1

