### 
### Created by X-TOOL on Tue Oct 16 15:17:34 2018
### 

@<TRIPOS>MOLECULE
4gs9_ligand
   27    29     1     0     0
SMALL
GAST_HUCK


@<TRIPOS>ATOM
      1 CAH        16.5630  -43.5160   10.8670 C.ar      1 MOL         0.0139
      2 CAG        15.2770  -43.1510   11.2620 C.ar      1 MOL         0.0664
      3 CAI        17.3750  -42.6420   10.1560 C.ar      1 MOL         0.0420
      4 CAQ        16.8640  -41.3780    9.8650 C.ar      1 MOL         0.2048
      5 FAR        17.6050  -40.5150    9.1890 F         1 MOL        -0.1592
      6 CAP        15.5890  -40.9980   10.2670 C.ar      1 MOL         0.0977
      7 CAO        14.7920  -41.8970   10.9580 C.ar      1 MOL         0.2286
      8 NAN        13.5230  -41.5070   11.3700 N.pl3     1 MOL        -0.1417
      9 CAM        12.4620  -41.3320   10.5160 C.ar      1 MOL         0.2614
     10 CAL        11.2050  -40.9320   10.9230 C.ar      1 MOL         0.2280
     11 NAT        10.9060  -40.6540   12.3570 N.2       1 MOL        -0.1746
     12 OAS         9.7950  -40.3090   12.6800 O.2       1 MOL        -0.4741
     13 OAU        11.7950  -40.7810   13.1520 O.2       1 MOL        -0.4741
     14 CAF        12.7000  -41.5690    9.1140 C.ar      1 MOL         0.0722
     15 CAE        11.7370  -41.4510    8.1610 C.ar      1 MOL         0.0317
     16 CAD        10.4210  -41.0370    8.5550 C.ar      1 MOL         0.1542
     17 CAK        10.1480  -40.7740    9.9580 C.ar      1 MOL         0.1843
     18 NAC         9.2670  -40.8000    7.8710 N.2       1 MOL        -0.0445
     19 OAB         8.3660  -40.4320    8.7800 O.3       1 MOL        -0.0219
     20 NAJ         8.8440  -40.3890   10.0250 N.2       1 MOL        -0.0608
     21 H1         16.9367  -44.5016   11.1198 H         1 MOL         0.0832
     22 H2         14.6581  -43.8535   11.8084 H         1 MOL         0.1099
     23 H3         18.3701  -42.9322    9.8388 H         1 MOL         0.1215
     24 H4         15.2200  -40.0040   10.0413 H         1 MOL         0.1010
     25 H5         13.3695  -41.3395   12.3746 H         1 MOL         0.3540
     26 H6         13.6981  -41.8561    8.8034 H         1 MOL         0.1084
     27 H7         11.9597  -41.6659    7.1221 H         1 MOL         0.0874
@<TRIPOS>BOND
     1    1    2 ar 
     2    1    3 ar 
     3    2    7 ar 
     4    3    4 ar 
     5    4    5 1  
     6    4    6 ar 
     7    6    7 ar 
     8    7    8 1  
     9    8    9 1  
    10    9   10 ar 
    11    9   14 ar 
    12   10   11 1  
    13   10   17 ar 
    14   11   12 2  
    15   11   13 2  
    16   14   15 ar 
    17   15   16 ar 
    18   16   17 ar 
    19   16   18 2  
    20   17   20 2  
    21   18   19 1  
    22   19   20 1  
    23    1   21 1  
    24    2   22 1  
    25    3   23 1  
    26    6   24 1  
    27    8   25 1  
    28   14   26 1  
    29   15   27 1  
@<TRIPOS>SUBSTRUCTURE
     1 MOL         1

