### 
### Created by X-TOOL on Mon Sep 10 21:13:14 2018
### 

@<TRIPOS>MOLECULE
4gsc_ligand
   52    53     1     0     0
SMALL
GAST_HUCK


@<TRIPOS>ATOM
      1 C10       111.4690  -61.3410   10.9150 C.2       1 MGW         0.0875
      2 N12       115.1700  -57.4700   11.2490 N.am      1 MGW        -0.2581
      3 C13       114.3560  -56.5660   10.6830 C.2       1 MGW         0.2240
      4 C15       114.3140  -55.2240   11.4140 C.3       1 MGW         0.0596
      5 C17       112.7720  -53.3610   11.7410 C.3       1 MGW        -0.0191
      6 C20       110.2370  -51.5970   11.9810 C.ar      1 MGW        -0.0602
      7 C21       109.0650  -50.8060   12.0320 C.ar      1 MGW        -0.0686
      8 C22       109.1170  -49.4540   11.6420 C.ar      1 MGW        -0.0687
      9 C24       111.4950  -49.6820   11.1560 C.ar      1 MGW        -0.0602
     10 C26       113.7640  -53.2080    8.3720 C.2       1 MGW         0.0813
     11 O04       117.2780  -59.9340    9.6900 O.2       1 MGW        -0.3676
     12 C03       116.9110  -58.9470   10.3180 C.2       1 MGW         0.2614
     13 O02       117.9100  -57.8900   10.5590 O.3       1 MGW        -0.2783
     14 C01       118.3440  -56.9520    9.5640 C.3       1 MGW         0.0658
     15 C05       115.4860  -58.8570   10.8550 C.3       1 MGW         0.1535
     16 C06       114.4060  -59.3640    9.8830 C.3       1 MGW         0.0441
     17 C07       113.1980  -60.0140   10.5560 C.2       1 MGW         0.0562
     18 C08       112.6530  -59.6950   11.7960 C.2       1 MGW        -0.0275
     19 N09       111.6040  -60.5250   11.9800 N.2       1 MGW        -0.3437
     20 N11       112.4340  -61.0240   10.0300 N.pl3     1 MGW        -0.2623
     21 O14       113.6960  -56.8100    9.6820 O.2       1 MGW        -0.3910
     22 N16       113.4740  -54.2220   10.7320 N.4       1 MGW         0.2649
     23 C25       114.3510  -53.5180    9.7560 C.3       1 MGW         0.0232
     24 O27       112.5710  -52.8520    8.2090 O.co2     1 MGW        -0.5645
     25 O28       114.5360  -53.2960    7.3990 O.co2     1 MGW        -0.5645
     26 C18       112.7810  -51.8420   11.4800 C.3       1 MGW         0.0213
     27 C19       111.4680  -51.0470   11.5460 C.ar      1 MGW        -0.0380
     28 C23       110.3340  -48.8910   11.1990 C.ar      1 MGW        -0.0686
     29 H         110.7150  -62.1172   10.7923 H         1 MGW         0.1149
     30 H         115.6395  -57.1521   12.0727 H         1 MGW         0.1887
     31 H         115.3391  -54.8316   11.4855 H         1 MGW         0.1063
     32 H         113.9127  -55.3880   12.4250 H         1 MGW         0.1063
     33 H         113.2491  -53.5344   12.7168 H         1 MGW         0.0839
     34 H         111.7219  -53.6857   11.7834 H         1 MGW         0.0839
     35 H         110.1924  -52.6383   12.2789 H         1 MGW         0.0557
     36 H         108.1306  -51.2392   12.3700 H         1 MGW         0.0599
     37 H         108.2215  -48.8444   11.6819 H         1 MGW         0.0559
     38 H         112.4269  -49.2425   10.8193 H         1 MGW         0.0557
     39 H         119.0912  -56.2733   10.0011 H         1 MGW         0.0577
     40 H         117.4817  -56.3684    9.2093 H         1 MGW         0.0577
     41 H         118.7920  -57.4950    8.7188 H         1 MGW         0.0577
     42 H         115.4393  -59.4878   11.7549 H         1 MGW         0.0840
     43 H         114.8670  -60.1064    9.2150 H         1 MGW         0.0492
     44 H         114.0493  -58.5088    9.2902 H         1 MGW         0.0492
     45 H         113.0038  -58.9266   12.4833 H         1 MGW         0.0324
     46 H         112.5746  -61.4668    9.1107 H         1 MGW         0.2386
     47 H         112.7587  -54.7006   10.2073 H         1 MGW         0.2069
     48 H         114.6478  -52.5611   10.2101 H         1 MGW         0.0989
     49 H         115.2428  -54.1436    9.6032 H         1 MGW         0.0989
     50 H         113.1916  -51.6950   10.4702 H         1 MGW         0.0478
     51 H         113.4608  -51.3958   12.2208 H         1 MGW         0.0478
     52 H         110.3726  -47.8518   10.8930 H         1 MGW         0.0599
@<TRIPOS>BOND
     1    1   19 2  
     2   20    1 1  
     3    3    2 am 
     4    2   15 1  
     5    4    3 1  
     6    3   21 2  
     7   22    4 1  
     8    5   22 1  
     9   26    5 1  
    10    6    7 ar 
    11   27    6 ar 
    12    7    8 ar 
    13   28    8 ar 
    14   27    9 ar 
    15    9   28 ar 
    16   23   10 1  
    17   10   24 ar 
    18   10   25 ar 
    19   12   11 2  
    20   12   13 1  
    21   15   12 1  
    22   13   14 1  
    23   15   16 1  
    24   16   17 1  
    25   17   18 2  
    26   17   20 1  
    27   18   19 1  
    28   22   23 1  
    29   26   27 1  
    30    1   29 1  
    31    2   30 1  
    32    4   31 1  
    33    4   32 1  
    34    5   33 1  
    35    5   34 1  
    36    6   35 1  
    37    7   36 1  
    38    8   37 1  
    39    9   38 1  
    40   14   39 1  
    41   14   40 1  
    42   14   41 1  
    43   15   42 1  
    44   16   43 1  
    45   16   44 1  
    46   18   45 1  
    47   20   46 1  
    48   22   47 1  
    49   23   48 1  
    50   23   49 1  
    51   26   50 1  
    52   26   51 1  
    53   28   52 1  
@<TRIPOS>SUBSTRUCTURE
     1 MGW         1

