### 
### Created by X-TOOL on Mon Sep 10 21:13:09 2018
### 

@<TRIPOS>MOLECULE
4gtm_ligand
   90    94     1     0     0
SMALL
GAST_HUCK


@<TRIPOS>ATOM
      1 CAA        57.4680  -59.6270   -1.2570 C.3       1 7TM        -0.0653
      2 CAV        56.7320  -59.0250   -2.4830 C.3       1 7TM        -0.0559
      3 CAW        56.4990  -57.5470   -2.2700 C.3       1 7TM        -0.0532
      4 CAX        56.0070  -56.7900   -3.5000 C.3       1 7TM        -0.0513
      5 CAY        56.2760  -55.2790   -3.3110 C.3       1 7TM        -0.0328
      6 CAZ        55.9700  -54.8110   -1.8780 C.3       1 7TM         0.0331
      7 NBF        56.4570  -53.4420   -1.6770 N.am      1 7TM        -0.2591
      8 CBI        57.7020  -53.0910   -1.2820 C.2       1 7TM         0.3425
      9 OAE        58.6190  -53.8730   -1.0140 O.2       1 7TM        -0.3727
     10 OBH        57.9850  -51.7630   -1.1250 O.3       1 7TM        -0.2046
     11 CBM        57.2310  -51.3490   -0.0610 C.ar      1 7TM         0.1163
     12 CAM        56.4590  -50.1980   -0.1860 C.ar      1 7TM        -0.0348
     13 CAK        55.6830  -49.7830    0.8920 C.ar      1 7TM        -0.0676
     14 CAL        57.2150  -52.0940    1.1330 C.ar      1 7TM        -0.0348
     15 CAJ        56.4510  -51.6680    2.2100 C.ar      1 7TM        -0.0676
     16 CBK        55.6910  -50.5180    2.0710 C.ar      1 7TM        -0.0511
     17 CBA        54.8440  -50.0530    3.2260 C.3       1 7TM        -0.0019
     18 CBR        53.3540  -50.4240    3.0720 C.3       1 7TM         0.0707
     19 CBD        52.7680  -49.9580    4.4000 C.3       1 7TM         0.0516
     20 NBS        51.5290  -50.5700    4.9010 N.pl3     1 7TM        -0.2908
     21 CBC        50.4930  -49.5680    5.0700 C.3       1 7TM         0.0826
     22 CBP        50.8770  -48.7550    6.3270 C.2       1 7TM         0.0758
     23 CAS        51.9550  -48.8830    7.1050 C.2       1 7TM        -0.0256
     24 NBE        51.8730  -47.9900    8.1020 N.2       1 7TM        -0.3435
     25 CAT        50.7560  -47.2900    7.9460 C.2       1 7TM         0.0898
     26 NBU        50.1580  -47.7750    6.8590 N.pl3     1 7TM        -0.2493
     27 CAC        48.8630  -47.3070    6.3050 C.3       1 7TM         0.0471
     28 CBQ        51.4310  -51.8400    5.3270 C.ar      1 7TM         0.0575
     29 CAR        50.4720  -52.0890    6.3300 C.ar      1 7TM        -0.0376
     30 CAI        50.3320  -53.3610    6.8710 C.ar      1 7TM        -0.0449
     31 CBJ        51.1500  -54.4010    6.4260 C.ar      1 7TM         0.0746
     32 CAH        51.0500  -55.7410    6.9490 C.1       1 7TM         0.0844
     33 NAD        51.0340  -56.8150    7.3390 N.1       1 7TM        -0.3394
     34 CAU        52.0970  -54.1520    5.4390 C.ar      1 7TM        -0.0354
     35 CBN        52.2500  -52.8800    4.8990 C.ar      1 7TM         0.0062
     36 CBB        53.3770  -52.8390    3.8510 C.3       1 7TM         0.0625
     37 NBT        53.2470  -51.8800    2.7300 N.am      1 7TM        -0.2193
     38 SBV        52.0590  -52.2290    1.5620 S.o2      1 7TM         0.0675
     39 OAF        52.0830  -51.1510    0.5050 O.2       1 7TM        -0.1514
     40 OAG        52.4040  -53.5640    0.9360 O.2       1 7TM        -0.1514
     41 CBO        50.3920  -52.2850    2.2110 C.ar      1 7TM         0.0973
     42 CAP        49.6210  -51.1290    2.2260 C.ar      1 7TM        -0.0440
     43 CAN        48.3350  -51.1670    2.7570 C.ar      1 7TM        -0.0313
     44 CBL        47.8020  -52.3460    3.2700 C.ar      1 7TM         0.0908
     45 OBG        46.5320  -52.3480    3.7680 O.3       1 7TM        -0.3212
     46 CAB        46.5170  -52.6240    5.1730 C.3       1 7TM         0.0594
     47 CAO        48.5600  -53.5090    3.2580 C.ar      1 7TM        -0.0313
     48 CAQ        49.8470  -53.4680    2.7210 C.ar      1 7TM        -0.0440
     49 H          58.4277  -59.1263   -1.1291 H         1 7TM         0.0230
     50 H          56.8602  -59.4838   -0.3636 H         1 7TM         0.0230
     51 H          57.6313  -60.6923   -1.4200 H         1 7TM         0.0230
     52 H          55.7717  -59.5257   -2.6067 H         1 7TM         0.0263
     53 H          57.3432  -59.1673   -3.3742 H         1 7TM         0.0263
     54 H          57.4603  -57.1125   -1.9958 H         1 7TM         0.0265
     55 H          55.7211  -57.4564   -1.5118 H         1 7TM         0.0265
     56 H          54.9375  -56.9572   -3.6280 H         1 7TM         0.0266
     57 H          56.5354  -57.1471   -4.3840 H         1 7TM         0.0266
     58 H          55.6270  -54.7303   -3.9935 H         1 7TM         0.0284
     59 H          57.3315  -55.0942   -3.5107 H         1 7TM         0.0284
     60 H          56.4693  -55.4745   -1.1718 H         1 7TM         0.0519
     61 H          54.8920  -54.8332   -1.7181 H         1 7TM         0.0519
     62 H          55.7958  -52.6851   -1.8512 H         1 7TM         0.1870
     63 H          56.4621  -49.6291   -1.1158 H         1 7TM         0.0536
     64 H          55.0711  -48.8845    0.8117 H         1 7TM         0.0532
     65 H          57.8041  -53.0077    1.2118 H         1 7TM         0.0536
     66 H          56.4488  -52.2265    3.1460 H         1 7TM         0.0532
     67 H          54.9118  -48.9660    3.2699 H         1 7TM         0.0426
     68 H          55.2155  -50.5414    4.1269 H         1 7TM         0.0426
     69 H          52.7962  -49.9590    2.2592 H         1 7TM         0.0556
     70 H          52.5122  -48.9111    4.2366 H         1 7TM         0.0539
     71 H          53.5236  -50.2179    5.1414 H         1 7TM         0.0539
     72 H          49.5139  -50.0323    5.1874 H         1 7TM         0.0697
     73 H          50.4232  -48.9245    4.1930 H         1 7TM         0.0697
     74 H          52.7665  -49.5950    6.9546 H         1 7TM         0.0325
     75 H          50.3990  -46.4793    8.5812 H         1 7TM         0.1150
     76 H          49.0130  -46.9498    5.2862 H         1 7TM         0.0583
     77 H          48.1514  -48.1327    6.3008 H         1 7TM         0.0583
     78 H          48.4769  -46.4961    6.9226 H         1 7TM         0.0583
     79 H          49.8358  -51.2777    6.6836 H         1 7TM         0.0525
     80 H          49.5843  -53.5467    7.6421 H         1 7TM         0.0632
     81 H          52.7287  -54.9659    5.0833 H         1 7TM         0.0616
     82 H          53.3792  -53.8263    3.3890 H         1 7TM         0.0615
     83 H          54.2684  -52.5286    4.3961 H         1 7TM         0.0615
     84 H          50.0210  -50.1980    1.8243 H         1 7TM         0.0608
     85 H          47.7346  -50.2573    2.7714 H         1 7TM         0.0542
     86 H          46.9598  -53.6034    5.3543 H         1 7TM         0.0577
     87 H          47.0918  -51.8611    5.6980 H         1 7TM         0.0577
     88 H          45.4880  -52.6169    5.5324 H         1 7TM         0.0577
     89 H          48.1567  -54.4379    3.6611 H         1 7TM         0.0542
     90 H          50.4427  -54.3806    2.6983 H         1 7TM         0.0608
@<TRIPOS>BOND
     1    1    2 1  
     2    2    3 1  
     3    3    4 1  
     4    4    5 1  
     5    5    6 1  
     6    6    7 1  
     7    7    8 am 
     8    8    9 2  
     9    8   10 1  
    10   10   11 1  
    11   11   12 ar 
    12   11   14 ar 
    13   12   13 ar 
    14   13   16 ar 
    15   14   15 ar 
    16   15   16 ar 
    17   16   17 1  
    18   17   18 1  
    19   18   19 1  
    20   18   37 1  
    21   19   20 1  
    22   20   21 1  
    23   20   28 1  
    24   21   22 1  
    25   22   23 2  
    26   22   26 1  
    27   23   24 1  
    28   24   25 2  
    29   25   26 1  
    30   26   27 1  
    31   28   29 ar 
    32   28   35 ar 
    33   29   30 ar 
    34   30   31 ar 
    35   31   32 1  
    36   31   34 ar 
    37   32   33 3  
    38   34   35 ar 
    39   35   36 1  
    40   36   37 1  
    41   37   38 am 
    42   38   39 2  
    43   38   40 2  
    44   38   41 1  
    45   41   42 ar 
    46   41   48 ar 
    47   42   43 ar 
    48   43   44 ar 
    49   44   45 1  
    50   44   47 ar 
    51   45   46 1  
    52   47   48 ar 
    53    1   49 1  
    54    1   50 1  
    55    1   51 1  
    56    2   52 1  
    57    2   53 1  
    58    3   54 1  
    59    3   55 1  
    60    4   56 1  
    61    4   57 1  
    62    5   58 1  
    63    5   59 1  
    64    6   60 1  
    65    6   61 1  
    66    7   62 1  
    67   12   63 1  
    68   13   64 1  
    69   14   65 1  
    70   15   66 1  
    71   17   67 1  
    72   17   68 1  
    73   18   69 1  
    74   19   70 1  
    75   19   71 1  
    76   21   72 1  
    77   21   73 1  
    78   23   74 1  
    79   25   75 1  
    80   27   76 1  
    81   27   77 1  
    82   27   78 1  
    83   29   79 1  
    84   30   80 1  
    85   34   81 1  
    86   36   82 1  
    87   36   83 1  
    88   42   84 1  
    89   43   85 1  
    90   46   86 1  
    91   46   87 1  
    92   46   88 1  
    93   47   89 1  
    94   48   90 1  
@<TRIPOS>SUBSTRUCTURE
     1 7TM         1

