### 
### Created by X-TOOL on Mon Sep 10 21:13:10 2018
### 

@<TRIPOS>MOLECULE
4gto_ligand
   74    78     1     0     0
SMALL
GAST_HUCK


@<TRIPOS>ATOM
      1 CAA       -22.5130   66.9580    3.0170 C.3       1 7TO         0.0594
      2 OBD       -21.2820   66.5610    3.6500 O.3       1 7TO        -0.3212
      3 CBH       -20.6650   67.6250    4.2380 C.ar      1 7TO         0.0908
      4 CAR       -21.3180   68.8530    4.3200 C.ar      1 7TO        -0.0313
      5 CAT       -20.6870   69.9300    4.9230 C.ar      1 7TO        -0.0440
      6 CAQ       -19.3780   67.4880    4.7640 C.ar      1 7TO        -0.0313
      7 CAS       -18.7430   68.5740    5.3720 C.ar      1 7TO        -0.0440
      8 CBK       -19.3970   69.8070    5.4360 C.ar      1 7TO         0.0973
      9 SBT       -18.6730   71.2380    6.1800 S.o2      1 7TO         0.0675
     10 OAF       -17.8220   70.8400    7.3510 O.2       1 7TO        -0.1514
     11 OAG       -19.8010   72.0940    6.6750 O.2       1 7TO        -0.1514
     12 NBP       -17.7060   72.2360    5.1890 N.am      1 7TO        -0.2193
     13 CAZ       -18.3830   72.8560    4.0240 C.3       1 7TO         0.0625
     14 CBJ       -18.8780   71.8650    2.9830 C.ar      1 7TO         0.0062
     15 CAX       -20.1350   72.2100    2.4880 C.ar      1 7TO        -0.0354
     16 CBF       -20.7030   71.4190    1.5120 C.ar      1 7TO         0.0746
     17 CAK       -21.9840   71.7160    0.9700 C.1       1 7TO         0.0844
     18 NAC       -23.0010   71.9300    0.5150 N.1       1 7TO        -0.3394
     19 CAL       -20.0460   70.2900    1.0450 C.ar      1 7TO        -0.0449
     20 CAU       -18.8040   69.9360    1.5440 C.ar      1 7TO        -0.0376
     21 CBM       -18.2070   70.7340    2.5220 C.ar      1 7TO         0.0575
     22 NBO       -16.9910   70.3310    2.9170 N.pl3     1 7TO        -0.2908
     23 CBA       -16.5540   68.9260    2.7160 C.3       1 7TO         0.0826
     24 CBL       -15.7930   68.7940    1.3870 C.2       1 7TO         0.0758
     25 CAV       -15.7880   69.6570    0.3640 C.2       1 7TO        -0.0256
     26 NBC       -15.0140   69.1590   -0.5990 N.2       1 7TO        -0.3435
     27 CAW       -14.5290   67.9830   -0.1800 C.2       1 7TO         0.0898
     28 NBQ       -15.0120   67.7750    1.0360 N.pl3     1 7TO        -0.2493
     29 CAB       -14.7220   66.5680    1.8860 C.3       1 7TO         0.0471
     30 CBB       -16.0040   71.2650    3.4960 C.3       1 7TO         0.0516
     31 CBN       -16.3420   71.6850    4.9500 C.3       1 7TO         0.0706
     32 CAY       -15.2640   72.6280    5.5570 C.3       1 7TO        -0.0022
     33 CBG       -15.2590   74.1440    5.2280 C.ar      1 7TO        -0.0518
     34 CAN       -15.9680   75.0860    5.9850 C.ar      1 7TO        -0.0686
     35 CAP       -15.9020   76.4590    5.6690 C.ar      1 7TO        -0.0371
     36 CAM       -14.4610   74.6130    4.1840 C.ar      1 7TO        -0.0686
     37 CAO       -14.3990   75.9810    3.8720 C.ar      1 7TO        -0.0371
     38 CBI       -15.1040   76.9360    4.6130 C.ar      1 7TO         0.1162
     39 OBE       -15.0440   78.2950    4.2860 O.3       1 7TO        -0.1676
     40 SBS       -13.8100   79.1240    4.5530 S.o2      1 7TO         0.1991
     41 OAD       -13.7970   80.3270    3.6630 O.2       1 7TO        -0.1346
     42 OAE       -12.5160   78.4010    4.3390 O.2       1 7TO        -0.1346
     43 CBR       -13.8560   79.7780    6.2590 C.3       1 7TO         0.5497
     44 FAI       -14.0780   78.7760    7.1200 F         1 7TO        -0.1484
     45 FAJ       -12.6980   80.3950    6.5050 F         1 7TO        -0.1484
     46 FAH       -14.8410   80.6680    6.3580 F         1 7TO        -0.1484
     47 H         -23.1844   67.3809    3.7643 H         1 7TO         0.0577
     48 H         -22.3021   67.7051    2.2518 H         1 7TO         0.0577
     49 H         -22.9810   66.0874    2.5574 H         1 7TO         0.0577
     50 H         -22.3220   68.9666    3.9112 H         1 7TO         0.0542
     51 H         -21.2065   70.8854    4.9969 H         1 7TO         0.0608
     52 H         -18.8660   66.5279    4.6997 H         1 7TO         0.0542
     53 H         -17.7443   68.4601    5.7935 H         1 7TO         0.0608
     54 H         -17.6505   73.4963    3.5325 H         1 7TO         0.0615
     55 H         -19.2581   73.3819    4.4058 H         1 7TO         0.0615
     56 H         -20.6586   73.0883    2.8655 H         1 7TO         0.0616
     57 H         -20.5130   69.6744    0.2762 H         1 7TO         0.0632
     58 H         -18.2973   69.0434    1.1771 H         1 7TO         0.0525
     59 H         -17.4308   68.2788    2.6918 H         1 7TO         0.0697
     60 H         -15.8961   68.6355    3.5351 H         1 7TO         0.0697
     61 H         -16.3251   70.6047    0.3255 H         1 7TO         0.0325
     62 H         -13.8629   67.3221   -0.7346 H         1 7TO         0.1150
     63 H         -14.2487   66.8849    2.8153 H         1 7TO         0.0583
     64 H         -15.6547   66.0503    2.1099 H         1 7TO         0.0583
     65 H         -14.0532   65.8974    1.3464 H         1 7TO         0.0583
     66 H         -16.0026   72.1664    2.8832 H         1 7TO         0.0539
     67 H         -15.0395   70.7576    3.5141 H         1 7TO         0.0539
     68 H         -16.3362   70.7295    5.4745 H         1 7TO         0.0556
     69 H         -14.3256   72.2623    5.1403 H         1 7TO         0.0424
     70 H         -15.4506   72.5893    6.6302 H         1 7TO         0.0424
     71 H         -16.5765   74.7545    6.8264 H         1 7TO         0.0530
     72 H         -16.4838   77.1683    6.2577 H         1 7TO         0.0526
     73 H         -13.8745   73.9042    3.5994 H         1 7TO         0.0530
     74 H         -13.7863   76.3070    3.0315 H         1 7TO         0.0526
@<TRIPOS>BOND
     1    1    2 1  
     2    2    3 1  
     3    3    4 ar 
     4    3    6 ar 
     5    4    5 ar 
     6    5    8 ar 
     7    6    7 ar 
     8    7    8 ar 
     9    8    9 1  
    10    9   10 2  
    11    9   11 2  
    12    9   12 am 
    13   12   13 1  
    14   12   31 1  
    15   13   14 1  
    16   14   15 ar 
    17   14   21 ar 
    18   15   16 ar 
    19   16   17 1  
    20   16   19 ar 
    21   17   18 3  
    22   19   20 ar 
    23   20   21 ar 
    24   21   22 1  
    25   22   23 1  
    26   22   30 1  
    27   23   24 1  
    28   24   25 2  
    29   24   28 1  
    30   25   26 1  
    31   26   27 2  
    32   27   28 1  
    33   28   29 1  
    34   30   31 1  
    35   31   32 1  
    36   32   33 1  
    37   33   34 ar 
    38   33   36 ar 
    39   34   35 ar 
    40   35   38 ar 
    41   36   37 ar 
    42   37   38 ar 
    43   38   39 1  
    44   39   40 1  
    45   40   41 2  
    46   40   42 2  
    47   40   43 1  
    48   43   44 1  
    49   43   45 1  
    50   43   46 1  
    51    1   47 1  
    52    1   48 1  
    53    1   49 1  
    54    4   50 1  
    55    5   51 1  
    56    6   52 1  
    57    7   53 1  
    58   13   54 1  
    59   13   55 1  
    60   15   56 1  
    61   19   57 1  
    62   20   58 1  
    63   23   59 1  
    64   23   60 1  
    65   25   61 1  
    66   27   62 1  
    67   29   63 1  
    68   29   64 1  
    69   29   65 1  
    70   30   66 1  
    71   30   67 1  
    72   31   68 1  
    73   32   69 1  
    74   32   70 1  
    75   34   71 1  
    76   35   72 1  
    77   36   73 1  
    78   37   74 1  
@<TRIPOS>SUBSTRUCTURE
     1 7TO         1

