### 
### Created by X-TOOL on Mon Sep 10 21:13:09 2018
### 

@<TRIPOS>MOLECULE
4gtp_ligand
   78    83     1     0     0
SMALL
GAST_HUCK


@<TRIPOS>ATOM
      1 CAA        45.5410   50.7560   -4.1330 C.3       1 7TP         0.0594
      2 OBB        46.1320   52.0790   -3.8240 O.3       1 7TP        -0.3212
      3 CBG        47.4250   52.0550   -3.2990 C.ar      1 7TP         0.0908
      4 CAN        48.1640   53.2280   -3.2240 C.ar      1 7TP        -0.0313
      5 CAQ        49.4660   53.2550   -2.7060 C.ar      1 7TP        -0.0440
      6 CAM        48.0300   50.8850   -2.8350 C.ar      1 7TP        -0.0313
      7 CAP        49.3370   50.9000   -2.3230 C.ar      1 7TP        -0.0440
      8 CBJ        50.0810   52.0900   -2.2510 C.ar      1 7TP         0.0973
      9 SBR        51.7770   52.0380   -1.6390 S.o2      1 7TP         0.0675
     10 OAD        51.7880   50.9710   -0.6220 O.2       1 7TP        -0.1514
     11 OAE        52.3520   53.3670   -1.0790 O.2       1 7TP        -0.1514
     12 NBP        52.9520   51.6720   -2.7750 N.am      1 7TP        -0.2195
     13 CAX        52.9190   52.5570   -3.9270 C.3       1 7TP         0.0598
     14 CBI        51.7210   52.3690   -4.8120 C.ar      1 7TP        -0.0083
     15 CAV        51.3820   53.5800   -5.2850 C.ar      1 7TP        -0.0650
     16 CBH        50.3150   53.6060   -6.1390 C.ar      1 7TP        -0.0174
     17 CBL        49.9250   54.8340   -6.5490 C.2       1 7TP         0.1019
     18 OBC        50.7830   55.8000   -6.8890 O.3       1 7TP        -0.2591
     19 CAR        48.6660   55.2480   -6.5210 C.2       1 7TP        -0.0706
     20 CAL        48.6810   56.5080   -6.9190 C.2       1 7TP        -0.0627
     21 CBF        49.9700   56.8170   -7.1190 C.2       1 7TP         0.1238
     22 CAG        50.3950   58.1450   -7.6550 C.3       1 7TP         0.1095
     23 OAC        49.9240   58.4300   -8.7740 O.3       1 7TP        -0.3788
     24 CAO        49.5740   52.5080   -6.5050 C.ar      1 7TP        -0.0747
     25 CAS        49.9110   51.2940   -6.0140 C.ar      1 7TP        -0.0525
     26 CBM        50.9950   51.2430   -5.1590 C.ar      1 7TP         0.0443
     27 NBO        51.2890   50.0230   -4.7890 N.pl3     1 7TP        -0.2978
     28 CAY        50.2940   48.9450   -4.9020 C.3       1 7TP         0.0802
     29 CBK        50.6240   48.2100   -6.1920 C.2       1 7TP         0.0754
     30 CAT        51.6050   48.5550   -7.0520 C.2       1 7TP        -0.0257
     31 NBA        51.5930   47.6980   -8.0680 N.2       1 7TP        -0.3435
     32 CAU        50.6040   46.8210   -7.8470 C.2       1 7TP         0.0898
     33 NBQ        49.9960   47.1430   -6.6900 N.pl3     1 7TP        -0.2494
     34 CAB        48.8020   46.4050   -6.0970 C.3       1 7TP         0.0471
     35 CAZ        52.6740   49.6810   -4.4190 C.3       1 7TP         0.0491
     36 CBN        53.2380   50.2520   -3.1030 C.3       1 7TP         0.0702
     37 CAW        54.7970   50.0800   -3.1710 C.3       1 7TP        -0.0022
     38 CBE        55.4980   50.5500   -1.9100 C.ar      1 7TP        -0.0518
     39 CAJ        55.6920   49.6850   -0.8350 C.ar      1 7TP        -0.0687
     40 CAH        56.3020   50.1110    0.3470 C.ar      1 7TP        -0.0398
     41 CBD        56.7110   51.4440    0.4240 C.ar      1 7TP         0.0805
     42 OAF        57.3310   51.9390    1.5490 O.3       1 7TP        -0.3376
     43 CAI        56.5080   52.3040   -0.6700 C.ar      1 7TP        -0.0398
     44 CAK        55.8930   51.8610   -1.8370 C.ar      1 7TP        -0.0687
     45 H          46.1616   50.2452   -4.8692 H         1 7TP         0.0577
     46 H          45.4911   50.1600   -3.2217 H         1 7TP         0.0577
     47 H          44.5369   50.8929   -4.5346 H         1 7TP         0.0577
     48 H          47.7176   54.1569   -3.5791 H         1 7TP         0.0542
     49 H          50.0055   54.2009   -2.6583 H         1 7TP         0.0608
     50 H          47.4787   49.9454   -2.8710 H         1 7TP         0.0542
     51 H          49.7841   49.9692   -1.9740 H         1 7TP         0.0608
     52 H          53.8011   52.3362   -4.5280 H         1 7TP         0.0614
     53 H          52.8819   53.5782   -3.5476 H         1 7TP         0.0614
     54 H          51.9232   54.4839   -5.0056 H         1 7TP         0.0487
     55 H          47.7926   54.6653   -6.2281 H         1 7TP         0.0324
     56 H          47.8205   57.1627   -7.0566 H         1 7TP         0.0249
     57 H          51.4787   58.1102   -7.7663 H         1 7TP         0.0762
     58 H          50.0330   58.8997   -6.9567 H         1 7TP         0.0762
     59 H          48.9655   58.4447   -8.7222 H         1 7TP         0.2130
     60 H          48.7262   52.6143   -7.1818 H         1 7TP         0.0501
     61 H          49.3528   50.3965   -6.2806 H         1 7TP         0.0492
     62 H          49.2792   49.3424   -4.9206 H         1 7TP         0.0692
     63 H          50.3352   48.2757   -4.0427 H         1 7TP         0.0692
     64 H          52.2908   49.3939   -6.9336 H         1 7TP         0.0325
     65 H          50.3367   45.9867   -8.4955 H         1 7TP         0.1150
     66 H          49.0662   46.0220   -5.1113 H         1 7TP         0.0583
     67 H          47.9600   47.0914   -6.0077 H         1 7TP         0.0583
     68 H          48.5287   45.5756   -6.7493 H         1 7TP         0.0583
     69 H          53.2956   50.1064   -5.2069 H         1 7TP         0.0533
     70 H          52.6779   48.5989   -4.2881 H         1 7TP         0.0533
     71 H          52.7310   49.6965   -2.3140 H         1 7TP         0.0555
     72 H          55.1630   50.6848   -4.0007 H         1 7TP         0.0424
     73 H          55.0099   49.0181   -3.2944 H         1 7TP         0.0424
     74 H          55.3595   48.6503   -0.9186 H         1 7TP         0.0530
     75 H          56.4537   49.4261    1.1812 H         1 7TP         0.0525
     76 H          57.5367   52.8674    1.4173 H         1 7TP         0.2458
     77 H          56.8396   53.3401   -0.6024 H         1 7TP         0.0525
     78 H          55.7291   52.5403   -2.6735 H         1 7TP         0.0530
@<TRIPOS>BOND
     1    1    2 1  
     2    2    3 1  
     3    3    4 ar 
     4    3    6 ar 
     5    4    5 ar 
     6    5    8 ar 
     7    6    7 ar 
     8    7    8 ar 
     9    8    9 1  
    10    9   10 2  
    11    9   11 2  
    12    9   12 am 
    13   12   13 1  
    14   12   36 1  
    15   13   14 1  
    16   14   15 ar 
    17   14   26 ar 
    18   15   16 ar 
    19   16   17 1  
    20   16   24 ar 
    21   17   18 1  
    22   17   19 2  
    23   18   21 1  
    24   19   20 1  
    25   20   21 2  
    26   21   22 1  
    27   22   23 1  
    28   24   25 ar 
    29   25   26 ar 
    30   26   27 1  
    31   27   28 1  
    32   27   35 1  
    33   28   29 1  
    34   29   30 2  
    35   29   33 1  
    36   30   31 1  
    37   31   32 2  
    38   32   33 1  
    39   33   34 1  
    40   35   36 1  
    41   36   37 1  
    42   37   38 1  
    43   38   39 ar 
    44   38   44 ar 
    45   39   40 ar 
    46   40   41 ar 
    47   41   42 1  
    48   41   43 ar 
    49   43   44 ar 
    50    1   45 1  
    51    1   46 1  
    52    1   47 1  
    53    4   48 1  
    54    5   49 1  
    55    6   50 1  
    56    7   51 1  
    57   13   52 1  
    58   13   53 1  
    59   15   54 1  
    60   19   55 1  
    61   20   56 1  
    62   22   57 1  
    63   22   58 1  
    64   23   59 1  
    65   24   60 1  
    66   25   61 1  
    67   28   62 1  
    68   28   63 1  
    69   30   64 1  
    70   32   65 1  
    71   34   66 1  
    72   34   67 1  
    73   34   68 1  
    74   35   69 1  
    75   35   70 1  
    76   36   71 1  
    77   37   72 1  
    78   37   73 1  
    79   39   74 1  
    80   40   75 1  
    81   42   76 1  
    82   43   77 1  
    83   44   78 1  
@<TRIPOS>SUBSTRUCTURE
     1 7TP         1

