### 
### Created by X-TOOL on Mon Sep 10 21:13:09 2018
### 

@<TRIPOS>MOLECULE
4gtq_ligand
   85    90     1     0     0
SMALL
GAST_HUCK


@<TRIPOS>ATOM
      1 CAA       -21.1980   64.5940    3.6460 C.3       1 7TQ         0.0594
      2 OBG       -21.9180   65.8140    3.2950 O.3       1 7TQ        -0.3212
      3 CBM       -21.3550   66.9580    3.8060 C.ar      1 7TQ         0.0908
      4 CAS       -22.0720   68.1550    3.8430 C.ar      1 7TQ        -0.0313
      5 CAU       -21.4730   69.3060    4.3890 C.ar      1 7TQ        -0.0440
      6 CAR       -20.0590   66.9360    4.3200 C.ar      1 7TQ        -0.0313
      7 CAT       -19.4710   68.0780    4.8480 C.ar      1 7TQ        -0.0440
      8 CBP       -20.1570   69.2800    4.8870 C.ar      1 7TQ         0.0973
      9 SBW       -19.2260   70.8110    5.6030 S.o2      1 7TQ         0.0675
     10 OAE       -18.2300   70.3550    6.6720 O.2       1 7TQ        -0.1514
     11 OAF       -20.2080   71.8270    6.2260 O.2       1 7TQ        -0.1514
     12 NBU       -18.2610   71.6960    4.3880 N.am      1 7TQ        -0.2193
     13 CBB       -19.1360   72.1850    3.3070 C.3       1 7TQ         0.0625
     14 CBO       -19.6150   71.2810    2.3640 C.ar      1 7TQ         0.0062
     15 CAY       -20.7840   71.7710    1.7680 C.ar      1 7TQ        -0.0354
     16 CBJ       -21.4360   71.0490    0.7690 C.ar      1 7TQ         0.0746
     17 CAG       -22.6320   71.6220    0.1930 C.1       1 7TQ         0.0844
     18 NAC       -23.4490   72.0670   -0.1690 N.1       1 7TQ        -0.3394
     19 CAM       -20.9000   69.8420    0.3190 C.ar      1 7TQ        -0.0449
     20 CAV       -19.7510   69.3480    0.9180 C.ar      1 7TQ        -0.0376
     21 CBR       -19.0900   70.0490    1.9650 C.ar      1 7TQ         0.0575
     22 NBT       -17.9110   69.5110    2.4050 N.pl3     1 7TQ        -0.2908
     23 CBC       -17.5900   68.0860    2.2670 C.3       1 7TQ         0.0826
     24 CBQ       -16.7890   67.9650    0.9260 C.2       1 7TQ         0.0758
     25 CAW       -16.4210   68.9710    0.1060 C.2       1 7TQ        -0.0256
     26 NBE       -15.7350   68.4460   -0.9140 N.2       1 7TQ        -0.3435
     27 CAX       -15.6820   67.1390   -0.7340 C.2       1 7TQ         0.0898
     28 NBV       -16.3340   66.8270    0.4120 N.pl3     1 7TQ        -0.2493
     29 CAB       -16.4640   65.4290    0.9250 C.3       1 7TQ         0.0471
     30 CBD       -16.7690   70.3470    2.7720 C.3       1 7TQ         0.0516
     31 CBS       -16.9020   71.1620    4.0690 C.3       1 7TQ         0.0707
     32 CBA       -15.7920   72.2370    3.9540 C.3       1 7TQ        -0.0019
     33 CBL       -15.9530   73.2340    4.9060 C.ar      1 7TQ        -0.0511
     34 CAO       -16.7180   74.3640    4.5950 C.ar      1 7TQ        -0.0676
     35 CAQ       -16.8860   75.3750    5.5350 C.ar      1 7TQ        -0.0348
     36 CAN       -15.3350   73.1250    6.1600 C.ar      1 7TQ        -0.0676
     37 CAP       -15.5000   74.1300    7.1170 C.ar      1 7TQ        -0.0348
     38 CBN       -16.2690   75.2610    6.7950 C.ar      1 7TQ         0.1163
     39 OBH       -16.4710   76.2560    7.7190 O.3       1 7TQ        -0.2045
     40 CBI       -17.4260   75.7620    8.6040 C.2       1 7TQ         0.3445
     41 OAD       -17.2770   75.9400    9.8200 O.2       1 7TQ        -0.3725
     42 NBF       -18.5110   75.0750    8.1400 N.am      1 7TQ        -0.2478
     43 CAZ       -19.5160   74.4670    8.9760 C.3       1 7TQ         0.0667
     44 CBK       -20.2790   75.4170    9.6280 C.ar      1 7TQ        -0.0210
     45 CAK       -20.3700   75.4180   11.0120 C.ar      1 7TQ        -0.0584
     46 CAI       -21.1750   76.3520   11.6470 C.ar      1 7TQ        -0.0685
     47 CAH       -21.8940   77.2850   10.9090 C.ar      1 7TQ        -0.0687
     48 CAJ       -21.8080   77.2850    9.5280 C.ar      1 7TQ        -0.0685
     49 CAL       -20.9990   76.3410    8.8990 C.ar      1 7TQ        -0.0584
     50 H         -20.1791   64.6521    3.2633 H         1 7TQ         0.0577
     51 H         -21.1746   64.4867    4.7305 H         1 7TQ         0.0577
     52 H         -21.7045   63.7352    3.2055 H         1 7TQ         0.0577
     53 H         -23.0885   68.1982    3.4519 H         1 7TQ         0.0542
     54 H         -22.0400   70.2362    4.4268 H         1 7TQ         0.0608
     55 H         -19.4956   66.0030    4.3071 H         1 7TQ         0.0542
     56 H         -18.4542   68.0273    5.2375 H         1 7TQ         0.0608
     57 H         -18.5181   72.8809    2.7395 H         1 7TQ         0.0615
     58 H         -20.0256   72.5588    3.8140 H         1 7TQ         0.0615
     59 H         -21.1898   72.7302    2.0896 H         1 7TQ         0.0616
     60 H         -21.3783   69.2943   -0.4930 H         1 7TQ         0.0632
     61 H         -19.3430   68.3964    0.5773 H         1 7TQ         0.0525
     62 H         -18.4914   67.4734    2.2503 H         1 7TQ         0.0697
     63 H         -17.0074   67.7241    3.1142 H         1 7TQ         0.0697
     64 H         -16.6442   70.0281    0.2502 H         1 7TQ         0.0325
     65 H         -15.1933   66.4270   -1.3991 H         1 7TQ         0.1150
     66 H         -16.0029   65.3606    1.9103 H         1 7TQ         0.0583
     67 H         -17.5195   65.1666    0.9973 H         1 7TQ         0.0583
     68 H         -15.9641   64.7441    0.2401 H         1 7TQ         0.0583
     69 H         -16.6583   71.0753    1.9686 H         1 7TQ         0.0539
     70 H         -15.9341   69.6642    2.9295 H         1 7TQ         0.0539
     71 H         -16.7706   70.5185    4.9389 H         1 7TQ         0.0556
     72 H         -15.8500   72.6903    2.9644 H         1 7TQ         0.0426
     73 H         -14.8268   71.7569    4.1150 H         1 7TQ         0.0426
     74 H         -17.1834   74.4519    3.6133 H         1 7TQ         0.0532
     75 H         -17.4914   76.2498    5.2977 H         1 7TQ         0.0536
     76 H         -14.7232   72.2525    6.3894 H         1 7TQ         0.0532
     77 H         -15.0383   74.0377    8.1001 H         1 7TQ         0.0536
     78 H         -18.6181   74.9856    7.1296 H         1 7TQ         0.1897
     79 H         -19.0154   73.8540    9.7255 H         1 7TQ         0.0683
     80 H         -20.1746   73.8710    8.3443 H         1 7TQ         0.0683
     81 H         -19.8114   74.6881   11.5979 H         1 7TQ         0.0557
     82 H         -21.2445   76.3544   12.7348 H         1 7TQ         0.0599
     83 H         -22.5242   78.0150   11.4170 H         1 7TQ         0.0559
     84 H         -22.3658   78.0139    8.9400 H         1 7TQ         0.0599
     85 H         -20.9337   76.3323    7.8110 H         1 7TQ         0.0557
@<TRIPOS>BOND
     1    1    2 1  
     2    2    3 1  
     3    3    4 ar 
     4    3    6 ar 
     5    4    5 ar 
     6    5    8 ar 
     7    6    7 ar 
     8    7    8 ar 
     9    8    9 1  
    10    9   10 2  
    11    9   11 2  
    12    9   12 am 
    13   12   13 1  
    14   12   31 1  
    15   13   14 1  
    16   14   15 ar 
    17   14   21 ar 
    18   15   16 ar 
    19   16   17 1  
    20   16   19 ar 
    21   17   18 3  
    22   19   20 ar 
    23   20   21 ar 
    24   21   22 1  
    25   22   23 1  
    26   22   30 1  
    27   23   24 1  
    28   24   25 2  
    29   24   28 1  
    30   25   26 1  
    31   26   27 2  
    32   27   28 1  
    33   28   29 1  
    34   30   31 1  
    35   31   32 1  
    36   32   33 1  
    37   33   34 ar 
    38   33   36 ar 
    39   34   35 ar 
    40   35   38 ar 
    41   36   37 ar 
    42   37   38 ar 
    43   38   39 1  
    44   39   40 1  
    45   40   41 2  
    46   40   42 am 
    47   42   43 1  
    48   43   44 1  
    49   44   45 ar 
    50   44   49 ar 
    51   45   46 ar 
    52   46   47 ar 
    53   47   48 ar 
    54   48   49 ar 
    55    1   50 1  
    56    1   51 1  
    57    1   52 1  
    58    4   53 1  
    59    5   54 1  
    60    6   55 1  
    61    7   56 1  
    62   13   57 1  
    63   13   58 1  
    64   15   59 1  
    65   19   60 1  
    66   20   61 1  
    67   23   62 1  
    68   23   63 1  
    69   25   64 1  
    70   27   65 1  
    71   29   66 1  
    72   29   67 1  
    73   29   68 1  
    74   30   69 1  
    75   30   70 1  
    76   31   71 1  
    77   32   72 1  
    78   32   73 1  
    79   34   74 1  
    80   35   75 1  
    81   36   76 1  
    82   37   77 1  
    83   42   78 1  
    84   43   79 1  
    85   43   80 1  
    86   45   81 1  
    87   46   82 1  
    88   47   83 1  
    89   48   84 1  
    90   49   85 1  
@<TRIPOS>SUBSTRUCTURE
     1 7TQ         1

