### 
### Created by X-TOOL on Mon Sep 10 21:13:09 2018
### 

@<TRIPOS>MOLECULE
4gtr_ligand
   84    88     1     0     0
SMALL
GAST_HUCK


@<TRIPOS>ATOM
      1 CAA       -77.0280  -25.2800    1.8230 C.3       1 7TR        -0.0447
      2 CAW       -76.7850  -25.8070    3.2540 C.3       1 7TR         0.0332
      3 NBP       -76.8420  -24.6370    4.1570 N.am      1 7TR        -0.2460
      4 CAX       -78.1700  -24.2330    4.7120 C.3       1 7TR         0.0332
      5 CAB       -78.7220  -22.9150    4.0700 C.3       1 7TR        -0.0447
      6 CBF       -75.7040  -23.9810    4.4330 C.2       1 7TR         0.3451
      7 OAF       -75.6320  -22.9860    5.1660 O.2       1 7TR        -0.3725
      8 OBE       -74.5720  -24.4890    3.8290 O.3       1 7TR        -0.2045
      9 CBJ       -73.4680  -23.7380    3.5290 C.ar      1 7TR         0.1163
     10 CAN       -72.2670  -24.0540    4.1560 C.ar      1 7TR        -0.0348
     11 CAL       -71.1090  -23.3580    3.8750 C.ar      1 7TR        -0.0676
     12 CAM       -73.5110  -22.7000    2.6070 C.ar      1 7TR        -0.0348
     13 CAK       -72.3440  -22.0020    2.3290 C.ar      1 7TR        -0.0676
     14 CBH       -71.1510  -22.3070    2.9650 C.ar      1 7TR        -0.0511
     15 CAY       -69.8640  -21.5100    2.6590 C.3       1 7TR        -0.0019
     16 CBO       -69.7250  -20.1430    3.3730 C.3       1 7TR         0.0707
     17 CBB       -69.2130  -20.3190    4.8190 C.3       1 7TR         0.0516
     18 NBQ       -69.0630  -19.0090    5.5120 N.pl3     1 7TR        -0.2908
     19 CBA       -67.6740  -18.6010    5.7660 C.3       1 7TR         0.0826
     20 CBM       -67.1630  -19.3450    7.0120 C.2       1 7TR         0.0758
     21 CAT       -67.8480  -20.1960    7.7710 C.2       1 7TR        -0.0256
     22 NBC       -67.0550  -20.6290    8.7620 N.2       1 7TR        -0.3435
     23 CAU       -65.8630  -20.0400    8.6430 C.2       1 7TR         0.0898
     24 NBS       -65.9430  -19.2530    7.5650 N.pl3     1 7TR        -0.2493
     25 CAD       -64.8260  -18.4100    7.0600 C.3       1 7TR         0.0471
     26 CBN       -70.1140  -18.2720    5.9610 C.ar      1 7TR         0.0575
     27 CAS       -69.8330  -17.4010    7.0450 C.ar      1 7TR        -0.0376
     28 CAJ       -70.8550  -16.6220    7.5960 C.ar      1 7TR        -0.0449
     29 CBG       -72.1700  -16.7130    7.0780 C.ar      1 7TR         0.0746
     30 CAI       -73.2650  -15.9430    7.6290 C.1       1 7TR         0.0844
     31 NAE       -74.1610  -15.3670    8.0320 N.1       1 7TR        -0.3394
     32 CAV       -72.4600  -17.5800    6.0180 C.ar      1 7TR        -0.0354
     33 CBK       -71.4300  -18.3420    5.4740 C.ar      1 7TR         0.0062
     34 CAZ       -71.9670  -19.1920    4.3400 C.3       1 7TR         0.0625
     35 NBR       -71.0140  -19.3990    3.2130 N.am      1 7TR        -0.2193
     36 SBT       -70.7820  -18.0960    2.2070 S.o2      1 7TR         0.0675
     37 OAG       -69.9760  -18.5850    1.0200 O.2       1 7TR        -0.1514
     38 OAH       -72.1090  -17.6190    1.7010 O.2       1 7TR        -0.1514
     39 CBL       -69.9670  -16.6930    2.9690 C.ar      1 7TR         0.0973
     40 CAQ       -70.7380  -15.6480    3.5060 C.ar      1 7TR        -0.0440
     41 CAO       -70.1270  -14.5730    4.1310 C.ar      1 7TR        -0.0313
     42 CBI       -68.7380  -14.5560    4.1930 C.ar      1 7TR         0.0908
     43 OBD       -68.1060  -13.5110    4.7860 O.3       1 7TR        -0.3212
     44 CAC       -67.8030  -13.9110    6.1380 C.3       1 7TR         0.0594
     45 CAP       -67.9680  -15.5960    3.6640 C.ar      1 7TR        -0.0313
     46 CAR       -68.5750  -16.6570    3.0350 C.ar      1 7TR        -0.0440
     47 H         -78.0060  -24.8011    1.7748 H         1 7TR         0.0249
     48 H         -76.2544  -24.5559    1.5676 H         1 7TR         0.0249
     49 H         -76.9946  -26.1124    1.1201 H         1 7TR         0.0249
     50 H         -75.8173  -26.3036    3.3245 H         1 7TR         0.0519
     51 H         -77.5392  -26.5446    3.5281 H         1 7TR         0.0519
     52 H         -78.0452  -24.0566    5.7804 H         1 7TR         0.0519
     53 H         -78.8790  -25.0319    4.4950 H         1 7TR         0.0519
     54 H         -78.0216  -22.1008    4.2559 H         1 7TR         0.0249
     55 H         -78.8392  -23.0571    2.9957 H         1 7TR         0.0249
     56 H         -79.6880  -22.6733    4.5133 H         1 7TR         0.0249
     57 H         -72.2402  -24.8662    4.8825 H         1 7TR         0.0536
     58 H         -70.1717  -23.6290    4.3609 H         1 7TR         0.0532
     59 H         -74.4452  -22.4381    2.1103 H         1 7TR         0.0536
     60 H         -72.3663  -21.1967    1.5948 H         1 7TR         0.0532
     61 H         -69.8836  -21.2962    1.5904 H         1 7TR         0.0426
     62 H         -69.0339  -22.1236    3.0091 H         1 7TR         0.0426
     63 H         -68.9553  -19.5219    2.9150 H         1 7TR         0.0556
     64 H         -68.2367  -20.8022    4.7818 H         1 7TR         0.0539
     65 H         -69.9376  -20.9186    5.3699 H         1 7TR         0.0539
     66 H         -67.6281  -17.5247    5.9320 H         1 7TR         0.0697
     67 H         -67.0518  -18.8477    4.9057 H         1 7TR         0.0697
     68 H         -68.8848  -20.4930    7.6132 H         1 7TR         0.0325
     69 H         -64.9987  -20.1737    9.2935 H         1 7TR         0.1150
     70 H         -64.5717  -18.7159    6.0452 H         1 7TR         0.0583
     71 H         -65.1333  -17.3642    7.0593 H         1 7TR         0.0583
     72 H         -63.9575  -18.5344    7.7068 H         1 7TR         0.0583
     73 H         -68.8220  -17.3392    7.4477 H         1 7TR         0.0525
     74 H         -70.6399  -15.9455    8.4232 H         1 7TR         0.0632
     75 H         -73.4740  -17.6570    5.6257 H         1 7TR         0.0616
     76 H         -72.8319  -18.6684    3.9326 H         1 7TR         0.0615
     77 H         -72.1854  -20.1755    4.7561 H         1 7TR         0.0615
     78 H         -71.8248  -15.6835    3.4303 H         1 7TR         0.0608
     79 H         -70.7178  -13.7644    4.5614 H         1 7TR         0.0542
     80 H         -68.7291  -14.1482    6.6616 H         1 7TR         0.0577
     81 H         -67.1590  -14.7903    6.1197 H         1 7TR         0.0577
     82 H         -67.2926  -13.0959    6.6510 H         1 7TR         0.0577
     83 H         -66.8819  -15.5655    3.7506 H         1 7TR         0.0542
     84 H         -67.9782  -17.4563    2.5955 H         1 7TR         0.0608
@<TRIPOS>BOND
     1    1    2 1  
     2    2    3 1  
     3    3    4 1  
     4    3    6 am 
     5    4    5 1  
     6    6    7 2  
     7    6    8 1  
     8    8    9 1  
     9    9   10 ar 
    10    9   12 ar 
    11   10   11 ar 
    12   11   14 ar 
    13   12   13 ar 
    14   13   14 ar 
    15   14   15 1  
    16   15   16 1  
    17   16   17 1  
    18   16   35 1  
    19   17   18 1  
    20   18   19 1  
    21   18   26 1  
    22   19   20 1  
    23   20   21 2  
    24   20   24 1  
    25   21   22 1  
    26   22   23 2  
    27   23   24 1  
    28   24   25 1  
    29   26   27 ar 
    30   26   33 ar 
    31   27   28 ar 
    32   28   29 ar 
    33   29   30 1  
    34   29   32 ar 
    35   30   31 3  
    36   32   33 ar 
    37   33   34 1  
    38   34   35 1  
    39   35   36 am 
    40   36   37 2  
    41   36   38 2  
    42   36   39 1  
    43   39   40 ar 
    44   39   46 ar 
    45   40   41 ar 
    46   41   42 ar 
    47   42   43 1  
    48   42   45 ar 
    49   43   44 1  
    50   45   46 ar 
    51    1   47 1  
    52    1   48 1  
    53    1   49 1  
    54    2   50 1  
    55    2   51 1  
    56    4   52 1  
    57    4   53 1  
    58    5   54 1  
    59    5   55 1  
    60    5   56 1  
    61   10   57 1  
    62   11   58 1  
    63   12   59 1  
    64   13   60 1  
    65   15   61 1  
    66   15   62 1  
    67   16   63 1  
    68   17   64 1  
    69   17   65 1  
    70   19   66 1  
    71   19   67 1  
    72   21   68 1  
    73   23   69 1  
    74   25   70 1  
    75   25   71 1  
    76   25   72 1  
    77   27   73 1  
    78   28   74 1  
    79   32   75 1  
    80   34   76 1  
    81   34   77 1  
    82   40   78 1  
    83   41   79 1  
    84   44   80 1  
    85   44   81 1  
    86   44   82 1  
    87   45   83 1  
    88   46   84 1  
@<TRIPOS>SUBSTRUCTURE
     1 7TR         1

