### 
### Created by X-TOOL on Mon Sep 10 21:13:09 2018
### 

@<TRIPOS>MOLECULE
4gts_ligand
   76    81     1     0     0
SMALL
GAST_HUCK


@<TRIPOS>ATOM
      1 CAA         1.8770   17.8240   32.1160 C.3       1 7TP         0.0594
      2 OBB         3.2840   17.3430   32.0180 O.3       1 7TP        -0.3212
      3 CBG         4.0980   18.1560   31.2360 C.ar      1 7TP         0.0908
      4 CAN         3.8360   19.5290   31.1940 C.ar      1 7TP        -0.0313
      5 CAQ         4.6140   20.3930   30.4220 C.ar      1 7TP        -0.0440
      6 CAM         5.1760   17.6620   30.4690 C.ar      1 7TP        -0.0313
      7 CAP         5.9600   18.5240   29.6800 C.ar      1 7TP        -0.0440
      8 CBJ         5.6760   19.9080   29.6450 C.ar      1 7TP         0.0973
      9 SBR         6.6140   21.0990   28.6760 S.o2      1 7TP         0.0675
     10 OAD         8.0230   20.5950   28.4810 O.2       1 7TP        -0.1514
     11 OAE         6.6950   22.4120   29.4100 O.2       1 7TP        -0.1514
     12 NBP         5.9390   21.4300   27.0730 N.am      1 7TP        -0.2194
     13 CAX         4.6170   22.1250   26.9970 C.3       1 7TP         0.0607
     14 CBI         3.4660   21.3460   27.6500 C.ar      1 7TP        -0.0041
     15 CAV         2.6910   22.1480   28.4850 C.ar      1 7TP        -0.0591
     16 CBH         1.5850   21.6110   29.1670 C.ar      1 7TP        -0.0033
     17 CBL         0.8750   22.4690   30.0270 C.2       1 7TP         0.1186
     18 OBC         0.6010   23.7640   29.6880 O.3       1 7TP        -0.2492
     19 CAR         0.4390   22.2700   31.2840 C.2       1 7TP        -0.0485
     20 CAL        -0.1290   23.4040   31.7330 C.2       1 7TP        -0.0432
     21 CBF        -0.0200   24.3140   30.7600 C.2       1 7TP         0.1628
     22 CAG        -0.5260   25.7640   30.7830 C.2       1 7TP         0.1481
     23 OAC         0.2430   26.7270   30.8480 O.2       1 7TP        -0.3704
     24 CAO         1.2830   20.2460   29.0150 C.ar      1 7TP        -0.0687
     25 CAS         2.0650   19.4430   28.1680 C.ar      1 7TP        -0.0481
     26 CBM         3.1670   19.9990   27.4810 C.ar      1 7TP         0.0485
     27 NBO         3.8850   19.1780   26.6930 N.pl3     1 7TP        -0.2955
     28 CAY         3.8870   17.7090   26.9060 C.3       1 7TP         0.0810
     29 CBK         2.7840   17.0550   26.0510 C.2       1 7TP         0.0755
     30 CAT         1.7990   17.7190   25.4410 C.2       1 7TP        -0.0256
     31 NBA         1.0250   16.8410   24.8120 N.2       1 7TP        -0.3435
     32 CAU         1.5160   15.6180   25.0100 C.2       1 7TP         0.0898
     33 NBQ         2.5960   15.7490   25.7810 N.pl3     1 7TP        -0.2493
     34 CAB         3.4460   14.5720   26.2290 C.3       1 7TP         0.0471
     35 CAZ         4.7250   19.6930   25.5920 C.3       1 7TP         0.0500
     36 CBN         6.0670   20.2940   26.1110 C.3       1 7TP         0.0703
     37 CAW         6.9520   20.7200   24.9170 C.3       1 7TP        -0.0022
     38 CBE         6.6910   22.1600   24.4330 C.ar      1 7TP        -0.0518
     39 CAJ         7.3300   23.2260   25.0720 C.ar      1 7TP        -0.0687
     40 CAH         7.1060   24.5260   24.6450 C.ar      1 7TP        -0.0398
     41 CBD         6.2490   24.7760   23.5660 C.ar      1 7TP         0.0805
     42 OAF         6.0270   26.0630   23.1380 O.3       1 7TP        -0.3376
     43 CAI         5.6110   23.7010   22.9260 C.ar      1 7TP        -0.0398
     44 CAK         5.8330   22.3900   23.3520 C.ar      1 7TP        -0.0687
     45 H           1.8648   18.8198   32.5590 H         1 7TP         0.0577
     46 H           1.4374   17.8629   31.1193 H         1 7TP         0.0577
     47 H           1.3032   17.1398   32.7411 H         1 7TP         0.0577
     48 H           3.0074   19.9326   31.7760 H         1 7TP         0.0542
     49 H           4.3930   21.4604   30.4230 H         1 7TP         0.0608
     50 H           5.4043   16.5964   30.4885 H         1 7TP         0.0542
     51 H           6.7878   18.1235   29.0948 H         1 7TP         0.0608
     52 H           4.3720   22.2410   25.9412 H         1 7TP         0.0614
     53 H           4.7155   23.0685   27.5338 H         1 7TP         0.0614
     54 H           2.9443   23.2007   28.6106 H         1 7TP         0.0521
     55 H           0.5309   21.3412   31.8471 H         1 7TP         0.0377
     56 H          -0.5919   23.5529   32.7085 H         1 7TP         0.0455
     57 H          -1.5994   25.9485   30.7405 H         1 7TP         0.1325
     58 H           0.4418   19.8108   29.5546 H         1 7TP         0.0537
     59 H           1.8208   18.3884   28.0406 H         1 7TP         0.0503
     60 H           3.6994   17.4976   27.9587 H         1 7TP         0.0694
     61 H           4.8561   17.3042   26.6144 H         1 7TP         0.0694
     62 H           1.6543   18.7992   25.4565 H         1 7TP         0.0325
     63 H           1.1110   14.6860   24.6158 H         1 7TP         0.1150
     64 H           4.4609   14.6934   25.8503 H         1 7TP         0.0583
     65 H           3.4654   14.5332   27.3181 H         1 7TP         0.0583
     66 H           3.0193   13.6480   25.8388 H         1 7TP         0.0583
     67 H           4.1725   20.4830   25.0834 H         1 7TP         0.0535
     68 H           4.9591   18.8628   24.9256 H         1 7TP         0.0535
     69 H           6.5297   19.4890   26.6819 H         1 7TP         0.0556
     70 H           6.7229   20.0513   24.0873 H         1 7TP         0.0424
     71 H           7.9896   20.6708   25.2472 H         1 7TP         0.0424
     72 H           8.0048   23.0354   25.9065 H         1 7TP         0.0530
     73 H           7.5987   25.3563   25.1509 H         1 7TP         0.0525
     74 H           5.6484   26.5767   23.8552 H         1 7TP         0.2458
     75 H           4.9375   23.8915   22.0904 H         1 7TP         0.0525
     76 H           5.3439   21.5560   22.8486 H         1 7TP         0.0530
@<TRIPOS>BOND
     1    1    2 1  
     2    2    3 1  
     3    3    4 ar 
     4    3    6 ar 
     5    4    5 ar 
     6    5    8 ar 
     7    6    7 ar 
     8    7    8 ar 
     9    8    9 1  
    10    9   10 2  
    11    9   11 2  
    12    9   12 am 
    13   12   13 1  
    14   12   36 1  
    15   13   14 1  
    16   14   15 ar 
    17   14   26 ar 
    18   15   16 ar 
    19   16   17 1  
    20   16   24 ar 
    21   17   18 1  
    22   17   19 2  
    23   18   21 1  
    24   19   20 1  
    25   20   21 2  
    26   21   22 1  
    27   22   23 2  
    28   24   25 ar 
    29   25   26 ar 
    30   26   27 1  
    31   27   28 1  
    32   27   35 1  
    33   28   29 1  
    34   29   30 2  
    35   29   33 1  
    36   30   31 1  
    37   31   32 2  
    38   32   33 1  
    39   33   34 1  
    40   35   36 1  
    41   36   37 1  
    42   37   38 1  
    43   38   39 ar 
    44   38   44 ar 
    45   39   40 ar 
    46   40   41 ar 
    47   41   42 1  
    48   41   43 ar 
    49   43   44 ar 
    50    1   45 1  
    51    1   46 1  
    52    1   47 1  
    53    4   48 1  
    54    5   49 1  
    55    6   50 1  
    56    7   51 1  
    57   13   52 1  
    58   13   53 1  
    59   15   54 1  
    60   19   55 1  
    61   20   56 1  
    62   22   57 1  
    63   24   58 1  
    64   25   59 1  
    65   28   60 1  
    66   28   61 1  
    67   30   62 1  
    68   32   63 1  
    69   34   64 1  
    70   34   65 1  
    71   34   66 1  
    72   35   67 1  
    73   35   68 1  
    74   36   69 1  
    75   37   70 1  
    76   37   71 1  
    77   39   72 1  
    78   40   73 1  
    79   42   74 1  
    80   43   75 1  
    81   44   76 1  
@<TRIPOS>SUBSTRUCTURE
     1 7TP         1

