### 
### Created by X-TOOL on Mon Sep 10 21:13:09 2018
### 

@<TRIPOS>MOLECULE
4gtt_ligand
   85    90     1     0     0
SMALL
GAST_HUCK


@<TRIPOS>ATOM
      1 CAA         1.0940   18.4320   32.2560 C.3       1 7TQ         0.0594
      2 OBG         2.4220   17.9240   32.4580 O.3       1 7TQ        -0.3212
      3 CBM         3.3640   18.5170   31.6620 C.ar      1 7TQ         0.0908
      4 CAS         3.4210   19.9070   31.5250 C.ar      1 7TQ        -0.0313
      5 CAU         4.3910   20.4940   30.7150 C.ar      1 7TQ        -0.0440
      6 CAR         4.2940   17.7250   30.9870 C.ar      1 7TQ        -0.0313
      7 CAT         5.2690   18.3130   30.1780 C.ar      1 7TQ        -0.0440
      8 CBP         5.3170   19.7020   30.0320 C.ar      1 7TQ         0.0973
      9 SBW         6.5730   20.4770   28.9810 S.o2      1 7TQ         0.0675
     10 OAE         7.6480   19.4480   28.6140 O.2       1 7TQ        -0.1514
     11 OAF         7.2250   21.6310   29.7510 O.2       1 7TQ        -0.1514
     12 NBU         5.8030   21.2360   27.3240 N.am      1 7TQ        -0.2193
     13 CBB         4.6450   22.0950   27.6430 C.3       1 7TQ         0.0625
     14 CBO         3.4450   21.4260   27.8430 C.ar      1 7TQ         0.0062
     15 CAY         2.5410   22.3650   28.3420 C.ar      1 7TQ        -0.0354
     16 CBJ         1.2430   22.0140   28.6560 C.ar      1 7TQ         0.0746
     17 CAG         0.3400   23.0130   29.1730 C.1       1 7TQ         0.0844
     18 NAC        -0.3820   23.8260   29.5850 N.1       1 7TQ        -0.3394
     19 CAM         0.8470   20.6990   28.4610 C.ar      1 7TQ        -0.0449
     20 CAV         1.7440   19.7530   27.9590 C.ar      1 7TQ        -0.0376
     21 CBR         3.0740   20.0870   27.6220 C.ar      1 7TQ         0.0575
     22 NBT         3.8450   19.0390   27.1720 N.pl3     1 7TQ        -0.2908
     23 CBC         3.4930   17.6660   27.5710 C.3       1 7TQ         0.0826
     24 CBQ         2.7950   16.9520   26.3970 C.2       1 7TQ         0.0758
     25 CAW         2.1130   17.5480   25.4240 C.2       1 7TQ        -0.0256
     26 NBE         1.6730   16.5810   24.6200 N.2       1 7TQ        -0.3435
     27 CAX         2.0830   15.4050   25.0970 C.2       1 7TQ         0.0898
     28 NBV         2.7840   15.6330   26.2070 N.pl3     1 7TQ        -0.2493
     29 CAB         3.4190   14.5860   27.0520 C.3       1 7TQ         0.0471
     30 CBD         5.1010   19.0060   26.4200 C.3       1 7TQ         0.0516
     31 CBS         5.6710   20.3870   26.0950 C.3       1 7TQ         0.0707
     32 CBA         4.8610   20.9470   24.9310 C.3       1 7TQ        -0.0019
     33 CBL         5.4680   22.0840   24.3410 C.ar      1 7TQ        -0.0511
     34 CAO         5.1190   22.3740   23.0150 C.ar      1 7TQ        -0.0676
     35 CAQ         5.6700   23.4600   22.3410 C.ar      1 7TQ        -0.0348
     36 CAN         6.4050   22.9100   24.9810 C.ar      1 7TQ        -0.0676
     37 CAP         6.9530   23.9920   24.3100 C.ar      1 7TQ        -0.0348
     38 CBN         6.6010   24.2710   22.9950 C.ar      1 7TQ         0.1163
     39 OBH         7.1980   25.3550   22.4210 O.3       1 7TQ        -0.2045
     40 CBI         7.5360   25.3550   21.1000 C.2       1 7TQ         0.3445
     41 OAD         7.7470   24.3180   20.4690 O.2       1 7TQ        -0.3725
     42 NBF         7.6430   26.5460   20.5200 N.am      1 7TQ        -0.2478
     43 CAZ         7.9700   26.7630   19.1280 C.3       1 7TQ         0.0667
     44 CBK         6.8420   27.4000   18.5770 C.ar      1 7TQ        -0.0210
     45 CAK         6.4150   27.0670   17.3030 C.ar      1 7TQ        -0.0584
     46 CAI         5.3110   27.7060   16.7520 C.ar      1 7TQ        -0.0685
     47 CAH         4.6050   28.6820   17.4530 C.ar      1 7TQ        -0.0687
     48 CAJ         5.0170   29.0150   18.7270 C.ar      1 7TQ        -0.0685
     49 CAL         6.1260   28.3790   19.2730 C.ar      1 7TQ        -0.0584
     50 H           1.0780   19.5000   32.4732 H         1 7TQ         0.0577
     51 H           0.7964   18.2660   31.2206 H         1 7TQ         0.0577
     52 H           0.4032   17.9142   32.9214 H         1 7TQ         0.0577
     53 H           2.7036   20.5343   32.0541 H         1 7TQ         0.0542
     54 H           4.4275   21.5787   30.6136 H         1 7TQ         0.0608
     55 H           4.2592   16.6406   31.0918 H         1 7TQ         0.0542
     56 H           5.9946   17.6867   29.6590 H         1 7TQ         0.0608
     57 H           4.4971   22.7498   26.7843 H         1 7TQ         0.0615
     58 H           4.8803   22.5994   28.5802 H         1 7TQ         0.0615
     59 H           2.8659   23.3953   28.4866 H         1 7TQ         0.0616
     60 H          -0.1735   20.4010   28.7017 H         1 7TQ         0.0632
     61 H           1.4069   18.7254   27.8233 H         1 7TQ         0.0525
     62 H           2.8203   17.6982   28.4280 H         1 7TQ         0.0697
     63 H           4.3988   17.1225   27.8396 H         1 7TQ         0.0697
     64 H           1.9463   18.6188   25.3068 H         1 7TQ         0.0325
     65 H           1.8803   14.4289   24.6563 H         1 7TQ         0.1150
     66 H           4.4945   14.7578   27.0941 H         1 7TQ         0.0583
     67 H           3.0028   14.6314   28.0584 H         1 7TQ         0.0583
     68 H           3.2232   13.6044   26.6204 H         1 7TQ         0.0583
     69 H           4.8956   18.5106   25.4711 H         1 7TQ         0.0539
     70 H           5.8350   18.4923   27.0409 H         1 7TQ         0.0539
     71 H           6.7057   20.3487   25.7543 H         1 7TQ         0.0556
     72 H           3.8865   21.2486   25.3151 H         1 7TQ         0.0426
     73 H           4.7896   20.1714   24.1684 H         1 7TQ         0.0426
     74 H           4.4008   21.7355   22.5006 H         1 7TQ         0.0532
     75 H           5.3781   23.6756   21.3132 H         1 7TQ         0.0536
     76 H           6.7025   22.7001   26.0084 H         1 7TQ         0.0532
     77 H           7.6707   24.6335   24.8214 H         1 7TQ         0.0536
     78 H           7.4824   27.3692   21.1004 H         1 7TQ         0.1897
     79 H           8.1915   25.8261   18.6169 H         1 7TQ         0.0683
     80 H           8.8683   27.3702   19.0166 H         1 7TQ         0.0683
     81 H           6.9445   26.3040   16.7324 H         1 7TQ         0.0557
     82 H           4.9889   27.4371   15.7460 H         1 7TQ         0.0599
     83 H           3.7426   29.1736   17.0027 H         1 7TQ         0.0559
     84 H           4.4780   29.7696   19.2999 H         1 7TQ         0.0599
     85 H           6.4484   28.6527   20.2776 H         1 7TQ         0.0557
@<TRIPOS>BOND
     1    1    2 1  
     2    2    3 1  
     3    3    4 ar 
     4    3    6 ar 
     5    4    5 ar 
     6    5    8 ar 
     7    6    7 ar 
     8    7    8 ar 
     9    8    9 1  
    10    9   10 2  
    11    9   11 2  
    12    9   12 am 
    13   12   13 1  
    14   12   31 1  
    15   13   14 1  
    16   14   15 ar 
    17   14   21 ar 
    18   15   16 ar 
    19   16   17 1  
    20   16   19 ar 
    21   17   18 3  
    22   19   20 ar 
    23   20   21 ar 
    24   21   22 1  
    25   22   23 1  
    26   22   30 1  
    27   23   24 1  
    28   24   25 2  
    29   24   28 1  
    30   25   26 1  
    31   26   27 2  
    32   27   28 1  
    33   28   29 1  
    34   30   31 1  
    35   31   32 1  
    36   32   33 1  
    37   33   34 ar 
    38   33   36 ar 
    39   34   35 ar 
    40   35   38 ar 
    41   36   37 ar 
    42   37   38 ar 
    43   38   39 1  
    44   39   40 1  
    45   40   41 2  
    46   40   42 am 
    47   42   43 1  
    48   43   44 1  
    49   44   45 ar 
    50   44   49 ar 
    51   45   46 ar 
    52   46   47 ar 
    53   47   48 ar 
    54   48   49 ar 
    55    1   50 1  
    56    1   51 1  
    57    1   52 1  
    58    4   53 1  
    59    5   54 1  
    60    6   55 1  
    61    7   56 1  
    62   13   57 1  
    63   13   58 1  
    64   15   59 1  
    65   19   60 1  
    66   20   61 1  
    67   23   62 1  
    68   23   63 1  
    69   25   64 1  
    70   27   65 1  
    71   29   66 1  
    72   29   67 1  
    73   29   68 1  
    74   30   69 1  
    75   30   70 1  
    76   31   71 1  
    77   32   72 1  
    78   32   73 1  
    79   34   74 1  
    80   35   75 1  
    81   36   76 1  
    82   37   77 1  
    83   42   78 1  
    84   43   79 1  
    85   43   80 1  
    86   45   81 1  
    87   46   82 1  
    88   47   83 1  
    89   48   84 1  
    90   49   85 1  
@<TRIPOS>SUBSTRUCTURE
     1 7TQ         1

