### 
### Created by X-TOOL on Mon Sep 10 21:13:09 2018
### 

@<TRIPOS>MOLECULE
4gtv_ligand
   84    88     1     0     0
SMALL
GAST_HUCK


@<TRIPOS>ATOM
      1 CAA         6.5450   22.1670   18.4190 C.3       1 7TR        -0.0447
      2 CAW         6.2470   23.5660   18.9910 C.3       1 7TR         0.0332
      3 NBP         7.3770   23.9830   19.8430 N.am      1 7TR        -0.2460
      4 CAX         8.4670   24.7490   19.2110 C.3       1 7TR         0.0332
      5 CAB         7.9660   26.1600   18.8980 C.3       1 7TR        -0.0447
      6 CBF         7.4190   23.6660   21.1360 C.2       1 7TR         0.3451
      7 OAF         8.3540   23.9930   21.8630 O.2       1 7TR        -0.3725
      8 OBE         6.3690   22.9620   21.6590 O.3       1 7TR        -0.2045
      9 CBJ         6.6000   22.1530   22.7340 C.ar      1 7TR         0.1163
     10 CAN         6.5560   20.7720   22.5740 C.ar      1 7TR        -0.0348
     11 CAL         6.7780   19.9300   23.6590 C.ar      1 7TR        -0.0676
     12 CAM         6.8510   22.6930   23.9960 C.ar      1 7TR        -0.0348
     13 CAK         7.0750   21.8500   25.0820 C.ar      1 7TR        -0.0676
     14 CBH         7.0370   20.4670   24.9160 C.ar      1 7TR        -0.0511
     15 CAY         7.2680   19.5340   26.1030 C.3       1 7TR        -0.0019
     16 CBO         6.0720   19.5580   27.0750 C.3       1 7TR         0.0707
     17 CBB         4.7750   19.1130   26.3700 C.3       1 7TR         0.0516
     18 NBQ         3.7510   18.8530   27.3850 N.pl3     1 7TR        -0.2908
     19 CBA         3.5280   17.4580   27.7900 C.3       1 7TR         0.0826
     20 CBM         2.5410   16.7790   26.8250 C.2       1 7TR         0.0758
     21 CAT         1.9200   17.3150   25.7750 C.2       1 7TR        -0.0256
     22 NBC         1.1460   16.3780   25.2160 N.2       1 7TR        -0.3435
     23 CAU         1.2810   15.2520   25.9140 C.2       1 7TR         0.0898
     24 NBS         2.1340   15.5170   26.9000 N.pl3     1 7TR        -0.2493
     25 CAD         2.5760   14.5480   27.9340 C.3       1 7TR         0.0471
     26 CBN         3.0310   19.8300   27.9230 C.ar      1 7TR         0.0575
     27 CAS         1.7920   19.4580   28.4650 C.ar      1 7TR        -0.0376
     28 CAJ         0.9570   20.4290   29.0420 C.ar      1 7TR        -0.0449
     29 CBG         1.3720   21.7610   29.0790 C.ar      1 7TR         0.0746
     30 CAI         0.5520   22.7780   29.6620 C.1       1 7TR         0.0844
     31 NAE        -0.0820   23.5990   30.1250 N.1       1 7TR        -0.3394
     32 CAV         2.6080   22.1180   28.5430 C.ar      1 7TR        -0.0354
     33 CBK         3.4370   21.1520   27.9690 C.ar      1 7TR         0.0062
     34 CAZ         4.7540   21.7300   27.4280 C.3       1 7TR         0.0625
     35 NBR         5.9950   20.9220   27.6720 N.am      1 7TR        -0.2193
     36 SBT         6.5570   20.8960   29.2660 S.o2      1 7TR         0.0675
     37 OAG         7.9140   20.2660   29.3100 O.2       1 7TR        -0.1514
     38 OAH         6.6850   22.3050   29.7510 O.2       1 7TR        -0.1514
     39 CBL         5.4880   20.0090   30.3330 C.ar      1 7TR         0.0973
     40 CAQ         4.4790   20.6900   31.0080 C.ar      1 7TR        -0.0440
     41 CAO         3.6200   20.0030   31.8580 C.ar      1 7TR        -0.0313
     42 CBI         3.7650   18.6250   32.0340 C.ar      1 7TR         0.0908
     43 OBD         2.9300   17.9420   32.8710 O.3       1 7TR        -0.3212
     44 CAC         1.5470   18.2900   32.6470 C.3       1 7TR         0.0594
     45 CAP         4.7770   17.9460   31.3590 C.ar      1 7TR        -0.0313
     46 CAR         5.6400   18.6350   30.5100 C.ar      1 7TR        -0.0440
     47 H           7.4596   22.2051   17.8273 H         1 7TR         0.0249
     48 H           6.6703   21.4598   19.2389 H         1 7TR         0.0249
     49 H           5.7151   21.8498   17.7875 H         1 7TR         0.0249
     50 H           5.3312   23.5359   19.5814 H         1 7TR         0.0519
     51 H           6.1171   24.2779   18.1759 H         1 7TR         0.0519
     52 H           8.7772   24.2559   18.2898 H         1 7TR         0.0519
     53 H           9.3195   24.8029   19.8881 H         1 7TR         0.0519
     54 H           7.1157   26.0999   18.2187 H         1 7TR         0.0249
     55 H           7.6600   26.6490   19.8228 H         1 7TR         0.0249
     56 H           8.7666   26.7330   18.4302 H         1 7TR         0.0249
     57 H           6.3463   20.3469   21.5925 H         1 7TR         0.0536
     58 H           6.7490   18.8488   23.5241 H         1 7TR         0.0532
     59 H           6.8718   23.7743   24.1319 H         1 7TR         0.0536
     60 H           7.2807   22.2736   26.0650 H         1 7TR         0.0532
     61 H           8.1571   19.8672   26.6384 H         1 7TR         0.0426
     62 H           7.3896   18.5180   25.7273 H         1 7TR         0.0426
     63 H           6.2095   18.8399   27.8834 H         1 7TR         0.0556
     64 H           4.9607   18.2075   25.7923 H         1 7TR         0.0539
     65 H           4.4343   19.8973   25.6941 H         1 7TR         0.0539
     66 H           3.1129   17.4400   28.7977 H         1 7TR         0.0697
     67 H           4.4771   16.9225   27.7665 H         1 7TR         0.0697
     68 H           2.0250   18.3435   25.4297 H         1 7TR         0.0325
     69 H           0.7890   14.2997   25.7162 H         1 7TR         0.1150
     70 H           3.6574   14.4243   27.8756 H         1 7TR         0.0583
     71 H           2.3046   14.9227   28.9209 H         1 7TR         0.0583
     72 H           2.0894   13.5879   27.7620 H         1 7TR         0.0583
     73 H           1.4769   18.4149   28.4384 H         1 7TR         0.0525
     74 H          -0.0092   20.1439   29.4583 H         1 7TR         0.0632
     75 H           2.9299   23.1590   28.5721 H         1 7TR         0.0616
     76 H           4.9038   22.6753   27.9495 H         1 7TR         0.0615
     77 H           4.6371   21.7815   26.3455 H         1 7TR         0.0615
     78 H           4.3621   21.7649   30.8697 H         1 7TR         0.0608
     79 H           2.8329   20.5399   32.3874 H         1 7TR         0.0542
     80 H           1.4096   19.3573   32.8204 H         1 7TR         0.0577
     81 H           1.2751   18.0496   31.6192 H         1 7TR         0.0577
     82 H           0.9158   17.7249   33.3328 H         1 7TR         0.0577
     83 H           4.8940   16.8710   31.4958 H         1 7TR         0.0542
     84 H           6.4322   18.1009   29.9854 H         1 7TR         0.0608
@<TRIPOS>BOND
     1    1    2 1  
     2    2    3 1  
     3    3    4 1  
     4    3    6 am 
     5    4    5 1  
     6    6    7 2  
     7    6    8 1  
     8    8    9 1  
     9    9   10 ar 
    10    9   12 ar 
    11   10   11 ar 
    12   11   14 ar 
    13   12   13 ar 
    14   13   14 ar 
    15   14   15 1  
    16   15   16 1  
    17   16   17 1  
    18   16   35 1  
    19   17   18 1  
    20   18   19 1  
    21   18   26 1  
    22   19   20 1  
    23   20   21 2  
    24   20   24 1  
    25   21   22 1  
    26   22   23 2  
    27   23   24 1  
    28   24   25 1  
    29   26   27 ar 
    30   26   33 ar 
    31   27   28 ar 
    32   28   29 ar 
    33   29   30 1  
    34   29   32 ar 
    35   30   31 3  
    36   32   33 ar 
    37   33   34 1  
    38   34   35 1  
    39   35   36 am 
    40   36   37 2  
    41   36   38 2  
    42   36   39 1  
    43   39   40 ar 
    44   39   46 ar 
    45   40   41 ar 
    46   41   42 ar 
    47   42   43 1  
    48   42   45 ar 
    49   43   44 1  
    50   45   46 ar 
    51    1   47 1  
    52    1   48 1  
    53    1   49 1  
    54    2   50 1  
    55    2   51 1  
    56    4   52 1  
    57    4   53 1  
    58    5   54 1  
    59    5   55 1  
    60    5   56 1  
    61   10   57 1  
    62   11   58 1  
    63   12   59 1  
    64   13   60 1  
    65   15   61 1  
    66   15   62 1  
    67   16   63 1  
    68   17   64 1  
    69   17   65 1  
    70   19   66 1  
    71   19   67 1  
    72   21   68 1  
    73   23   69 1  
    74   25   70 1  
    75   25   71 1  
    76   25   72 1  
    77   27   73 1  
    78   28   74 1  
    79   32   75 1  
    80   34   76 1  
    81   34   77 1  
    82   40   78 1  
    83   41   79 1  
    84   44   80 1  
    85   44   81 1  
    86   44   82 1  
    87   45   83 1  
    88   46   84 1  
@<TRIPOS>SUBSTRUCTURE
     1 7TR         1

