### 
### Created by X-TOOL on Mon Sep 10 21:13:13 2018
### 

@<TRIPOS>MOLECULE
4gu6_ligand
   51    54     1     0     0
SMALL
GAST_HUCK


@<TRIPOS>ATOM
      1 N1         23.6300   -6.7070  -39.4170 N.ar      1 10N        -0.2941
      2 C2         22.8430   -5.6860  -39.2580 C.ar      1 10N         0.0143
      3 C3         21.9770   -5.2720  -40.2670 C.ar      1 10N         0.1243
      4 C4         21.9470   -5.9660  -41.4930 C.ar      1 10N         0.0926
      5 N5         21.0770   -5.5250  -42.4790 N.pl3     1 10N        -0.2958
      6 C6         20.6900   -6.4950  -43.5060 C.3       1 10N         0.0654
      7 C7         19.6910   -5.8400  -44.4350 C.ar      1 10N         0.0254
      8 C8         20.1470   -5.0740  -45.4900 C.ar      1 10N        -0.0549
      9 C9         19.2240   -4.4770  -46.3330 C.ar      1 10N        -0.0599
     10 C10        17.8820   -4.6630  -46.1010 C.ar      1 10N        -0.0178
     11 N11        17.4700   -5.3940  -45.0900 N.ar      1 10N        -0.2978
     12 C12        18.3130   -5.9760  -44.2610 C.ar      1 10N         0.1409
     13 N13        17.7720   -6.7340  -43.2310 N.am      1 10N        -0.1662
     14 S14        17.3180   -6.0310  -41.8050 S.o2      1 10N         0.0614
     15 O15        18.2670   -5.0310  -41.5760 O.2       1 10N        -0.1495
     16 O16        15.9740   -5.6840  -42.0250 O.2       1 10N        -0.1495
     17 C17        17.4290   -7.3530  -40.5820 C.3       1 10N         0.0794
     18 C18        17.5610   -8.1620  -43.4390 C.3       1 10N         0.0470
     19 C19        22.8230   -7.0650  -41.6240 C.ar      1 10N         0.0384
     20 C20        23.6570   -7.3990  -40.5400 C.ar      1 10N         0.1304
     21 N21        24.3970   -8.4790  -40.8980 N.pl3     1 10N        -0.2631
     22 C22        24.0890   -8.8670  -42.1670 C.2       1 10N         0.0663
     23 C23        23.1320   -8.0440  -42.6680 C.2       1 10N        -0.0450
     24 C24        24.7330  -10.0160  -42.8340 C.ar      1 10N         0.0029
     25 C25        25.9100  -10.5450  -42.3020 C.ar      1 10N        -0.0537
     26 C26        26.5230  -11.6170  -42.9100 C.ar      1 10N        -0.0627
     27 C27        25.9680  -12.1730  -44.0430 C.ar      1 10N        -0.0632
     28 C28        24.8020  -11.6570  -44.5740 C.ar      1 10N        -0.0627
     29 C29        24.1800  -10.5850  -43.9770 C.ar      1 10N        -0.0537
     30 C30        21.1340   -4.1480  -40.0250 C.1       1 10N         0.0833
     31 N31        20.4720   -3.2580  -39.8250 N.1       1 10N        -0.3466
     32 H1         22.8607   -5.1442  -38.3193 H         1 10N         0.0801
     33 H2         20.7193   -4.5592  -42.4886 H         1 10N         0.1896
     34 H3         20.2326   -7.3754  -43.0310 H         1 10N         0.0675
     35 H4         21.5780   -6.8057  -44.0760 H         1 10N         0.0675
     36 H5         21.2101   -4.9421  -45.6557 H         1 10N         0.0616
     37 H6         19.5566   -3.8695  -47.1669 H         1 10N         0.0543
     38 H7         17.1553   -4.2013  -46.7597 H         1 10N         0.0703
     39 H8         17.1400   -6.9641  -39.5945 H         1 10N         0.0488
     40 H9         18.4622   -7.7282  -40.5403 H         1 10N         0.0488
     41 H10        16.7524   -8.1726  -40.8656 H         1 10N         0.0488
     42 H11        17.9232   -8.4444  -44.4385 H         1 10N         0.0524
     43 H12        16.4877   -8.3894  -43.3603 H         1 10N         0.0524
     44 H13        18.1130   -8.7293  -42.6752 H         1 10N         0.0524
     45 H14        25.0933   -8.9402  -40.2952 H         1 10N         0.2280
     46 H15        22.6806   -8.1012  -43.6574 H         1 10N         0.0364
     47 H16        26.3424  -10.1106  -41.4079 H         1 10N         0.0612
     48 H17        27.4401  -12.0232  -42.4989 H         1 10N         0.0613
     49 H18        26.4492  -13.0194  -44.5195 H         1 10N         0.0605
     50 H19        24.3745  -12.0994  -45.4665 H         1 10N         0.0613
     51 H20        23.2632  -10.1854  -44.3952 H         1 10N         0.0612
@<TRIPOS>BOND
     1    1    2 ar 
     2    1   20 ar 
     3    2    3 ar 
     4    3    4 ar 
     5    3   30 1  
     6    4    5 1  
     7    4   19 ar 
     8    5    6 1  
     9    6    7 1  
    10    7    8 ar 
    11    7   12 ar 
    12    8    9 ar 
    13    9   10 ar 
    14   10   11 ar 
    15   11   12 ar 
    16   12   13 1  
    17   13   14 am 
    18   13   18 1  
    19   14   15 2  
    20   14   16 2  
    21   14   17 1  
    22   19   20 ar 
    23   19   23 1  
    24   20   21 1  
    25   21   22 1  
    26   22   23 2  
    27   22   24 1  
    28   24   25 ar 
    29   24   29 ar 
    30   25   26 ar 
    31   26   27 ar 
    32   27   28 ar 
    33   28   29 ar 
    34   30   31 3  
    35    2   32 1  
    36    5   33 1  
    37    6   34 1  
    38    6   35 1  
    39    8   36 1  
    40    9   37 1  
    41   10   38 1  
    42   17   39 1  
    43   17   40 1  
    44   17   41 1  
    45   18   42 1  
    46   18   43 1  
    47   18   44 1  
    48   21   45 1  
    49   23   46 1  
    50   25   47 1  
    51   26   48 1  
    52   27   49 1  
    53   28   50 1  
    54   29   51 1  
@<TRIPOS>SUBSTRUCTURE
     1 10N         1

