### 
### Created by X-TOOL on Mon Sep 10 21:13:13 2018
### 

@<TRIPOS>MOLECULE
4gu9_ligand
   25    27     1     0     0
SMALL
GAST_HUCK


@<TRIPOS>ATOM
      1 C1         13.0880   26.8810  -42.1700 C.ar      1 4GU         0.1483
      2 C2         14.1250   26.7320  -41.2250 C.ar      1 4GU         0.0829
      3 C3         15.2630   25.9740  -41.5990 C.ar      1 4GU         0.1598
      4 N4         11.9620   27.6310  -41.8390 N.pl3     1 4GU        -0.2507
      5 N5         15.4800   26.7190  -39.5100 N.2       1 4GU        -0.2032
      6 N6         13.2770   26.3110  -43.3740 N.ar      1 4GU        -0.2623
      7 N7         15.3320   25.4330  -42.8070 N.ar      1 4GU        -0.2676
      8 N8         16.1000   25.9810  -40.5370 N.pl3     1 4GU        -0.1981
      9 C9         10.7110   27.5960  -42.4880 C.ar      1 4GU         0.1009
     10 C10        14.3570   25.5930  -43.6670 C.ar      1 4GU         0.0572
     11 C11        14.3240   27.1820  -39.9060 C.2       1 4GU         0.0302
     12 C12         9.7610   28.5700  -42.1360 C.ar      1 4GU         0.1556
     13 F13        10.0690   29.5120  -41.2270 F         1 4GU        -0.1901
     14 C14        10.3550   26.6140  -43.4350 C.ar      1 4GU        -0.0388
     15 C15         8.4870   28.5630  -42.7060 C.ar      1 4GU        -0.0371
     16 C16         9.0850   26.6180  -44.0140 C.ar      1 4GU        -0.0750
     17 C17         8.1500   27.5900  -43.6530 C.ar      1 4GU        -0.0748
     18 H1         12.0523   28.2754  -41.0405 H         1 4GU         0.2188
     19 H2         17.0240   25.5284  -40.4880 H         1 4GU         0.2507
     20 H3         14.4326   25.1278  -44.6432 H         1 4GU         0.1029
     21 H4         13.6420   27.8004  -39.3244 H         1 4GU         0.0736
     22 H5         11.0722   25.8510  -43.7152 H         1 4GU         0.0528
     23 H6          7.7588   29.3114  -42.4150 H         1 4GU         0.0573
     24 H7          8.8235   25.8634  -44.7470 H         1 4GU         0.0554
     25 H8          7.1650   27.5907  -44.1056 H         1 4GU         0.0513
@<TRIPOS>BOND
     1    1    2 ar 
     2    1    4 1  
     3    1    6 ar 
     4    2    3 ar 
     5    2   11 1  
     6    3    7 ar 
     7    3    8 1  
     8    4    9 1  
     9    8    5 1  
    10    5   11 2  
    11    6   10 ar 
    12    7   10 ar 
    13    9   12 ar 
    14    9   14 ar 
    15   12   13 1  
    16   12   15 ar 
    17   14   16 ar 
    18   15   17 ar 
    19   16   17 ar 
    20    4   18 1  
    21    8   19 1  
    22   10   20 1  
    23   11   21 1  
    24   14   22 1  
    25   15   23 1  
    26   16   24 1  
    27   17   25 1  
@<TRIPOS>SUBSTRUCTURE
     1 4GU         1

