### 
### Created by X-TOOL on Mon Sep 10 21:13:13 2018
### 

@<TRIPOS>MOLECULE
4gue_ligand
   52    55     1     0     0
SMALL
GAST_HUCK


@<TRIPOS>ATOM
      1 O10        31.1700    6.3800    4.6540 O.3       1 QCT        -0.3864
      2 C23        31.8490    6.2210    5.9150 C.3       1 QCT         0.1143
      3 C22        33.1310    5.4140    5.6380 C.3       1 QCT         0.1381
      4 O9         33.7130    5.8820    4.4160 O.3       1 QCT        -0.3837
      5 C24        32.1480    7.6170    6.4970 C.3       1 QCT         0.1095
      6 O11        30.9390    8.2870    6.8410 O.3       1 QCT        -0.3866
      7 C25        32.9980    7.4500    7.7670 C.3       1 QCT         0.0876
      8 C26        33.2750    8.8010    8.4500 C.3       1 QCT        -0.0360
      9 O8         34.1970    6.8350    7.3360 O.3       1 QCT        -0.3398
     10 C21        34.1650    5.5210    6.7870 C.3       1 QCT         0.2058
     11 O7         33.7170    4.5540    7.7330 O.3       1 QCT        -0.2916
     12 C3         34.4640    4.4730    8.9470 C.2       1 QCT         0.1657
     13 C4         35.8490    4.3310    8.9300 C.2       1 QCT         0.1456
     14 O2         36.4990    4.3000    7.8560 O.2       1 QCT        -0.4153
     15 C2         33.7940    4.5070   10.1780 C.2       1 QCT         0.1534
     16 C11        32.2780    4.6110   10.3070 C.ar      1 QCT        -0.0055
     17 C12        31.4200    4.2620    9.2530 C.ar      1 QCT        -0.0332
     18 C13        30.0380    4.3430    9.4420 C.ar      1 QCT         0.1158
     19 O5         29.1390    4.0370    8.3810 O.3       1 QCT        -0.3371
     20 C14        29.4970    4.7050   10.6720 C.ar      1 QCT         0.1166
     21 O6         28.1100    4.7530   10.8110 O.3       1 QCT        -0.3363
     22 C15        30.3490    5.0130   11.7440 C.ar      1 QCT        -0.0408
     23 C16        31.7360    4.9490   11.5620 C.ar      1 QCT        -0.0720
     24 O1         34.4240    4.4420   11.2550 O.3       1 QCT        -0.2591
     25 C9         35.6520    4.2970   11.3260 C.ar      1 QCT         0.1206
     26 C8         36.2210    4.2100   12.5970 C.ar      1 QCT        -0.0055
     27 C7         37.5950    4.0700   12.7220 C.ar      1 QCT         0.0766
     28 O4         38.1650    3.9900   14.0120 O.3       1 QCT        -0.3353
     29 C6         38.4180    4.0110   11.5910 C.ar      1 QCT        -0.0094
     30 C5         37.8390    4.1060   10.3210 C.ar      1 QCT         0.0929
     31 C10        36.4620    4.2420   10.1860 C.ar      1 QCT         0.0812
     32 O3         38.6760    4.0460    9.1800 O.3       1 QCT        -0.3327
     33 H1         31.7350    6.8444    4.0477 H         1 QCT         0.2100
     34 H2         31.2130    5.6662    6.6205 H         1 QCT         0.0648
     35 H3         32.8564    4.3553    5.5210 H         1 QCT         0.0675
     36 H4         33.0946    5.7605    3.7051 H         1 QCT         0.2101
     37 H5         32.6989    8.2132    5.7547 H         1 QCT         0.0646
     38 H6         30.4692    7.7768    7.4902 H         1 QCT         0.2100
     39 H7         32.4771    6.7954    8.4812 H         1 QCT         0.0621
     40 H8         33.8839    8.6380    9.3515 H         1 QCT         0.0255
     41 H9         32.3216    9.2718    8.7317 H         1 QCT         0.0255
     42 H10        33.8176    9.4588    7.7551 H         1 QCT         0.0255
     43 H11        35.1712    5.2634    6.4247 H         1 QCT         0.0988
     44 H12        31.8248    3.9332    8.3027 H         1 QCT         0.0495
     45 H13        28.2450    4.1442    8.6841 H         1 QCT         0.2442
     46 H14        27.7450    3.8943   10.6322 H         1 QCT         0.2450
     47 H15        29.9367    5.2981   12.7051 H         1 QCT         0.0514
     48 H16        32.3978    5.1614   12.3939 H         1 QCT         0.0495
     49 H17        35.5937    4.2515   13.4801 H         1 QCT         0.0393
     50 H18        39.1073    3.8969   13.9354 H         1 QCT         0.2494
     51 H19        39.4903    3.8932   11.6980 H         1 QCT         0.0396
     52 H20        38.5785    4.8446    8.6748 H         1 QCT         0.2504
@<TRIPOS>BOND
     1    1    2 1  
     2    2    3 1  
     3    2    5 1  
     4    3    4 1  
     5    3   10 1  
     6    5    6 1  
     7    5    7 1  
     8    7    8 1  
     9    7    9 1  
    10    9   10 1  
    11   10   11 1  
    12   11   12 1  
    13   12   13 1  
    14   12   15 2  
    15   13   14 2  
    16   13   31 1  
    17   15   16 1  
    18   15   24 1  
    19   16   17 ar 
    20   16   23 ar 
    21   17   18 ar 
    22   18   19 1  
    23   18   20 ar 
    24   20   21 1  
    25   20   22 ar 
    26   22   23 ar 
    27   24   25 1  
    28   25   26 ar 
    29   25   31 ar 
    30   26   27 ar 
    31   27   28 1  
    32   27   29 ar 
    33   29   30 ar 
    34   30   31 ar 
    35   30   32 1  
    36    1   33 1  
    37    2   34 1  
    38    3   35 1  
    39    4   36 1  
    40    5   37 1  
    41    6   38 1  
    42    7   39 1  
    43    8   40 1  
    44    8   41 1  
    45    8   42 1  
    46   10   43 1  
    47   17   44 1  
    48   19   45 1  
    49   21   46 1  
    50   22   47 1  
    51   23   48 1  
    52   26   49 1  
    53   28   50 1  
    54   29   51 1  
    55   32   52 1  
@<TRIPOS>SUBSTRUCTURE
     1 QCT         1

