### 
### Created by X-TOOL on Mon Sep 10 21:13:08 2018
### 

@<TRIPOS>MOLECULE
4gui_ligand
   24    24     1     0     0
SMALL
GAST_HUCK


@<TRIPOS>ATOM
      1 C1        -17.1370    1.0480   17.9800 C.3       1 QIC         0.1150
      2 O1        -17.9490    2.2020   17.6980 O.3       1 QIC        -0.3847
      3 C2        -16.4760    1.2190   19.3510 C.3       1 QIC         0.0095
      4 O2        -18.2630    2.3370   20.5600 O.3       1 QIC        -0.3892
      5 C3        -17.4480    1.1650   20.5140 C.3       1 QIC         0.0856
      6 O3        -19.3710    0.0710   21.4530 O.3       1 QIC        -0.3867
      7 C4        -18.3670   -0.0520   20.4480 C.3       1 QIC         0.1068
      8 O4        -19.8030   -1.4050   19.1030 O.3       1 QIC        -0.3892
      9 C5        -19.0320   -0.1970   19.0770 C.3       1 QIC         0.0856
     10 O5        -15.7590    2.0320   16.2960 O.co2     1 QIC        -0.5451
     11 C6        -17.9940   -0.2240   17.9580 C.3       1 QIC         0.0095
     12 O6        -15.3280   -0.0180   16.8600 O.co2     1 QIC        -0.5451
     13 C7        -16.0140    1.0110   16.9820 C.2       1 QIC         0.0764
     14 H1        -18.6185    2.2878   18.3665 H         1 QIC         0.2089
     15 H2        -15.9667    2.1938   19.3706 H         1 QIC         0.0311
     16 H3        -15.7358    0.4158   19.4810 H         1 QIC         0.0311
     17 H4        -18.7588    2.4085   19.7528 H         1 QIC         0.2099
     18 H5        -16.8606    1.1075   21.4422 H         1 QIC         0.0620
     19 H6        -19.9470   -0.6837   21.4177 H         1 QIC         0.2100
     20 H7        -17.7694   -0.9546   20.6436 H         1 QIC         0.0645
     21 H8        -19.2289   -2.1421   19.2754 H         1 QIC         0.2099
     22 H9        -19.7036    0.6576   18.9078 H         1 QIC         0.0620
     23 H10       -17.3426   -1.1003   18.0914 H         1 QIC         0.0311
     24 H11       -18.5099   -0.2947   16.9891 H         1 QIC         0.0311
@<TRIPOS>BOND
     1    1    2 1  
     2    1    3 1  
     3    1   11 1  
     4    1   13 1  
     5    3    5 1  
     6    5    4 1  
     7    5    7 1  
     8    7    6 1  
     9    7    9 1  
    10    9    8 1  
    11    9   11 1  
    12   13   10 ar 
    13   13   12 ar 
    14    2   14 1  
    15    3   15 1  
    16    3   16 1  
    17    4   17 1  
    18    5   18 1  
    19    6   19 1  
    20    7   20 1  
    21    8   21 1  
    22    9   22 1  
    23   11   23 1  
    24   11   24 1  
@<TRIPOS>SUBSTRUCTURE
     1 QIC         1

