### 
### Created by X-TOOL on Mon Sep 10 21:13:08 2018
### 

@<TRIPOS>MOLECULE
4guj_ligand
   21    21     1     0     0
SMALL
GAST_HUCK


@<TRIPOS>ATOM
      1 O12        17.1840    0.0100   83.2070 O.3       1 SKM        -0.3844
      2 C8         18.2930    0.0720   82.3060 C.3       1 SKM         0.1166
      3 C6         17.9080   -0.3960   80.9170 C.3       1 SKM         0.0919
      4 O7         17.2310   -1.6600   81.0070 O.3       1 SKM        -0.3873
      5 C5         19.1700   -0.5100   80.0710 C.3       1 SKM         0.0034
      6 C4         20.0250    0.7540   80.1290 C.2       1 SKM        -0.0210
      7 C1         21.0640    0.9290   79.1110 C.2       1 SKM         0.0477
      8 O2         21.6460   -0.1000   78.6980 O.co2     1 SKM        -0.5666
      9 O3         21.3540    2.0680   78.6710 O.co2     1 SKM        -0.5666
     10 C10        19.8320    1.6530   81.0970 C.2       1 SKM        -0.0472
     11 C9         18.8040    1.4880   82.2020 C.3       1 SKM         0.1076
     12 O11        17.6960    2.3600   81.9550 O.3       1 SKM        -0.3778
     13 H1         16.8753   -0.8864   83.2663 H         1 SKM         0.2103
     14 H2         19.0946   -0.5749   82.6920 H         1 SKM         0.0671
     15 H3         17.2317    0.3398   80.4575 H         1 SKM         0.0640
     16 H4         17.8081   -2.2992   81.4082 H         1 SKM         0.2101
     17 H5         18.8796   -0.6925   79.0259 H         1 SKM         0.0411
     18 H6         19.7669   -1.3575   80.4391 H         1 SKM         0.0411
     19 H7         20.4450    2.5531   81.0938 H         1 SKM         0.0592
     20 H8         19.2736    1.7623   83.1581 H         1 SKM         0.0775
     21 H9         18.0006    3.2597   81.9362 H         1 SKM         0.2132
@<TRIPOS>BOND
     1    1    2 1  
     2    2    3 1  
     3    2   11 1  
     4    3    4 1  
     5    3    5 1  
     6    5    6 1  
     7    6    7 1  
     8    6   10 2  
     9    7    8 ar 
    10    7    9 ar 
    11   10   11 1  
    12   11   12 1  
    13    1   13 1  
    14    2   14 1  
    15    3   15 1  
    16    4   16 1  
    17    5   17 1  
    18    5   18 1  
    19   10   19 1  
    20   11   20 1  
    21   12   21 1  
@<TRIPOS>SUBSTRUCTURE
     1 SKM         1

