### 
### Created by X-TOOL on Mon Sep 10 21:13:13 2018
### 

@<TRIPOS>MOLECULE
4gv1_ligand
   56    59     1     0     0
SMALL
GAST_HUCK


@<TRIPOS>ATOM
      1 CL3       -16.1850   -0.4780    9.5900 Cl        1 0XZ        -0.0771
      2 C27       -16.7230    0.6360   10.7890 C.ar      1 0XZ         0.0330
      3 C26       -18.0150    0.5540   11.2850 C.ar      1 0XZ        -0.0545
      4 C25       -18.4180    1.4630   12.2500 C.ar      1 0XZ        -0.0575
      5 C28       -15.8340    1.6050   11.2380 C.ar      1 0XZ        -0.0545
      6 C29       -16.2390    2.5110   12.2170 C.ar      1 0XZ        -0.0575
      7 C24       -17.5340    2.4390   12.7240 C.ar      1 0XZ        -0.0175
      8 C20       -18.0120    3.4110   13.7970 C.3       1 0XZ         0.0781
      9 C21       -18.3850    2.6590   15.0960 C.3       1 0XZ         0.0035
     10 C22       -18.7820    3.5840   16.2550 C.3       1 0XZ         0.0481
     11 O23       -17.7080    4.4200   16.6410 O.3       1 0XZ        -0.3948
     12 N19       -19.1830    4.1310   13.2710 N.am      1 0XZ        -0.2670
     13 C17       -19.0740    5.1350   12.3450 C.2       1 0XZ         0.2495
     14 O18       -17.9650    5.4540   11.9130 O.2       1 0XZ        -0.3382
     15 C13       -20.3800    5.7800   11.8600 C.3       1 0XZ         0.0718
     16 C12       -20.0940    6.9710   10.9410 C.3       1 0XZ         0.0215
     17 C11       -19.5770    6.5580    9.5390 C.3       1 0XZ         0.0376
     18 N16       -21.1720    6.2410   13.0230 N.4       1 0XZ         0.2228
     19 C14       -21.1950    4.6930   11.0970 C.3       1 0XZ         0.0215
     20 C15       -20.5100    4.3260    9.7760 C.3       1 0XZ         0.0376
     21 N10       -20.5900    5.5900    9.0610 N.pl3     1 0XZ        -0.2876
     22 C3        -21.6660    6.0240    8.2730 C.ar      1 0XZ         0.1212
     23 N5        -21.6200    7.3640    7.9470 N.ar      1 0XZ        -0.2730
     24 C6        -22.6390    7.9730    7.2530 C.ar      1 0XZ         0.0500
     25 N4        -23.7110    7.2450    6.8310 N.ar      1 0XZ        -0.2772
     26 C1        -22.7820    5.2800    7.8780 C.ar      1 0XZ         0.0435
     27 C9        -23.2330    3.9630    7.9850 C.2       1 0XZ        -0.0545
     28 C8        -24.4320    3.8200    7.3100 C.2       1 0XZ         0.0249
     29 N7        -24.7380    5.0480    6.8510 N.pl3     1 0XZ        -0.2665
     30 C2        -23.7630    5.9140    7.1610 C.ar      1 0XZ         0.1355
     31 H1        -18.6974   -0.2072   10.9245 H         1 0XZ         0.0606
     32 H2        -19.4278    1.4177   12.6416 H         1 0XZ         0.0558
     33 H3        -14.8313    1.6561   10.8293 H         1 0XZ         0.0606
     34 H4        -15.5512    3.2657   12.5808 H         1 0XZ         0.0558
     35 H5        -17.2099    4.1300   14.0199 H         1 0XZ         0.0723
     36 H6        -17.5177    2.0604   15.4115 H         1 0XZ         0.0332
     37 H7        -19.2320    1.9915   14.8793 H         1 0XZ         0.0332
     38 H8        -19.0840    2.9694   17.1158 H         1 0XZ         0.0559
     39 H9        -19.6278    4.2118   15.9380 H         1 0XZ         0.0559
     40 H10       -17.9847    4.9785   17.3579 H         1 0XZ         0.2094
     41 H11       -20.0921    3.8780   13.6018 H         1 0XZ         0.1889
     42 H12       -19.3338    7.6058   11.4196 H         1 0XZ         0.0331
     43 H13       -21.0240    7.5447   10.8144 H         1 0XZ         0.0331
     44 H14       -18.5862    6.0855    9.6101 H         1 0XZ         0.0529
     45 H15       -19.5207    7.4291    8.8697 H         1 0XZ         0.0529
     46 H16       -21.3625    5.4597   13.6307 H         1 0XZ         0.1998
     47 H17       -22.0417    6.6366   12.7017 H         1 0XZ         0.1998
     48 H18       -20.6510    6.9405   13.5283 H         1 0XZ         0.1998
     49 H19       -22.2026    5.0802   10.8852 H         1 0XZ         0.0331
     50 H20       -21.2724    3.7933   11.7251 H         1 0XZ         0.0331
     51 H21       -21.0525    3.5281    9.2477 H         1 0XZ         0.0529
     52 H22       -19.4663    4.0170    9.9344 H         1 0XZ         0.0529
     53 H23       -22.5895    9.0349    7.0410 H         1 0XZ         0.0975
     54 H24       -22.7176    3.1668    8.5202 H         1 0XZ         0.0311
     55 H25       -25.0079    2.9053    7.1776 H         1 0XZ         0.0922
     56 H26       -25.5972    5.2875    6.3360 H         1 0XZ         0.2318
@<TRIPOS>BOND
     1    1    2 1  
     2    2    3 ar 
     3    2    5 ar 
     4    3    4 ar 
     5    4    7 ar 
     6    5    6 ar 
     7    6    7 ar 
     8    7    8 1  
     9    8    9 1  
    10    8   12 1  
    11    9   10 1  
    12   10   11 1  
    13   12   13 am 
    14   13   14 2  
    15   13   15 1  
    16   15   16 1  
    17   15   18 1  
    18   15   19 1  
    19   16   17 1  
    20   17   21 1  
    21   19   20 1  
    22   20   21 1  
    23   21   22 1  
    24   22   23 ar 
    25   22   26 ar 
    26   23   24 ar 
    27   24   25 ar 
    28   25   30 ar 
    29   26   27 1  
    30   26   30 ar 
    31   27   28 2  
    32   28   29 1  
    33   29   30 1  
    34    3   31 1  
    35    4   32 1  
    36    5   33 1  
    37    6   34 1  
    38    8   35 1  
    39    9   36 1  
    40    9   37 1  
    41   10   38 1  
    42   10   39 1  
    43   11   40 1  
    44   12   41 1  
    45   16   42 1  
    46   16   43 1  
    47   17   44 1  
    48   17   45 1  
    49   18   46 1  
    50   18   47 1  
    51   18   48 1  
    52   19   49 1  
    53   19   50 1  
    54   20   51 1  
    55   20   52 1  
    56   24   53 1  
    57   27   54 1  
    58   28   55 1  
    59   29   56 1  
@<TRIPOS>SUBSTRUCTURE
     1 0XZ         1

