### 
### Created by X-TOOL on Mon Sep 10 21:13:15 2018
### 

@<TRIPOS>MOLECULE
4gvm_ligand
   48    50     1     0     0
SMALL
GAST_HUCK


@<TRIPOS>ATOM
      1 C1        -46.6800   18.5800   27.4170 C.ar      1 LF2         0.0137
      2 C2        -45.9660   17.4360   27.7940 C.ar      1 LF2        -0.0420
      3 C3        -46.6460   16.2080   27.8300 C.ar      1 LF2         0.0045
      4 C4        -48.0150   16.1970   27.4890 C.ar      1 LF2         0.0329
      5 C5        -48.7270   17.3630   27.1100 C.ar      1 LF2        -0.0454
      6 C6        -48.0240   18.5570   27.0590 C.ar      1 LF2        -0.0526
      7 C13       -46.0100   15.0060   28.2350 C.ar      1 LF2         0.0111
      8 C14       -46.7640   13.8150   28.2420 C.ar      1 LF2         0.0410
      9 C15       -48.1420   13.8600   27.8830 C.ar      1 LF2         0.0329
     10 N16       -48.7040   15.0310   27.5200 N.ar      1 LF2        -0.3041
     11 BR1       -45.7530   20.2170   27.3470 Br        1 LF2        -0.0502
     12 C18       -46.0970   12.5560   28.6160 C.3       1 LF2         0.1506
     13 C19       -46.5290   12.1230   29.9850 C.2       1 LF2         0.0766
     14 O20       -46.5090   11.5380   27.7160 O.3       1 LF2        -0.3441
     15 C21       -45.7930   11.4070   26.4800 C.3       1 LF2         0.0664
     16 C22       -44.2630   11.4710   26.5870 C.3       1 LF2        -0.0360
     17 C23       -46.1950   10.0440   25.9460 C.3       1 LF2        -0.0360
     18 C24       -46.2790   12.4540   25.4860 C.3       1 LF2        -0.0360
     19 O25       -46.5520   10.8950   30.2510 O.co2     1 LF2        -0.5639
     20 O26       -46.8550   13.0140   30.7870 O.co2     1 LF2        -0.5639
     21 C27       -44.5550   14.9570   28.5720 C.ar      1 LF2        -0.0125
     22 C28       -44.1420   14.7070   29.8800 C.ar      1 LF2        -0.0522
     23 C29       -42.7860   14.6580   30.1900 C.ar      1 LF2        -0.0464
     24 C30       -41.8750   14.8620   29.1470 C.ar      1 LF2         0.0415
     25 C31       -42.2660   15.1070   27.8150 C.ar      1 LF2        -0.0464
     26 C32       -43.6340   15.1760   27.5130 C.ar      1 LF2        -0.0522
     27 C33       -49.1070   12.7060   27.8680 C.3       1 LF2        -0.0144
     28 CL1       -40.1540   14.7950   29.5090 Cl        1 LF2        -0.0695
     29 H1        -44.9148   17.4968   28.0516 H         1 LF2         0.0665
     30 H2        -49.7830   17.3225   26.8688 H         1 LF2         0.0617
     31 H3        -48.5191   19.4677   26.7418 H         1 LF2         0.0640
     32 H4        -45.0052   12.6854   28.5827 H         1 LF2         0.0936
     33 H5        -43.8205   11.3604   25.5860 H         1 LF2         0.0257
     34 H6        -43.9066   10.6585   27.2372 H         1 LF2         0.0257
     35 H7        -43.9655   12.4400   27.0143 H         1 LF2         0.0257
     36 H8        -45.6852    9.8603   24.9887 H         1 LF2         0.0257
     37 H9        -47.2839   10.0168   25.7926 H         1 LF2         0.0257
     38 H10       -45.9071    9.2672   26.6696 H         1 LF2         0.0257
     39 H11       -45.7257   12.3473   24.5413 H         1 LF2         0.0257
     40 H12       -46.1085   13.4590   25.8993 H         1 LF2         0.0257
     41 H13       -47.3537   12.3117   25.2996 H         1 LF2         0.0257
     42 H14       -44.8798   14.5502   30.6585 H         1 LF2         0.0631
     43 H15       -42.4477   14.4687   31.2023 H         1 LF2         0.0625
     44 H16       -41.5223   15.2398   27.0376 H         1 LF2         0.0625
     45 H17       -43.9764   15.3890   26.5068 H         1 LF2         0.0631
     46 H18       -50.0973   13.0603   27.5458 H         1 LF2         0.0426
     47 H19       -49.1818   12.2774   28.8783 H         1 LF2         0.0426
     48 H20       -48.7476   11.9365   27.1689 H         1 LF2         0.0426
@<TRIPOS>BOND
     1    1    2 ar 
     2    1    6 ar 
     3    1   11 1  
     4    2    3 ar 
     5    3    4 ar 
     6    3    7 ar 
     7    4    5 ar 
     8    4   10 ar 
     9    5    6 ar 
    10    7    8 ar 
    11    7   21 1  
    12    8    9 ar 
    13    8   12 1  
    14    9   10 ar 
    15    9   27 1  
    16   12   13 1  
    17   12   14 1  
    18   13   19 ar 
    19   13   20 ar 
    20   14   15 1  
    21   15   16 1  
    22   15   17 1  
    23   15   18 1  
    24   21   22 ar 
    25   21   26 ar 
    26   22   23 ar 
    27   23   24 ar 
    28   24   25 ar 
    29   24   28 1  
    30   25   26 ar 
    31    2   29 1  
    32    5   30 1  
    33    6   31 1  
    34   12   32 1  
    35   16   33 1  
    36   16   34 1  
    37   16   35 1  
    38   17   36 1  
    39   17   37 1  
    40   17   38 1  
    41   18   39 1  
    42   18   40 1  
    43   18   41 1  
    44   22   42 1  
    45   23   43 1  
    46   25   44 1  
    47   26   45 1  
    48   27   46 1  
    49   27   47 1  
    50   27   48 1  
@<TRIPOS>SUBSTRUCTURE
     1 LF2         1

