### 
### Created by X-TOOL on Mon Sep 10 21:13:13 2018
### 

@<TRIPOS>MOLECULE
4gvu_ligand
  145   148     1     0     0
SMALL
GAST_HUCK


@<TRIPOS>ATOM
      1 CA         17.6140   10.7720    2.6350 C.3       1 6NA         0.0374
      2 C          16.6570   10.9530    1.4800 C.2       1 6NA         0.1782
      3 O          16.6200   12.1040    0.8330 O.2       1 6NA        -0.3969
      4 CB         17.7940   12.0220    3.4490 C.3       1 6NA        -0.0361
      5 CG         16.4860   12.3240    4.1240 C.3       1 6NA        -0.0512
      6 CD         16.6160   13.4070    5.1630 C.3       1 6NA        -0.0558
      7 C6         17.2360   14.6680    4.5860 C.3       1 6NA        -0.0653
      8 N          15.9460    9.9590    1.1600 N.am      1 GLN        -0.2655
      9 CA         14.9660    9.9840    0.0740 C.3       1 GLN         0.1329
     10 C          13.7680    9.2070    0.5240 C.2       1 GLN         0.2041
     11 O          13.8690    8.0460    0.8710 O.2       1 GLN        -0.3944
     12 CB         15.5680    9.3520   -1.1730 C.3       1 GLN         0.0045
     13 CG         14.5820    9.3630   -2.3280 C.3       1 GLN         0.0412
     14 CD         15.0320    9.0870   -3.5630 C.2       1 GLN         0.1737
     15 OE1        16.2130    8.8310   -3.7060 O.2       1 GLN        -0.3973
     16 NE2        14.2080    9.0520   -4.6070 N.am      1 GLN        -0.3009
     17 N          12.6190    9.8900    0.5000 N.am      1 THR        -0.2610
     18 CA         11.4490    9.1140    0.9120 C.3       1 THR         0.1619
     19 C          11.2270    7.9380   -0.0210 C.2       1 THR         0.2279
     20 O          11.6350    7.9290   -1.1850 O.2       1 THR        -0.3841
     21 CB         10.2070   10.0510    0.9230 C.3       1 THR         0.0994
     22 OG1        10.2150   10.9370   -0.2140 O.3       1 THR        -0.3388
     23 CG2        10.1760   11.0000    2.1000 C.3       1 THR        -0.0342
     24 N          10.5270    6.8830    0.4740 N.am      1 DBU        -0.2364
     25 CA         10.2830    5.6920   -0.1460 C.2       1 DBU         0.1221
     26 CB         10.8930    4.5320    0.2270 C.2       1 DBU        -0.0646
     27 CG         11.9200    4.4580    1.3140 C.3       1 DBU        -0.0492
     28 C           9.3300    5.5780   -1.2500 C.2       1 DBU         0.2175
     29 O           8.9930    4.4440   -1.6110 O.2       1 DBU        -0.3896
     30 N           8.7730    6.6800   -1.7690 N.am      1 GLJ        -0.2756
     31 CA          7.6350    6.5460   -2.7020 C.3       1 GLJ         0.1100
     32 C           8.0060    6.7320   -4.1830 C.3       1 GLJ         0.1086
     33 O           9.3800    6.7450   -4.4470 O.3       1 GLJ        -0.3506
     34 CB          6.4900    7.4370   -2.2170 C.3       1 GLJ        -0.0147
     35 CG          5.5050    7.5200   -3.3750 C.3       1 GLJ         0.0191
     36 CD          6.1010    8.3190   -4.5560 C.3       1 GLJ         0.0857
     37 OE1         6.3940    9.6390   -4.1740 O.3       1 GLJ        -0.3529
     38 N           7.3300    7.6750   -5.0190 N.4       1 PHE         0.2894
     39 CA          7.8650    7.8940   -6.3890 C.3       1 PHE         0.0643
     40 C           7.6810    9.4140   -6.5210 C.3       1 PHE         0.1282
     41 O           6.7340    9.8060   -7.4750 O.3       1 PHE        -0.3476
     42 CB          6.9470    7.0820   -7.3480 C.3       1 PHE         0.0321
     43 CG          7.0360    5.5980   -7.0890 C.ar      1 PHE        -0.0374
     44 CD1         6.0470    4.9380   -6.3410 C.ar      1 PHE        -0.0601
     45 CD2         8.1150    4.8800   -7.5880 C.ar      1 PHE        -0.0601
     46 CE1         6.1900    3.5620   -6.1050 C.ar      1 PHE        -0.0686
     47 CE2         8.2220    3.4980   -7.3740 C.ar      1 PHE        -0.0686
     48 CZ          7.2590    2.8380   -6.6270 C.ar      1 PHE        -0.0687
     49 N           8.8030   10.3070   -6.3660 N.4       1 YNM         0.2684
     50 CA         10.0180    9.7520   -5.7770 C.3       1 YNM         0.0600
     51 C          10.3020   10.4080   -4.4310 C.3       1 YNM         0.1261
     52 O          11.3830   11.3180   -4.3400 O.3       1 YNM        -0.3477
     53 CB         11.1890    9.8990   -6.7830 C.3       1 YNM         0.0269
     54 CG         10.9740    8.8210   -7.8210 C.ar      1 YNM        -0.0481
     55 CD1        11.5190    7.5520   -7.6240 C.ar      1 YNM        -0.0685
     56 CD2        10.2390    9.0840   -8.9850 C.ar      1 YNM        -0.0685
     57 CE1        11.3420    6.5320   -8.5710 C.ar      1 YNM        -0.0398
     58 CE2        10.0430    8.0620   -9.9190 C.ar      1 YNM        -0.0398
     59 OH         10.4270    5.7990  -10.6180 O.3       1 YNM        -0.3376
     60 CZ         10.5950    6.7950   -9.7080 C.ar      1 YNM         0.0805
     61 CM          8.6310   11.7100   -6.7060 C.3       1 YNM        -0.0396
     62 N           9.1760   10.8710   -3.6610 N.4       1 VAL         0.2591
     63 CA          9.4770   11.5510   -2.4470 C.3       1 VAL         0.0344
     64 C           9.8160   10.4700   -1.4340 C.3       1 VAL         0.2008
     65 O           8.8910    9.4250   -1.3770 O.3       1 VAL        -0.3628
     66 CB          8.4180   12.5760   -2.0640 C.3       1 VAL         0.0012
     67 CG1         8.4890   13.6660   -3.1390 C.3       1 VAL        -0.0574
     68 CG2         7.0010   12.0430   -1.8610 C.3       1 VAL        -0.0574
     69 H1         18.5932   10.4701    2.2350 H         1 6NA         0.0502
     70 H2         17.2256    9.9792    3.2912 H         1 6NA         0.0502
     71 H3         18.0780   12.8580    2.7929 H         1 6NA         0.0290
     72 H4         18.5778   11.8665    4.2049 H         1 6NA         0.0290
     73 H5         16.1196   11.4084    4.6113 H         1 6NA         0.0267
     74 H6         15.7617   12.6492    3.3627 H         1 6NA         0.0267
     75 H7         17.2515   13.0403    5.9826 H         1 6NA         0.0263
     76 H8         15.6164   13.6480    5.5537 H         1 6NA         0.0263
     77 H9         17.3134   15.4320    5.3736 H         1 6NA         0.0230
     78 H10        16.6043   15.0465    3.7689 H         1 6NA         0.0230
     79 H11        18.2393   14.4388    4.1978 H         1 6NA         0.0230
     80 H12        16.0590    9.1101    1.6764 H         1 GLN         0.1883
     81 H13        14.6759   11.0220   -0.1458 H         1 GLN         0.0801
     82 H14        15.8458    8.3115   -0.9490 H         1 GLN         0.0337
     83 H15        16.4661    9.9170   -1.4632 H         1 GLN         0.0337
     84 H16        14.1357   10.3678   -2.3631 H         1 GLN         0.0504
     85 H17        13.8020    8.6233   -2.0949 H         1 GLN         0.0504
     86 H18        14.5639    8.8444   -5.5182 H         1 GLN         0.1814
     87 H19        13.2327    9.2333   -4.4805 H         1 GLN         0.1814
     88 H20        12.5639   10.8496    0.2240 H         1 THR         0.1884
     89 H21        11.6153    8.7283    1.9286 H         1 THR         0.0831
     90 H22         9.3007    9.4276    0.9190 H         1 THR         0.0643
     91 H23         9.2745   11.6276    2.0413 H         1 THR         0.0257
     92 H24        11.0704   11.6400    2.0787 H         1 THR         0.0257
     93 H25        10.1605   10.4227    3.0362 H         1 THR         0.0257
     94 H26        10.1493    6.9916    1.3936 H         1 DBU         0.2212
     95 H27        10.6201    3.6137   -0.2909 H         1 DBU         0.0402
     96 H28        12.2606    3.4181    1.4264 H         1 DBU         0.0344
     97 H29        11.4780    4.8034    2.2602 H         1 DBU         0.0344
     98 H30        12.7760    5.0980    1.0539 H         1 DBU         0.0344
     99 H31         9.1239    7.5847   -1.5274 H         1 GLJ         0.1845
    100 H32         7.2806    5.5082   -2.6168 H         1 GLJ         0.0638
    101 H33         7.6745    5.7727   -4.6071 H         1 GLJ         0.1209
    102 H34         9.7257    7.6136   -4.2777 H         1 GLJ         0.2155
    103 H35         6.8664    8.4388   -1.9626 H         1 GLJ         0.0293
    104 H36         6.0065    6.9920   -1.3349 H         1 GLJ         0.0293
    105 H37         4.5870    8.0187   -3.0308 H         1 GLJ         0.0346
    106 H38         5.2639    6.5021   -3.7152 H         1 GLJ         0.0346
    107 H39         5.3696    8.3377   -5.3774 H         1 GLJ         0.1185
    108 H40         5.5998   10.0637   -3.8720 H         1 GLJ         0.2154
    109 H41         7.8825    8.4364   -4.6569 H         1 PHE         0.2099
    110 H42         8.9170    7.5936   -6.5033 H         1 PHE         0.0960
    111 H43         7.1403    9.6241   -5.5864 H         1 PHE         0.1245
    112 H44         7.1508    9.8677   -8.3265 H         1 PHE         0.2156
    113 H45         7.2523    7.2808   -8.3859 H         1 PHE         0.0484
    114 H46         5.9059    7.4065   -7.2034 H         1 PHE         0.0484
    115 H47         5.1916    5.4800   -5.9543 H         1 PHE         0.0557
    116 H48         8.8853    5.3949   -8.1507 H         1 PHE         0.0557
    117 H49         5.4497    3.0498   -5.5012 H         1 PHE         0.0599
    118 H50         9.0566    2.9469   -7.7922 H         1 PHE         0.0599
    119 H51         7.3370    1.7712   -6.4512 H         1 PHE         0.0559
    120 H52         9.1392   10.1085   -7.2953 H         1 YNM         0.2069
    121 H53         9.8588    8.6783   -5.5985 H         1 YNM         0.0957
    122 H54        10.6608    9.5496   -3.8441 H         1 YNM         0.1244
    123 H55        12.1129   10.9934   -4.8541 H         1 YNM         0.2156
    124 H56        12.1530    9.7540   -6.2734 H         1 YNM         0.0463
    125 H57        11.1685   10.8934   -7.2528 H         1 YNM         0.0463
    126 H58        12.0888    7.3506   -6.7241 H         1 YNM         0.0530
    127 H59         9.8261   10.0710   -9.1597 H         1 YNM         0.0530
    128 H60        11.7826    5.5538   -8.4156 H         1 YNM         0.0525
    129 H61         9.4594    8.2533  -10.8122 H         1 YNM         0.0525
    130 H62        10.8668    5.0146  -10.3121 H         1 YNM         0.2458
    131 H63         7.6289   11.8636   -7.1329 H         1 YNM         0.0778
    132 H64         9.3926   12.0047   -7.4430 H         1 YNM         0.0778
    133 H65         8.7413   12.3232   -5.7995 H         1 YNM         0.0778
    134 H66         8.6107   10.0687   -3.4312 H         1 VAL         0.2048
    135 H67         8.6451   11.5009   -4.2420 H         1 VAL         0.2048
    136 H68        10.3977   12.1307   -2.6091 H         1 VAL         0.0904
    137 H69        10.7215    9.9993   -1.8444 H         1 VAL         0.0968
    138 H70         9.2725    8.6910   -0.9098 H         1 VAL         0.2127
    139 H71         8.7190   13.0193   -1.1033 H         1 VAL         0.0352
    140 H72         7.7434   14.4449   -2.9212 H         1 VAL         0.0234
    141 H73         8.2799   13.2236   -4.1242 H         1 VAL         0.0234
    142 H74         9.4945   14.1119   -3.1432 H         1 VAL         0.0234
    143 H75         7.0094   11.2667   -1.0817 H         1 VAL         0.0234
    144 H76         6.6327   11.6121   -2.8037 H         1 VAL         0.0234
    145 H77         6.3404   12.8662   -1.5514 H         1 VAL         0.0234
@<TRIPOS>BOND
     1    1    2 1  
     2    1    4 1  
     3    2    3 2  
     4    2    8 am 
     5    4    5 1  
     6    5    6 1  
     7    6    7 1  
     8    8    9 1  
     9    9   10 1  
    10    9   12 1  
    11   10   11 2  
    12   10   17 am 
    13   12   13 1  
    14   13   14 1  
    15   14   15 2  
    16   14   16 am 
    17   17   18 1  
    18   18   19 1  
    19   18   21 1  
    20   19   20 2  
    21   19   24 am 
    22   21   22 1  
    23   21   23 1  
    24   22   64 1  
    25   24   25 1  
    26   25   26 2  
    27   25   28 1  
    28   26   27 1  
    29   28   29 2  
    30   28   30 am 
    31   30   31 1  
    32   31   32 1  
    33   31   34 1  
    34   32   33 1  
    35   32   38 1  
    36   34   35 1  
    37   35   36 1  
    38   36   37 1  
    39   36   38 1  
    40   38   39 1  
    41   39   40 1  
    42   39   42 1  
    43   40   41 1  
    44   40   49 1  
    45   42   43 1  
    46   43   44 ar 
    47   43   45 ar 
    48   44   46 ar 
    49   45   47 ar 
    50   46   48 ar 
    51   47   48 ar 
    52   49   50 1  
    53   49   61 1  
    54   50   51 1  
    55   50   53 1  
    56   51   52 1  
    57   51   62 1  
    58   53   54 1  
    59   54   55 ar 
    60   54   56 ar 
    61   55   57 ar 
    62   56   58 ar 
    63   57   60 ar 
    64   58   60 ar 
    65   60   59 1  
    66   62   63 1  
    67   63   64 1  
    68   63   66 1  
    69   64   65 1  
    70   66   67 1  
    71   66   68 1  
    72    1   69 1  
    73    1   70 1  
    74    4   71 1  
    75    4   72 1  
    76    5   73 1  
    77    5   74 1  
    78    6   75 1  
    79    6   76 1  
    80    7   77 1  
    81    7   78 1  
    82    7   79 1  
    83    8   80 1  
    84    9   81 1  
    85   12   82 1  
    86   12   83 1  
    87   13   84 1  
    88   13   85 1  
    89   16   86 1  
    90   16   87 1  
    91   17   88 1  
    92   18   89 1  
    93   21   90 1  
    94   23   91 1  
    95   23   92 1  
    96   23   93 1  
    97   24   94 1  
    98   26   95 1  
    99   27   96 1  
   100   27   97 1  
   101   27   98 1  
   102   30   99 1  
   103   31  100 1  
   104   32  101 1  
   105   33  102 1  
   106   34  103 1  
   107   34  104 1  
   108   35  105 1  
   109   35  106 1  
   110   36  107 1  
   111   37  108 1  
   112   38  109 1  
   113   39  110 1  
   114   40  111 1  
   115   41  112 1  
   116   42  113 1  
   117   42  114 1  
   118   44  115 1  
   119   45  116 1  
   120   46  117 1  
   121   47  118 1  
   122   48  119 1  
   123   49  120 1  
   124   50  121 1  
   125   51  122 1  
   126   52  123 1  
   127   53  124 1  
   128   53  125 1  
   129   55  126 1  
   130   56  127 1  
   131   57  128 1  
   132   58  129 1  
   133   59  130 1  
   134   61  131 1  
   135   61  132 1  
   136   61  133 1  
   137   62  134 1  
   138   62  135 1  
   139   63  136 1  
   140   64  137 1  
   141   65  138 1  
   142   66  139 1  
   143   67  140 1  
   144   67  141 1  
   145   67  142 1  
   146   68  143 1  
   147   68  144 1  
   148   68  145 1  
@<TRIPOS>SUBSTRUCTURE
     1 6NA         1

