### 
### Created by X-TOOL on Mon Sep 10 21:13:14 2018
### 

@<TRIPOS>MOLECULE
4gw6_ligand
   48    50     1     0     0
SMALL
GAST_HUCK


@<TRIPOS>ATOM
      1 C1         29.9590  -14.0370   17.2160 C.ar      1 LF2         0.0137
      2 C2         29.0490  -15.0860   17.3800 C.ar      1 LF2        -0.0420
      3 C3         27.6890  -14.8950   17.2090 C.ar      1 LF2         0.0045
      4 C4         27.2200  -13.6320   16.8690 C.ar      1 LF2         0.0329
      5 C5         28.1200  -12.5600   16.7020 C.ar      1 LF2        -0.0454
      6 C6         29.4960  -12.7650   16.8820 C.ar      1 LF2        -0.0526
      7 C13        26.7930  -15.9520   17.3670 C.ar      1 LF2         0.0111
      8 C14        25.4310  -15.7500   17.1650 C.ar      1 LF2         0.0410
      9 C15        24.9790  -14.4490   16.8440 C.ar      1 LF2         0.0329
     10 N16        25.8840  -13.4440   16.6940 N.ar      1 LF2        -0.3041
     11 BR1        31.7970  -14.3990   17.5320 Br        1 LF2        -0.0502
     12 C18        24.5310  -16.9220   17.4000 C.3       1 LF2         0.1506
     13 C19        23.9840  -16.7660   18.8210 C.2       1 LF2         0.0766
     14 O20        23.4520  -17.0680   16.4610 O.3       1 LF2        -0.3441
     15 C21        23.5900  -17.9210   15.3210 C.3       1 LF2         0.0664
     16 C22        24.3170  -19.2740   15.5340 C.3       1 LF2        -0.0360
     17 C23        22.1830  -18.2030   14.8100 C.3       1 LF2        -0.0360
     18 C24        24.2710  -16.9830   14.3430 C.3       1 LF2        -0.0360
     19 O25        22.8160  -17.1370   19.1050 O.co2     1 LF2        -0.5639
     20 O26        24.7380  -16.2790   19.7040 O.co2     1 LF2        -0.5639
     21 C27        27.2740  -17.3130   17.7010 C.ar      1 LF2        -0.0125
     22 C28        27.1580  -17.8560   18.9580 C.ar      1 LF2        -0.0522
     23 C29        27.6420  -19.1440   19.1570 C.ar      1 LF2        -0.0464
     24 C30        28.2470  -19.8720   18.1370 C.ar      1 LF2         0.0415
     25 C31        28.3610  -19.3360   16.8800 C.ar      1 LF2        -0.0464
     26 C32        27.8670  -18.0490   16.6700 C.ar      1 LF2        -0.0522
     27 C33        23.5280  -14.0790   16.6300 C.3       1 LF2        -0.0144
     28 CL1        28.8200  -21.5310   18.4490 Cl        1 LF2        -0.0695
     29 H1         29.4168  -16.0702   17.6469 H         1 LF2         0.0665
     30 H2         27.7488  -11.5773   16.4345 H         1 LF2         0.0617
     31 H3         30.1923  -11.9428   16.7626 H         1 LF2         0.0640
     32 H4         25.1391  -17.8370   17.3458 H         1 LF2         0.0936
     33 H5         24.3521  -19.8251   14.5826 H         1 LF2         0.0257
     34 H6         23.7729  -19.8688   16.2824 H         1 LF2         0.0257
     35 H7         25.3417  -19.0879   15.8880 H         1 LF2         0.0257
     36 H8         22.2376  -18.8589   13.9286 H         1 LF2         0.0257
     37 H9         21.6969  -17.2560   14.5327 H         1 LF2         0.0257
     38 H10        21.5984  -18.6978   15.5996 H         1 LF2         0.0257
     39 H11        24.4482  -17.5090   13.3933 H         1 LF2         0.0257
     40 H12        25.2318  -16.6502   14.7626 H         1 LF2         0.0257
     41 H13        23.6270  -16.1095   14.1637 H         1 LF2         0.0257
     42 H14        26.7036  -17.2978   19.7686 H         1 LF2         0.0631
     43 H15        27.5450  -19.5954   20.1377 H         1 LF2         0.0625
     44 H16        28.8212  -19.8959   16.0739 H         1 LF2         0.0625
     45 H17        27.9445  -17.6078   15.6829 H         1 LF2         0.0631
     46 H18        23.4540  -13.0073   16.3933 H         1 LF2         0.0426
     47 H19        22.9563  -14.2926   17.5451 H         1 LF2         0.0426
     48 H20        23.1186  -14.6678   15.7960 H         1 LF2         0.0426
@<TRIPOS>BOND
     1    1    2 ar 
     2    1    6 ar 
     3    1   11 1  
     4    2    3 ar 
     5    3    4 ar 
     6    3    7 ar 
     7    4    5 ar 
     8    4   10 ar 
     9    5    6 ar 
    10    7    8 ar 
    11    7   21 1  
    12    8    9 ar 
    13    8   12 1  
    14    9   10 ar 
    15    9   27 1  
    16   12   13 1  
    17   12   14 1  
    18   13   19 ar 
    19   13   20 ar 
    20   14   15 1  
    21   15   16 1  
    22   15   17 1  
    23   15   18 1  
    24   21   22 ar 
    25   21   26 ar 
    26   22   23 ar 
    27   23   24 ar 
    28   24   25 ar 
    29   24   28 1  
    30   25   26 ar 
    31    2   29 1  
    32    5   30 1  
    33    6   31 1  
    34   12   32 1  
    35   16   33 1  
    36   16   34 1  
    37   16   35 1  
    38   17   36 1  
    39   17   37 1  
    40   17   38 1  
    41   18   39 1  
    42   18   40 1  
    43   18   41 1  
    44   22   42 1  
    45   23   43 1  
    46   25   44 1  
    47   26   45 1  
    48   27   46 1  
    49   27   47 1  
    50   27   48 1  
@<TRIPOS>SUBSTRUCTURE
     1 LF2         1

