### 
### Created by X-TOOL on Mon Sep 10 21:13:09 2018
### 

@<TRIPOS>MOLECULE
4gw8_ligand
   36    39     1     0     0
SMALL
GAST_HUCK


@<TRIPOS>ATOM
      1 CAA       -17.0240   35.0830   -2.5390 C.ar      1 3RA        -0.0360
      2 CAB       -17.3690   35.1350   -3.8730 C.ar      1 3RA        -0.0702
      3 CAC       -18.6970   35.3250   -4.2600 C.ar      1 3RA        -0.0723
      4 CAD       -19.6890   35.4810   -3.2890 C.ar      1 3RA        -0.0702
      5 CAE       -19.3410   35.4410   -1.9370 C.ar      1 3RA        -0.0360
      6 CAF       -18.0000   35.2550   -1.5570 C.ar      1 3RA         0.0722
      7 NAG       -17.6140   35.1710   -0.2780 N.pl3     1 3RA        -0.2341
      8 CAH       -18.0840   35.8880    0.7410 C.2       1 3RA         0.1902
      9 NAI       -19.0610   36.8190    0.7550 N.2       1 3RA        -0.2220
     10 CAJ       -19.1680   37.2950    2.0070 C.2       1 3RA         0.1323
     11 CAK       -18.2280   36.5960    2.7570 C.2       1 3RA         0.2464
     12 NAL       -17.5830   35.7330    1.9570 N.2       1 3RA        -0.2645
     13 OAM       -18.0030   36.7460    3.9690 O.2       1 3RA        -0.3094
     14 CAN       -19.9850   38.2610    2.6140 C.3       1 3RA         0.0517
     15 CAO       -20.7450   39.0990    1.8120 C.ar      1 3RA        -0.0390
     16 CAP       -21.0620   38.7430    0.4840 C.ar      1 3RA        -0.0354
     17 CAQ       -21.7930   39.5950   -0.3140 C.ar      1 3RA         0.1183
     18 CAR       -22.2570   40.7960    0.2120 C.ar      1 3RA         0.1173
     19 CAS       -21.9580   41.1440    1.5270 C.ar      1 3RA        -0.0464
     20 CAT       -21.2000   40.2960    2.3350 C.ar      1 3RA        -0.0757
     21 OAU       -22.2250   39.4650   -1.6060 O.3       1 3RA        -0.2924
     22 CAV       -22.7890   40.7140   -1.9670 C.3       1 3RA         0.1857
     23 OAW       -22.9860   41.4490   -0.7400 O.3       1 3RA        -0.2948
     24 H1        -15.9931   34.9083   -2.2529 H         1 3RA         0.0546
     25 H2        -16.6005   35.0271   -4.6298 H         1 3RA         0.0590
     26 H3        -18.9577   35.3514   -5.3119 H         1 3RA         0.0528
     27 H4        -20.7215   35.6320   -3.5827 H         1 3RA         0.0590
     28 H5        -20.1070   35.5537   -1.1783 H         1 3RA         0.0546
     29 H6        -16.8796   34.4825   -0.0601 H         1 3RA         0.2268
     30 H7        -19.3291   38.9029    3.2204 H         1 3RA         0.0714
     31 H8        -20.6837   37.7244    3.2726 H         1 3RA         0.0714
     32 H9        -20.7274   37.7908    0.0884 H         1 3RA         0.0461
     33 H10       -22.3184   42.0847    1.9274 H         1 3RA         0.0496
     34 H11       -20.9709   40.5713    3.3581 H         1 3RA         0.0448
     35 H12       -23.7517   40.5623   -2.4770 H         1 3RA         0.0971
     36 H13       -22.1044   41.2616   -2.6314 H         1 3RA         0.0971
@<TRIPOS>BOND
     1    1    2 ar 
     2    1    6 ar 
     3    2    3 ar 
     4    3    4 ar 
     5    4    5 ar 
     6    5    6 ar 
     7    6    7 1  
     8    7    8 1  
     9    8    9 1  
    10    8   12 2  
    11    9   10 2  
    12   10   11 1  
    13   10   14 1  
    14   11   12 1  
    15   11   13 2  
    16   14   15 1  
    17   15   16 ar 
    18   15   20 ar 
    19   16   17 ar 
    20   17   18 ar 
    21   17   21 1  
    22   18   19 ar 
    23   18   23 1  
    24   19   20 ar 
    25   21   22 1  
    26   22   23 1  
    27    1   24 1  
    28    2   25 1  
    29    3   26 1  
    30    4   27 1  
    31    5   28 1  
    32    7   29 1  
    33   14   30 1  
    34   14   31 1  
    35   16   32 1  
    36   19   33 1  
    37   20   34 1  
    38   22   35 1  
    39   22   36 1  
@<TRIPOS>SUBSTRUCTURE
     1 3RA         1

