### 
### Created by X-TOOL on Mon Sep 10 21:13:09 2018
### 

@<TRIPOS>MOLECULE
4gwi_ligand
   91    94     1     0     0
SMALL
GAST_HUCK


@<TRIPOS>ATOM
      1 C1         -5.2570   -3.5940  -18.9270 C.3       1 BDZ         0.1888
      2 O1         -4.3260   -4.1190  -19.8100 O.3       1 BDZ        -0.3401
      3 C2         -4.8310   -4.1250  -17.5760 C.3       1 BDZ         0.1406
      4 O2         -5.2370   -5.4380  -17.5150 O.3       1 BDZ        -0.3378
      5 C3         -5.5610   -3.3590  -16.4800 C.3       1 BDZ         0.1144
      6 O3         -5.0440   -3.6550  -15.2090 O.3       1 BDZ        -0.3864
      7 C4         -5.4650   -1.8660  -16.6860 C.3       1 BDZ         0.1119
      8 O4         -4.1450   -1.4590  -16.5330 O.3       1 BDZ        -0.3865
      9 C5         -5.9040   -1.5420  -18.0880 C.3       1 BDZ         0.1130
     10 O5         -5.1080   -2.2240  -19.0300 O.3       1 BDZ        -0.3405
     11 C6         -5.7750   -0.0900  -18.3570 C.3       1 BDZ         0.0730
     12 O6         -6.3680    0.1140  -19.6030 O.3       1 BDZ        -0.3924
     13 CAA        -4.3730   -6.2610  -16.7320 C.3       1 BDZ         0.1884
     14 CAB        -5.0400   -7.6040  -16.5000 C.3       1 BDZ         0.1341
     15 CAC        -5.1710   -8.3720  -17.7790 C.3       1 BDZ         0.1140
     16 CAD        -3.7840   -8.5640  -18.3550 C.3       1 BDZ         0.1095
     17 CAE        -3.1940   -7.1840  -18.5510 C.3       1 BDZ         0.0873
     18 CAF        -1.8120   -7.2400  -19.1590 C.3       1 BDZ        -0.0361
     19 OAG        -6.3260   -7.3860  -15.9430 O.3       1 BDZ        -0.3841
     20 OAH        -5.7540   -9.5820  -17.5100 O.3       1 BDZ        -0.3864
     21 OAI        -3.0320   -9.3390  -17.4600 O.3       1 BDZ        -0.3866
     22 OAJ        -3.1310   -6.4820  -17.3440 O.3       1 BDZ        -0.3431
     23 CAV        -4.2180   -4.3300  -23.8990 C.3       1 BDZ         0.1823
     24 CAW        -3.5850   -3.1260  -23.2060 C.3       1 BDZ         0.1211
     25 CAX        -3.1810   -3.3580  -21.7830 C.3       1 BDZ         0.1179
     26 CAY        -4.4480   -3.8040  -21.1770 C.3       1 BDZ         0.1185
     27 CAZ        -4.8140   -5.0710  -21.8470 C.3       1 BDZ         0.1134
     28 CBA        -5.9780   -5.2590  -20.9570 C.3       1 BDZ         0.0730
     29 CBB        -2.4030   -1.7900  -24.7840 C.2       1 BDZ         0.1733
     30 CBC        -3.7380   -1.0550  -24.8510 C.3       1 BDZ         0.0257
     31 NBD        -2.3930   -2.7820  -23.9290 N.am      1 BDZ        -0.2766
     32 OBE        -4.7380   -3.7370  -25.0670 O.3       1 BDZ        -0.3651
     33 OBF        -2.9190   -2.0800  -21.3630 O.3       1 BDZ        -0.3403
     34 OBH        -5.2610   -4.8720  -23.1600 O.3       1 BDZ        -0.3409
     35 OBI        -6.7780   -6.3030  -21.4430 O.3       1 BDZ        -0.3924
     36 OBJ        -1.4200   -1.4450  -25.4330 O.2       1 BDZ        -0.3974
     37 CBK        -1.5650   -1.7620  -21.3050 C.3       1 BDZ         0.1883
     38 CBL        -1.5070   -0.2560  -21.0730 C.3       1 BDZ         0.1341
     39 CBM        -2.0540    0.0930  -19.7000 C.3       1 BDZ         0.1140
     40 CBN        -1.3810   -0.7440  -18.6280 C.3       1 BDZ         0.1095
     41 CBO        -1.5760   -2.1940  -18.9900 C.3       1 BDZ         0.0873
     42 CBP        -1.0050   -3.0440  -17.8830 C.3       1 BDZ        -0.0361
     43 OBQ        -2.3130    0.4140  -22.0370 O.3       1 BDZ        -0.3841
     44 OBR        -1.8900    1.4630  -19.4290 O.3       1 BDZ        -0.3864
     45 OBS        -0.0070   -0.4650  -18.5800 O.3       1 BDZ        -0.3866
     46 OBT        -0.9140   -2.4140  -20.2130 O.3       1 BDZ        -0.3431
     47 H          -6.3010   -3.8515  -19.1057 H         1 BDZ         0.0938
     48 H          -3.7539   -4.0224  -17.4441 H         1 BDZ         0.0675
     49 H          -6.6031   -3.6735  -16.5368 H         1 BDZ         0.0648
     50 H          -5.1391   -4.5946  -15.0370 H         1 BDZ         0.2100
     51 H          -6.0961   -1.3559  -15.9583 H         1 BDZ         0.0647
     52 H          -3.8437   -1.6799  -15.6487 H         1 BDZ         0.2100
     53 H          -6.9453   -1.8512  -18.1785 H         1 BDZ         0.0647
     54 H          -4.7314    0.2246  -18.3558 H         1 BDZ         0.0584
     55 H          -6.2604    0.5037  -17.5824 H         1 BDZ         0.0584
     56 H          -5.9074   -0.4074  -20.2646 H         1 BDZ         0.2095
     57 H          -4.1936   -5.7357  -15.7939 H         1 BDZ         0.0938
     58 H          -4.4235   -8.1887  -15.8172 H         1 BDZ         0.0671
     59 H          -5.7916   -7.8379  -18.4985 H         1 BDZ         0.0648
     60 H          -3.7946   -9.0868  -19.3114 H         1 BDZ         0.0646
     61 H          -3.8589   -6.6631  -19.2400 H         1 BDZ         0.0621
     62 H          -1.1498   -7.8036  -18.5017 H         1 BDZ         0.0255
     63 H          -1.8638   -7.7298  -20.1314 H         1 BDZ         0.0255
     64 H          -1.4288   -6.2269  -19.2810 H         1 BDZ         0.0255
     65 H          -6.2393   -6.8936  -15.1235 H         1 BDZ         0.2101
     66 H          -5.2167  -10.0606  -16.8746 H         1 BDZ         0.2100
     67 H          -2.1394   -9.4408  -17.7984 H         1 BDZ         0.2100
     68 H          -3.5140   -5.1472  -24.0561 H         1 BDZ         0.0932
     69 H          -4.3452   -2.3449  -23.1981 H         1 BDZ         0.0633
     70 H          -2.3596   -4.0449  -21.5793 H         1 BDZ         0.0649
     71 H          -5.1730   -2.9976  -21.2876 H         1 BDZ         0.0651
     72 H          -4.0521   -5.8434  -21.9519 H         1 BDZ         0.0647
     73 H          -6.5623   -4.3394  -20.9258 H         1 BDZ         0.0584
     74 H          -5.6307   -5.5058  -19.9537 H         1 BDZ         0.0584
     75 H          -3.5983   -0.0211  -24.5354 H         1 BDZ         0.0467
     76 H          -4.1121   -1.0764  -25.8746 H         1 BDZ         0.0467
     77 H          -4.4542   -1.5442  -24.1908 H         1 BDZ         0.0467
     78 H          -1.5352   -3.3123  -23.7761 H         1 BDZ         0.1857
     79 H          -5.3564   -3.0439  -24.8246 H         1 BDZ         0.2126
     80 H          -7.0833   -6.0859  -22.3268 H         1 BDZ         0.2095
     81 H          -1.0641   -2.0787  -22.2198 H         1 BDZ         0.0938
     82 H          -0.4653    0.0544  -21.1541 H         1 BDZ         0.0671
     83 H          -3.1208   -0.1306  -19.6943 H         1 BDZ         0.0648
     84 H          -1.8150   -0.5181  -17.6540 H         1 BDZ         0.0646
     85 H          -2.6283   -2.4545  -19.1037 H         1 BDZ         0.0621
     86 H           0.0574   -2.8273  -17.7714 H         1 BDZ         0.0255
     87 H          -1.5228   -2.8197  -16.9505 H         1 BDZ         0.0255
     88 H          -1.1383   -4.0973  -18.1298 H         1 BDZ         0.0255
     89 H          -3.2226    0.1190  -21.9525 H         1 BDZ         0.2101
     90 H          -2.3208    1.9777  -20.1154 H         1 BDZ         0.2100
     91 H           0.3841   -0.6398  -19.4391 H         1 BDZ         0.2100
@<TRIPOS>BOND
     1    2    1 1  
     2    1    3 1  
     3    1   10 1  
     4   26    2 1  
     5    3    4 1  
     6    3    5 1  
     7    4   13 1  
     8    5    6 1  
     9    5    7 1  
    10    7    8 1  
    11    9    7 1  
    12   10    9 1  
    13    9   11 1  
    14   11   12 1  
    15   13   14 1  
    16   13   22 1  
    17   14   15 1  
    18   14   19 1  
    19   15   16 1  
    20   15   20 1  
    21   17   16 1  
    22   16   21 1  
    23   17   18 1  
    24   22   17 1  
    25   24   23 1  
    26   23   32 1  
    27   23   34 1  
    28   24   25 1  
    29   31   24 1  
    30   25   26 1  
    31   25   33 1  
    32   26   27 1  
    33   27   28 1  
    34   34   27 1  
    35   28   35 1  
    36   29   30 1  
    37   29   31 am 
    38   29   36 2  
    39   33   37 1  
    40   37   38 1  
    41   37   46 1  
    42   38   39 1  
    43   38   43 1  
    44   39   40 1  
    45   39   44 1  
    46   40   41 1  
    47   40   45 1  
    48   41   42 1  
    49   41   46 1  
    50    1   47 1  
    51    3   48 1  
    52    5   49 1  
    53    6   50 1  
    54    7   51 1  
    55    8   52 1  
    56    9   53 1  
    57   11   54 1  
    58   11   55 1  
    59   12   56 1  
    60   13   57 1  
    61   14   58 1  
    62   15   59 1  
    63   16   60 1  
    64   17   61 1  
    65   18   62 1  
    66   18   63 1  
    67   18   64 1  
    68   19   65 1  
    69   20   66 1  
    70   21   67 1  
    71   23   68 1  
    72   24   69 1  
    73   25   70 1  
    74   26   71 1  
    75   27   72 1  
    76   28   73 1  
    77   28   74 1  
    78   30   75 1  
    79   30   76 1  
    80   30   77 1  
    81   31   78 1  
    82   32   79 1  
    83   35   80 1  
    84   37   81 1  
    85   38   82 1  
    86   39   83 1  
    87   40   84 1  
    88   41   85 1  
    89   42   86 1  
    90   42   87 1  
    91   42   88 1  
    92   43   89 1  
    93   44   90 1  
    94   45   91 1  
@<TRIPOS>SUBSTRUCTURE
     1 BDZ         1

