### 
### Created by X-TOOL on Mon Sep 10 21:13:10 2018
### 

@<TRIPOS>MOLECULE
4gxs_ligand
   52    53     1     0     0
SMALL
GAST_HUCK


@<TRIPOS>ATOM
      1 O7        -17.7900   12.2760    3.0850 O.co2     1 0YS        -0.5666
      2 C17       -17.9920   11.3980    2.3030 C.2       1 0YS         0.0602
      3 O8        -17.0530   10.3370    2.1600 O.co2     1 0YS        -0.5666
      4 C9        -18.9860   11.6930    1.1660 C.3       1 0YS         0.0988
      5 N1        -19.4410   13.0930    1.3370 N.am      1 0YS        -0.2720
      6 C10       -20.7480   13.4830    0.8270 C.2       1 0YS         0.1986
      7 C11       -21.1030   14.9830    0.7780 C.ar      1 0YS         0.0398
      8 C16       -20.0100   15.9170    0.8460 C.ar      1 0YS        -0.0361
      9 C15       -20.2510   17.3300    0.7680 C.ar      1 0YS         0.0744
     10 CL1       -18.8670   18.4710    0.8370 Cl        1 0YS        -0.0774
     11 C14       -21.6400   17.8350    0.6020 C.ar      1 0YS         0.1218
     12 O6        -21.8840   19.2100    0.4790 O.3       1 0YS        -0.3278
     13 C13       -22.7290   16.8960    0.5370 C.ar      1 0YS         0.0744
     14 CL        -24.3840   17.5470    0.3480 Cl        1 0YS        -0.0774
     15 C12       -22.5050   15.4700    0.6190 C.ar      1 0YS        -0.0361
     16 O5        -21.4530   12.6350    0.3960 O.2       1 0YS        -0.3896
     17 C8        -18.4000   11.5550   -0.2850 C.3       1 0YS         0.0251
     18 C7        -17.1500   12.4600   -0.6030 C.3       1 0YS        -0.0183
     19 C6        -16.1860   12.0460   -1.7060 C.3       1 0YS        -0.0045
     20 C5        -15.7320   13.3330   -2.3790 C.3       1 0YS         0.0062
     21 N2        -17.4000   13.9280   -0.8700 N.4       1 0YS         0.2358
     22 C3        -16.7420   14.3190   -2.0900 C.3       1 0YS         0.0679
     23 C4        -17.7140   14.5310   -3.1290 C.2       1 0YS         0.0990
     24 O4        -18.8690   14.3990   -2.8600 O.co2     1 0YS        -0.5421
     25 O3        -17.3810   15.2560   -4.2950 O.co2     1 0YS        -0.5421
     26 C2        -16.0170   15.6880   -1.8340 C.3       1 0YS         0.1602
     27 O2        -16.8710   16.7960   -1.7790 O.3       1 0YS        -0.3799
     28 C         -14.9790   15.6910   -0.6810 C.3       1 0YS         0.0600
     29 N         -13.9280   16.6510   -0.9700 N.4       1 0YS         0.2346
     30 C1        -15.6390   16.0410    0.6800 C.2       1 0YS         0.0871
     31 O         -16.4440   15.3100    1.1800 O.co2     1 0YS        -0.5642
     32 O1        -14.9050   16.8750    1.5290 O.co2     1 0YS        -0.5642
     33 H1        -19.8395   11.0058    1.2619 H         1 0YS         0.0727
     34 H2        -18.8573   13.7620    1.7972 H         1 0YS         0.1865
     35 H3        -18.9960   15.5502    0.9571 H         1 0YS         0.0650
     36 H4        -21.4280   19.5443   -0.2844 H         1 0YS         0.2509
     37 H5        -23.3334   14.7729    0.5664 H         1 0YS         0.0650
     38 H6        -19.1963   11.8152   -0.9978 H         1 0YS         0.0361
     39 H7        -18.1044   10.5058   -0.4323 H         1 0YS         0.0361
     40 H8        -16.5683   12.4164    0.3296 H         1 0YS         0.0853
     41 H9        -16.6946   11.3950   -2.4323 H         1 0YS         0.0321
     42 H10       -15.3230   11.5145   -1.2785 H         1 0YS         0.0321
     43 H11       -15.6448   13.1844   -3.4654 H         1 0YS         0.0318
     44 H12       -14.7607   13.6527   -1.9735 H         1 0YS         0.0318
     45 H13       -17.0377   14.4742   -0.1042 H         1 0YS         0.2022
     46 H14       -18.3913   14.0884   -0.9578 H         1 0YS         0.2022
     47 H15       -15.4172   15.8446   -2.7426 H         1 0YS         0.0724
     48 H16       -16.3596   17.5811   -1.6221 H         1 0YS         0.2103
     49 H17       -14.5354   14.6871   -0.6075 H         1 0YS         0.1052
     50 H18       -13.2560   16.6498   -0.2187 H         1 0YS         0.2011
     51 H19       -14.3291   17.5713   -1.0605 H         1 0YS         0.2011
     52 H20       -13.4695   16.3981   -1.8313 H         1 0YS         0.2011
@<TRIPOS>BOND
     1    1    2 ar 
     2    2    3 ar 
     3    2    4 1  
     4    4    5 1  
     5    4   17 1  
     6    5    6 am 
     7    6    7 1  
     8    6   16 2  
     9    7    8 ar 
    10    7   15 ar 
    11    8    9 ar 
    12    9   10 1  
    13    9   11 ar 
    14   11   12 1  
    15   11   13 ar 
    16   13   14 1  
    17   13   15 ar 
    18   17   18 1  
    19   18   19 1  
    20   18   21 1  
    21   19   20 1  
    22   20   22 1  
    23   21   22 1  
    24   22   23 1  
    25   22   26 1  
    26   23   24 ar 
    27   23   25 ar 
    28   26   27 1  
    29   26   28 1  
    30   28   29 1  
    31   28   30 1  
    32   30   31 ar 
    33   30   32 ar 
    34    4   33 1  
    35    5   34 1  
    36    8   35 1  
    37   12   36 1  
    38   15   37 1  
    39   17   38 1  
    40   17   39 1  
    41   18   40 1  
    42   19   41 1  
    43   19   42 1  
    44   20   43 1  
    45   20   44 1  
    46   21   45 1  
    47   21   46 1  
    48   26   47 1  
    49   27   48 1  
    50   28   49 1  
    51   29   50 1  
    52   29   51 1  
    53   29   52 1  
@<TRIPOS>SUBSTRUCTURE
     1 0YS         1

