### 
### Created by X-TOOL on Mon Sep 10 21:13:11 2018
### 

@<TRIPOS>MOLECULE
4gzp_ligand
   44    44     1     0     0
SMALL
GAST_HUCK


@<TRIPOS>ATOM
      1 C1         24.2680   -5.8850   12.7270 C.2       1 G39         0.0478
      2 O1A        23.0010   -5.6930   12.7970 O.co2     1 G39        -0.5666
      3 O1B        25.1050   -5.0540   12.3450 O.co2     1 G39        -0.5666
      4 C2         24.8930   -7.1060   13.1720 C.2       1 G39        -0.0181
      5 C3         26.4160   -7.2310   13.0840 C.3       1 G39         0.0201
      6 C4         26.8920   -8.0330   14.3250 C.3       1 G39         0.0100
      7 C5         26.1200   -9.3260   14.3940 C.3       1 G39         0.1202
      8 N5         26.7090  -10.2540   15.3540 N.am      1 G39        -0.2740
      9 C10        26.9190  -11.5210   14.9690 C.2       1 G39         0.1735
     10 O10        26.5570  -11.9550   13.8750 O.2       1 G39        -0.3974
     11 C11        27.5900  -12.4100   15.9290 C.3       1 G39         0.0257
     12 C6         24.6830   -9.0240   14.7390 C.3       1 G39         0.1112
     13 C7         24.1240   -8.0540   13.7260 C.2       1 G39        -0.0470
     14 O7         23.9780  -10.2690   14.5770 O.3       1 G39        -0.3596
     15 C8         22.9180  -10.5040   15.5450 C.3       1 G39         0.0613
     16 C9         21.8350   -9.4500   15.3290 C.3       1 G39        -0.0292
     17 C81        22.2580  -11.8710   15.3000 C.3       1 G39        -0.0292
     18 C82        23.3020  -12.9710   15.1950 C.3       1 G39        -0.0629
     19 C91        21.1140   -9.0960   16.6150 C.3       1 G39        -0.0629
     20 N4         28.2520   -8.4820   14.1850 N.4       1 G39         0.2238
     21 H1         26.8753   -6.2315   13.0843 H         1 G39         0.0441
     22 H2         26.6964   -7.7632   12.1631 H         1 G39         0.0441
     23 H3         26.7635   -7.4297   15.2358 H         1 G39         0.0895
     24 H4         26.1482   -9.8005   13.4020 H         1 G39         0.0664
     25 H5         26.9501   -9.9523   16.2764 H         1 G39         0.1859
     26 H6         27.6977  -13.4118   15.4876 H         1 G39         0.0467
     27 H7         26.9896  -12.4770   16.8482 H         1 G39         0.0467
     28 H8         28.5846  -12.0063   16.1693 H         1 G39         0.0467
     29 H9         24.5878   -8.6290   15.7612 H         1 G39         0.0776
     30 H10        23.0757   -8.1259   13.4398 H         1 G39         0.0592
     31 H11        23.3202  -10.4498   16.5674 H         1 G39         0.0598
     32 H12        21.1014   -9.8388   14.6074 H         1 G39         0.0288
     33 H13        22.3020   -8.5405   14.9231 H         1 G39         0.0288
     34 H14        21.6837  -11.8300   14.3627 H         1 G39         0.0288
     35 H15        21.5799  -12.0977   16.1359 H         1 G39         0.0288
     36 H16        22.8023  -13.9352   15.0202 H         1 G39         0.0231
     37 H17        23.8777  -13.0208   16.1310 H         1 G39         0.0231
     38 H18        23.9814  -12.7530   14.3578 H         1 G39         0.0231
     39 H19        20.3464   -8.3358   16.4077 H         1 G39         0.0231
     40 H20        21.8365   -8.6985   17.3430 H         1 G39         0.0231
     41 H21        20.6359   -9.9968   17.0273 H         1 G39         0.0231
     42 H22        28.8652   -7.6839   14.1286 H         1 G39         0.1999
     43 H23        28.3393   -9.0327   13.3453 H         1 G39         0.1999
     44 H24        28.5042   -9.0438   14.9830 H         1 G39         0.1999
@<TRIPOS>BOND
     1    1    2 ar 
     2    1    3 ar 
     3    1    4 1  
     4    4    5 1  
     5    4   13 2  
     6    5    6 1  
     7    6    7 1  
     8    6   20 1  
     9    7    8 1  
    10    7   12 1  
    11    8    9 am 
    12    9   10 2  
    13    9   11 1  
    14   12   13 1  
    15   12   14 1  
    16   14   15 1  
    17   15   16 1  
    18   15   17 1  
    19   16   19 1  
    20   17   18 1  
    21    5   21 1  
    22    5   22 1  
    23    6   23 1  
    24    7   24 1  
    25    8   25 1  
    26   11   26 1  
    27   11   27 1  
    28   11   28 1  
    29   12   29 1  
    30   13   30 1  
    31   15   31 1  
    32   16   32 1  
    33   16   33 1  
    34   17   34 1  
    35   17   35 1  
    36   18   36 1  
    37   18   37 1  
    38   18   38 1  
    39   19   39 1  
    40   19   40 1  
    41   19   41 1  
    42   20   42 1  
    43   20   43 1  
    44   20   44 1  
@<TRIPOS>SUBSTRUCTURE
     1 G39         1

