### 
### Created by X-TOOL on Mon Sep 10 21:13:10 2018
### 

@<TRIPOS>MOLECULE
4gzt_ligand
   46    46     1     0     0
SMALL
GAST_HUCK


@<TRIPOS>ATOM
      1 C1         11.4330   24.2910   17.4950 C.2       1 G39         0.0381
      2 O1A        11.5100   23.0350   17.8090 O.co2     1 G39        -0.5687
      3 O1B        10.8330   25.1390   18.2100 O.co2     1 G39        -0.5687
      4 C2         12.0390   24.8120   16.2530 C.3       1 G39         0.0194
      5 C3         12.0830   26.3240   15.9360 C.3       1 G39         0.0069
      6 C4         13.4730   26.6890   15.2890 C.3       1 G39         0.0033
      7 C5         13.6260   25.7600   14.0960 C.3       1 G39         0.1105
      8 N5         14.6490   26.2920   13.2110 N.am      1 G39        -0.2762
      9 C10        14.3880   26.4010   11.9310 C.2       1 G39         0.1734
     10 O10        13.3310   25.9970   11.3790 O.2       1 G39        -0.3974
     11 C11        15.5210   26.8960   11.1770 C.3       1 G39         0.0257
     12 C6         13.8030   24.3270   14.5730 C.3       1 G39         0.0888
     13 C7         12.5950   23.9300   15.4090 C.3       1 G39        -0.0096
     14 O7         13.7270   23.4450   13.4740 O.3       1 G39        -0.3708
     15 C8         14.9010   22.6190   13.3790 C.3       1 G39         0.0587
     16 C9         14.7000   21.5760   14.4940 C.3       1 G39        -0.0294
     17 C81        14.9260   21.9230   12.0220 C.3       1 G39        -0.0294
     18 C82        14.9050   22.9180   10.9030 C.3       1 G39        -0.0629
     19 C91        15.7880   20.5630   14.5780 C.3       1 G39        -0.0629
     20 N4         13.5450   28.0410   14.7570 N.4       1 G39         0.2225
     21 H1         11.0732   24.7286   15.7332 H         1 G39         0.0469
     22 H2         11.9504   26.8969   16.8656 H         1 G39         0.0341
     23 H3         11.2751   26.5742   15.2327 H         1 G39         0.0341
     24 H4         14.2773   26.5362   16.0237 H         1 G39         0.0875
     25 H5         12.6833   25.7811   13.5296 H         1 G39         0.0638
     26 H6         15.5385   26.5707   13.5731 H         1 G39         0.1857
     27 H7         15.2501   26.9685   10.1133 H         1 G39         0.0467
     28 H8         16.3689   26.2049   11.2931 H         1 G39         0.0467
     29 H9         15.8046   27.8906   11.5517 H         1 G39         0.0467
     30 H10        14.7464   24.2142   15.1273 H         1 G39         0.0622
     31 H11        11.8074   23.6273   14.7033 H         1 G39         0.0311
     32 H12        12.8994   23.0625   16.0129 H         1 G39         0.0311
     33 H13        15.8217   23.2018   13.5294 H         1 G39         0.0596
     34 H14        13.7515   21.0505   14.3094 H         1 G39         0.0287
     35 H15        14.6447   22.1050   15.4568 H         1 G39         0.0287
     36 H16        14.0453   21.2694   11.9376 H         1 G39         0.0287
     37 H17        15.8409   21.3171   11.9462 H         1 G39         0.0287
     38 H18        14.9237   22.3870    9.9398 H         1 G39         0.0231
     39 H19        15.7857   23.5727   10.9779 H         1 G39         0.0231
     40 H20        13.9901   23.5251   10.9692 H         1 G39         0.0231
     41 H21        15.5708   19.8586   15.3945 H         1 G39         0.0231
     42 H22        16.7451   21.0683   14.7746 H         1 G39         0.0231
     43 H23        15.8518   20.0137   13.6271 H         1 G39         0.0231
     44 H24        13.4486   28.7040   15.5101 H         1 G39         0.1998
     45 H25        12.8020   28.1797   14.0901 H         1 G39         0.1998
     46 H26        14.4343   28.1762   14.3022 H         1 G39         0.1998
@<TRIPOS>BOND
     1    1    2 ar 
     2    1    3 ar 
     3    1    4 1  
     4    4    5 1  
     5    4   13 1  
     6    5    6 1  
     7    6    7 1  
     8    6   20 1  
     9    7    8 1  
    10    7   12 1  
    11    8    9 am 
    12    9   10 2  
    13    9   11 1  
    14   12   13 1  
    15   12   14 1  
    16   14   15 1  
    17   15   16 1  
    18   15   17 1  
    19   16   19 1  
    20   17   18 1  
    21    4   21 1  
    22    5   22 1  
    23    5   23 1  
    24    6   24 1  
    25    7   25 1  
    26    8   26 1  
    27   11   27 1  
    28   11   28 1  
    29   11   29 1  
    30   12   30 1  
    31   13   31 1  
    32   13   32 1  
    33   15   33 1  
    34   16   34 1  
    35   16   35 1  
    36   17   36 1  
    37   17   37 1  
    38   18   38 1  
    39   18   39 1  
    40   18   40 1  
    41   19   41 1  
    42   19   42 1  
    43   19   43 1  
    44   20   44 1  
    45   20   45 1  
    46   20   46 1  
@<TRIPOS>SUBSTRUCTURE
     1 G39         1

