### 
### Created by X-TOOL on Mon Sep 10 21:13:10 2018
### 

@<TRIPOS>MOLECULE
4gzw_ligand
   87    89     1     0     0
SMALL
GAST_HUCK


@<TRIPOS>ATOM
      1 C1         10.4510   85.4990   29.4570 C.2       1 SIA         0.1041
      2 C2         10.3250   84.8930   30.8490 C.3       1 SIA         0.2208
      3 C3         10.9910   83.5010   30.8760 C.3       1 SIA         0.0353
      4 C4         11.9460   83.1950   32.0250 C.3       1 SIA         0.0850
      5 C5         11.8360   84.1760   33.1790 C.3       1 SIA         0.0964
      6 C6         11.9110   85.5980   32.6470 C.3       1 SIA         0.1143
      7 C7         11.9320   86.6310   33.7800 C.3       1 SIA         0.1114
      8 C8         12.3480   88.0240   33.2960 C.3       1 SIA         0.1065
      9 C9         12.1140   89.1130   34.3460 C.3       1 SIA         0.0727
     10 C10        12.5490   83.4500   35.3620 C.2       1 SIA         0.1733
     11 C11        13.6920   83.1380   36.2800 C.3       1 SIA         0.0257
     12 N5         12.8760   83.8650   34.1410 N.am      1 SIA        -0.2790
     13 O1A        10.3090   84.7640   28.4540 O.co2     1 SIA        -0.5426
     14 O1B        10.6920   86.7230   29.3490 O.co2     1 SIA        -0.5426
     15 O4         11.6580   81.8890   32.5240 O.3       1 SIA        -0.3893
     16 O6         10.7550   85.8380   31.8440 O.3       1 SIA        -0.3384
     17 O7         10.6410   86.6950   34.4090 O.3       1 SIA        -0.3865
     18 O8         13.7340   88.0090   32.9360 O.3       1 SIA        -0.3869
     19 O9         12.7820   88.7820   35.5710 O.3       1 SIA        -0.3924
     20 O10        11.3910   83.3280   35.7210 O.2       1 SIA        -0.3974
     21 C1          1.5980   87.7780   34.5280 C.3       1 NAG         0.1823
     22 C2          1.3400   86.4840   33.7580 C.3       1 NAG         0.1208
     23 C3          2.6870   85.8390   33.4120 C.3       1 NAG         0.1114
     24 C4          3.7010   86.8260   32.7950 C.3       1 NAG         0.1181
     25 C5          3.6390   88.2550   33.3770 C.3       1 NAG         0.1133
     26 C6          4.1750   89.2820   32.3850 C.3       1 NAG         0.0730
     27 C7         -0.7090   85.1370   34.1720 C.2       1 NAG         0.1733
     28 C8         -1.4390   84.2650   35.1570 C.3       1 NAG         0.0257
     29 N2          0.4860   85.6110   34.5590 N.am      1 NAG        -0.2766
     30 O1          0.3790   88.3790   34.8990 O.3       1 NAG        -0.3651
     31 O3          2.4980   84.7520   32.5260 O.3       1 NAG        -0.3867
     32 O4          5.0070   86.2890   32.9720 O.3       1 NAG        -0.3401
     33 O5          2.3230   88.6710   33.7050 O.3       1 NAG        -0.3409
     34 O6          5.5580   89.4570   32.5850 O.3       1 NAG        -0.3924
     35 O7         -1.2260   85.3700   33.0780 O.2       1 NAG        -0.3974
     36 C1          5.7010   86.0420   31.7220 C.3       1 GAL         0.1884
     37 C2          7.1350   85.5940   32.0440 C.3       1 GAL         0.1344
     38 C3          7.9200   85.1170   30.8110 C.3       1 GAL         0.1197
     39 C4          7.0610   84.2660   29.8710 C.3       1 GAL         0.1121
     40 C5          5.7030   84.9230   29.6170 C.3       1 GAL         0.1130
     41 C6          4.8380   84.0870   28.6710 C.3       1 GAL         0.0730
     42 O2          7.8210   86.6560   32.6720 O.3       1 GAL        -0.3841
     43 O3          9.0370   84.3330   31.2110 O.3       1 GAL        -0.3380
     44 O4          6.8800   82.9880   30.4490 O.3       1 GAL        -0.3865
     45 O5          5.0500   85.1100   30.8660 O.3       1 GAL        -0.3405
     46 O6          4.3150   84.8850   27.6320 O.3       1 GAL        -0.3924
     47 H1         11.5571   83.3893   29.9395 H         1 SIA         0.0336
     48 H2         10.1860   82.7521   30.9094 H         1 SIA         0.0336
     49 H3         12.9756   83.2223   31.6388 H         1 SIA         0.0618
     50 H4         10.8604   84.0462   33.6702 H         1 SIA         0.0608
     51 H5         12.8204   85.7094   32.0383 H         1 SIA         0.0646
     52 H6         12.6672   86.2988   34.5277 H         1 SIA         0.0647
     53 H7         11.7509   88.2704   32.4056 H         1 SIA         0.0643
     54 H8         11.0346   89.2064   34.5362 H         1 SIA         0.0584
     55 H9         12.5039   90.0697   33.9683 H         1 SIA         0.0584
     56 H10        13.3007   82.8072   37.2534 H         1 SIA         0.0467
     57 H11        14.3070   84.0393   36.4193 H         1 SIA         0.0467
     58 H12        14.3071   82.3385   35.8412 H         1 SIA         0.0467
     59 H13        13.8382   83.9625   33.8867 H         1 SIA         0.1856
     60 H14        11.7217   81.2593   31.8155 H         1 SIA         0.2099
     61 H15        10.0007   87.0135   33.7836 H         1 SIA         0.2100
     62 H16        13.9764   88.8552   32.5787 H         1 SIA         0.2100
     63 H17        13.7150   88.7031   35.4103 H         1 SIA         0.2095
     64 H18         2.1829   87.5530   35.4320 H         1 SIA         0.0932
     65 H19         0.8146   86.7192   32.8207 H         1 SIA         0.0633
     66 H20         3.1200   85.4536   34.3468 H         1 SIA         0.0645
     67 H21         3.4899   86.8972   31.7178 H         1 SIA         0.0650
     68 H22         4.2552   88.2749   34.2880 H         1 SIA         0.0647
     69 H23         3.6591   90.2415   32.5372 H         1 SIA         0.0584
     70 H24         3.9957   88.9279   31.3591 H         1 SIA         0.0584
     71 H25        -2.3973   83.9440   34.7226 H         1 SIA         0.0467
     72 H26        -1.6268   84.8325   36.0804 H         1 SIA         0.0467
     73 H27        -0.8268   83.3808   35.3881 H         1 SIA         0.0467
     74 H28         0.8166   85.3461   35.4648 H         1 SIA         0.1857
     75 H29        -0.1115   87.7824   35.4522 H         1 SIA         0.2126
     76 H30         3.3278   84.3113   32.3856 H         1 SIA         0.2100
     77 H31         6.0033   88.6283   32.4531 H         1 SIA         0.2095
     78 H32         5.7539   86.9963   31.1776 H         1 SIA         0.0938
     79 H33         7.0749   84.7512   32.7483 H         1 SIA         0.0671
     80 H34         8.2761   86.0019   30.2632 H         1 SIA         0.0650
     81 H35         7.5849   84.1565   28.9100 H         1 SIA         0.0647
     82 H36         5.8691   85.9062   29.1525 H         1 SIA         0.0647
     83 H37         4.0064   83.6447   29.2392 H         1 SIA         0.0584
     84 H38         5.4519   83.2850   28.2353 H         1 SIA         0.0584
     85 H39         8.6813   86.3588   32.9443 H         1 SIA         0.2101
     86 H40         6.4165   83.0773   31.2734 H         1 SIA         0.2100
     87 H41         3.7825   84.3467   27.0581 H         1 SIA         0.2095
@<TRIPOS>BOND
     1    2    1 1  
     2    1   13 ar 
     3    1   14 ar 
     4    2    3 1  
     5    2   16 1  
     6   43    2 1  
     7    3    4 1  
     8    4    5 1  
     9    4   15 1  
    10    6    5 1  
    11    5   12 1  
    12    6    7 1  
    13   16    6 1  
    14    7    8 1  
    15    7   17 1  
    16    8    9 1  
    17    8   18 1  
    18    9   19 1  
    19   10   11 1  
    20   12   10 am 
    21   10   20 2  
    22   22   21 1  
    23   21   30 1  
    24   33   21 1  
    25   23   22 1  
    26   22   29 1  
    27   24   23 1  
    28   23   31 1  
    29   24   25 1  
    30   32   24 1  
    31   25   26 1  
    32   25   33 1  
    33   26   34 1  
    34   27   28 1  
    35   29   27 am 
    36   27   35 2  
    37   36   32 1  
    38   37   36 1  
    39   36   45 1  
    40   38   37 1  
    41   37   42 1  
    42   38   39 1  
    43   38   43 1  
    44   39   40 1  
    45   39   44 1  
    46   40   41 1  
    47   40   45 1  
    48   41   46 1  
    49    3   47 1  
    50    3   48 1  
    51    4   49 1  
    52    5   50 1  
    53    6   51 1  
    54    7   52 1  
    55    8   53 1  
    56    9   54 1  
    57    9   55 1  
    58   11   56 1  
    59   11   57 1  
    60   11   58 1  
    61   12   59 1  
    62   15   60 1  
    63   17   61 1  
    64   18   62 1  
    65   19   63 1  
    66   21   64 1  
    67   22   65 1  
    68   23   66 1  
    69   24   67 1  
    70   25   68 1  
    71   26   69 1  
    72   26   70 1  
    73   28   71 1  
    74   28   72 1  
    75   28   73 1  
    76   29   74 1  
    77   30   75 1  
    78   31   76 1  
    79   34   77 1  
    80   36   78 1  
    81   37   79 1  
    82   38   80 1  
    83   39   81 1  
    84   40   82 1  
    85   41   83 1  
    86   41   84 1  
    87   42   85 1  
    88   44   86 1  
    89   46   87 1  
@<TRIPOS>SUBSTRUCTURE
     1 SIA         1

