### 
### Created by X-TOOL on Mon Sep 10 21:13:11 2018
### 

@<TRIPOS>MOLECULE
4gzx_ligand
   60    61     1     0     0
SMALL
GAST_HUCK


@<TRIPOS>ATOM
      1 C1         10.0520   85.3280   29.7040 C.2       1 SIA         0.1041
      2 C2          9.8930   84.7280   31.0980 C.3       1 SIA         0.2204
      3 C3         10.5620   83.3360   31.0910 C.3       1 SIA         0.0353
      4 C4         11.4180   82.9230   32.2880 C.3       1 SIA         0.0850
      5 C5         11.2880   83.8750   33.4560 C.3       1 SIA         0.0964
      6 C6         11.4560   85.3060   32.9600 C.3       1 SIA         0.1143
      7 C7         11.5320   86.3500   34.1070 C.3       1 SIA         0.1114
      8 C8         12.2070   87.6300   33.5980 C.3       1 SIA         0.1065
      9 C9         11.8740   88.8970   34.3860 C.3       1 SIA         0.0727
     10 C10        11.9980   82.9990   35.6410 C.2       1 SIA         0.1733
     11 C11        13.2050   82.7170   36.4980 C.3       1 SIA         0.0257
     12 N5         12.2930   83.5280   34.4490 N.am      1 SIA        -0.2790
     13 O1A         9.9020   84.5700   28.7170 O.co2     1 SIA        -0.5426
     14 O1B        10.3190   86.5490   29.5740 O.co2     1 SIA        -0.5426
     15 O4         11.0170   81.6390   32.7660 O.3       1 SIA        -0.3893
     16 O6         10.3840   85.6670   32.0850 O.3       1 SIA        -0.3384
     17 O7         10.2000   86.5560   34.6140 O.3       1 SIA        -0.3865
     18 O8         13.6200   87.4280   33.6470 O.3       1 SIA        -0.3869
     19 O9         12.3420   88.7980   35.7310 O.3       1 SIA        -0.3924
     20 O10        10.8530   82.7530   36.0170 O.2       1 SIA        -0.3974
     21 C1          4.7880   85.3710   33.2510 C.3       1 GAL         0.1854
     22 C2          3.8210   86.2910   32.4850 C.3       1 GAL         0.1339
     23 C3          4.0040   86.1640   30.9630 C.3       1 GAL         0.1141
     24 C4          4.7390   84.8810   30.5370 C.3       1 GAL         0.1119
     25 C5          6.0120   84.5840   31.3690 C.3       1 GAL         0.1132
     26 C6          7.3170   84.8580   30.5950 C.3       1 GAL         0.0786
     27 O1          5.0020   85.8500   34.5640 O.3       1 GAL        -0.3649
     28 O2          2.4680   86.0550   32.8470 O.3       1 GAL        -0.3841
     29 O3          4.7020   87.3010   30.4870 O.3       1 GAL        -0.3864
     30 O4          5.0210   84.9320   29.1440 O.3       1 GAL        -0.3865
     31 O5          6.0310   85.3380   32.5710 O.3       1 GAL        -0.3407
     32 O6          8.4760   84.6330   31.4130 O.3       1 GAL        -0.3441
     33 H1         11.2079   83.2925   30.2017 H         1 SIA         0.0336
     34 H2          9.7577   82.5915   30.9969 H         1 SIA         0.0336
     35 H3         12.4695   82.8865   31.9671 H         1 SIA         0.0618
     36 H4         10.2896   83.7698   33.9055 H         1 SIA         0.0608
     37 H5         12.3987   85.3531   32.3951 H         1 SIA         0.0646
     38 H6         12.1499   85.9435   34.9212 H         1 SIA         0.0647
     39 H7         11.8960   87.7879   32.5548 H         1 SIA         0.0643
     40 H8         10.7834   89.0401   34.3938 H         1 SIA         0.0584
     41 H9         12.3536   89.7597   33.9004 H         1 SIA         0.0584
     42 H10        12.8813   82.2856   37.4567 H         1 SIA         0.0467
     43 H11        13.7503   83.6542   36.6832 H         1 SIA         0.0467
     44 H12        13.8645   82.0053   35.9798 H         1 SIA         0.0467
     45 H13        13.2542   83.6937   34.2286 H         1 SIA         0.1856
     46 H14        11.0831   81.0052   32.0614 H         1 SIA         0.2099
     47 H15         9.6508   86.9093   33.9240 H         1 SIA         0.2100
     48 H16        13.8937   87.3305   34.5515 H         1 SIA         0.2100
     49 H17        13.2844   88.6776   35.7292 H         1 SIA         0.2095
     50 H18         4.3641   84.3570   33.2977 H         1 SIA         0.0935
     51 H19         4.0633   87.3271   32.7640 H         1 SIA         0.0671
     52 H20         3.0052   86.1464   30.5024 H         1 SIA         0.0648
     53 H21         4.0484   84.0414   30.7047 H         1 SIA         0.0647
     54 H22         5.9918   83.5161   31.6318 H         1 SIA         0.0647
     55 H23         7.3176   85.9044   30.2559 H         1 SIA         0.0586
     56 H24         7.3612   84.1897   29.7224 H         1 SIA         0.0586
     57 H25         5.6030   85.2705   35.0173 H         1 SIA         0.2126
     58 H26         2.3743   86.1376   33.7888 H         1 SIA         0.2101
     59 H27         4.7505   87.2674   29.5388 H         1 SIA         0.2100
     60 H28         5.6559   85.6184   28.9755 H         1 SIA         0.2100
@<TRIPOS>BOND
     1    2    1 1  
     2    1   13 ar 
     3    1   14 ar 
     4    2    3 1  
     5    2   16 1  
     6   32    2 1  
     7    3    4 1  
     8    4    5 1  
     9    4   15 1  
    10    6    5 1  
    11    5   12 1  
    12    6    7 1  
    13   16    6 1  
    14    7    8 1  
    15    7   17 1  
    16    8    9 1  
    17    8   18 1  
    18    9   19 1  
    19   10   11 1  
    20   12   10 am 
    21   10   20 2  
    22   21   22 1  
    23   21   27 1  
    24   31   21 1  
    25   23   22 1  
    26   22   28 1  
    27   24   23 1  
    28   23   29 1  
    29   25   24 1  
    30   24   30 1  
    31   26   25 1  
    32   25   31 1  
    33   26   32 1  
    34    3   33 1  
    35    3   34 1  
    36    4   35 1  
    37    5   36 1  
    38    6   37 1  
    39    7   38 1  
    40    8   39 1  
    41    9   40 1  
    42    9   41 1  
    43   11   42 1  
    44   11   43 1  
    45   11   44 1  
    46   12   45 1  
    47   15   46 1  
    48   17   47 1  
    49   18   48 1  
    50   19   49 1  
    51   21   50 1  
    52   22   51 1  
    53   23   52 1  
    54   24   53 1  
    55   25   54 1  
    56   26   55 1  
    57   26   56 1  
    58   27   57 1  
    59   28   58 1  
    60   29   59 1  
    61   30   60 1  
@<TRIPOS>SUBSTRUCTURE
     1 SIA         1

