### 
### Created by X-TOOL on Mon Sep 10 21:13:12 2018
### 

@<TRIPOS>MOLECULE
4h1e_ligand
   55    59     1     0     0
SMALL
GAST_HUCK


@<TRIPOS>ATOM
      1 C1         21.2890   10.4510   21.3730 C.3       1 10J         0.1209
      2 C2         20.6780   11.7260   22.0090 C.3       1 10J         0.0730
      3 N3         22.4000   11.3990   23.8450 N.am      1 10J        -0.2148
      4 C4         22.3550   10.0100   23.6130 C.cat     1 10J         0.3167
      5 C5         21.5860   12.3130   23.1020 C.2       1 10J         0.1745
      6 N6         21.6710    9.5780   22.4710 N.pl3     1 10J        -0.2926
      7 N7         18.9010   10.3740   21.4430 N.am      1 10J        -0.2807
      8 C8         22.4340   10.7420   20.4360 C.2       1 10J         0.0488
      9 C9         20.0420    9.8310   20.6890 C.3       1 10J         0.0389
     10 C10        17.6260    9.8650   21.2580 C.2       1 10J         0.2064
     11 C11        19.3400   11.2520   22.5220 C.3       1 10J         0.0429
     12 C12        23.7820   10.5090   20.6280 C.2       1 10J        -0.0109
     13 C13        24.6180   10.9170   19.5580 C.2       1 10J         0.0478
     14 S14        22.2100   11.4320   18.8810 S.3       1 10J         0.0101
     15 C15        23.8680   11.4350   18.5130 C.2       1 10J         0.0684
     16 C16        28.1540   10.3130   20.6990 C.ar      1 10J         0.0942
     17 C17        16.6140   10.1430   22.2860 C.ar      1 10J         0.0500
     18 C18        26.0600   10.7850   19.5220 C.ar      1 10J        -0.0001
     19 N19        29.3610    9.7120   22.8720 N.1       1 10J        -0.3282
     20 C20        28.8210    9.9810   21.8990 C.1       1 10J         0.1002
     21 N21        22.8030    9.1180   24.4450 N.pl3     1 10J        -0.2551
     22 C22        26.7480   10.4420   20.7190 C.ar      1 10J        -0.0211
     23 O23        21.5390   13.5390   23.2410 O.2       1 10J        -0.3981
     24 C24        28.8860   10.4860   19.5030 C.ar      1 10J        -0.0290
     25 O25        17.3020    9.2510   20.2320 O.2       1 10J        -0.3845
     26 C26        16.7120    9.6640   23.6340 C.ar      1 10J        -0.0419
     27 C27        26.8120   10.9480   18.3090 C.ar      1 10J        -0.0477
     28 C28        28.2100   10.7880   18.2930 C.ar      1 10J        -0.0525
     29 C29        23.2970   11.9490   24.9150 C.3       1 10J         0.0243
     30 C30        15.6840    9.9910   24.5510 C.ar      1 10J        -0.0562
     31 C31        15.4970   10.9560   21.8370 C.ar      1 10J        -0.0419
     32 C32        14.4800   11.2520   22.7490 C.ar      1 10J        -0.0562
     33 C33        14.5640   10.7600   24.1080 C.ar      1 10J        -0.0575
     34 H          20.5704   12.5529   21.3071 H         1 10J         0.0436
     35 H          21.4255    8.5902   22.4050 H         1 10J         0.3048
     36 H          20.0640    8.7414   20.7091 H         1 10J         0.0399
     37 H          19.9891   10.0828   19.6298 H         1 10J         0.0399
     38 H          18.6434   12.0639   22.7310 H         1 10J         0.0537
     39 H          19.3984   10.7539   23.4898 H         1 10J         0.0537
     40 H          24.1735   10.0463   21.5339 H         1 10J         0.0977
     41 H          24.2888   11.7978   17.5752 H         1 10J         0.1381
     42 H          22.6532    8.1263   24.2590 H         1 10J         0.3198
     43 H          23.3045    9.4095   25.2840 H         1 10J         0.3198
     44 H          26.1944   10.2801   21.6439 H         1 10J         0.0708
     45 H          29.9715   10.3873   19.5101 H         1 10J         0.0700
     46 H          17.5628    9.0589   23.9472 H         1 10J         0.0669
     47 H          26.2909   11.1999   17.3853 H         1 10J         0.0674
     48 H          28.7667   10.8948   17.3620 H         1 10J         0.0635
     49 H          24.0007   12.6531   24.4710 H         1 10J         0.0483
     50 H          22.6941   12.4604   25.6654 H         1 10J         0.0483
     51 H          23.8455   11.1316   25.3831 H         1 10J         0.0483
     52 H          15.7464    9.6586   25.5872 H         1 10J         0.0629
     53 H          15.4530   11.3265   20.8129 H         1 10J         0.0669
     54 H          13.6251   11.8522   22.4376 H         1 10J         0.0629
     55 H          13.7572   10.9805   24.8069 H         1 10J         0.0653
@<TRIPOS>BOND
     1    1    2 1  
     2    1    6 1  
     3    8    1 1  
     4    1    9 1  
     5    2    5 1  
     6    2   11 1  
     7    4    3 ar 
     8    5    3 am 
     9    3   29 1  
    10    6    4 ar 
    11    4   21 ar 
    12    5   23 2  
    13    9    7 1  
    14    7   10 am 
    15    7   11 1  
    16   12    8 2  
    17   14    8 1  
    18   10   17 1  
    19   10   25 2  
    20   13   12 1  
    21   13   15 2  
    22   18   13 1  
    23   15   14 1  
    24   16   20 1  
    25   22   16 ar 
    26   16   24 ar 
    27   17   26 ar 
    28   17   31 ar 
    29   18   22 ar 
    30   18   27 ar 
    31   20   19 3  
    32   24   28 ar 
    33   26   30 ar 
    34   27   28 ar 
    35   30   33 ar 
    36   31   32 ar 
    37   32   33 ar 
    38    2   34 1  
    39    6   35 1  
    40    9   36 1  
    41    9   37 1  
    42   11   38 1  
    43   11   39 1  
    44   12   40 1  
    45   15   41 1  
    46   21   42 1  
    47   21   43 1  
    48   22   44 1  
    49   24   45 1  
    50   26   46 1  
    51   27   47 1  
    52   28   48 1  
    53   29   49 1  
    54   29   50 1  
    55   29   51 1  
    56   30   52 1  
    57   31   53 1  
    58   32   54 1  
    59   33   55 1  
@<TRIPOS>SUBSTRUCTURE
     1 10J         1

