### 
### Created by X-TOOL on Mon Sep 10 21:13:09 2018
### 

@<TRIPOS>MOLECULE
4h1j_ligand
   64    67     1     0     0
SMALL
GAST_HUCK


@<TRIPOS>ATOM
      1 C1         -9.4640    0.9050   17.0560 C.3       1 0YH        -0.0327
      2 C2         -0.1920   -7.4860   11.7500 C.3       1 0YH        -0.0322
      3 C3         -7.4180    2.3900    8.0780 C.3       1 0YH        -0.0859
      4 C4         -4.9570    1.9950    7.8880 C.3       1 0YH        -0.0859
      5 C5         -5.8120    3.7630    9.4080 C.3       1 0YH        -0.0859
      6 C6          0.9480  -10.5010    7.7840 C.3       1 0YH         0.0596
      7 C7         -7.5360    0.1640   15.6210 C.ar      1 0YH        -0.0608
      8 C8         -9.3820    1.3300   14.5790 C.ar      1 0YH        -0.0608
      9 C9         -6.8730    0.0930   14.3920 C.ar      1 0YH        -0.0265
     10 C10        -8.7470    1.2270   13.3460 C.ar      1 0YH        -0.0265
     11 C11        -2.3060   -8.7890    8.2250 C.ar      1 0YH        -0.0386
     12 C12        -2.9340   -7.8970    9.0800 C.ar      1 0YH        -0.0686
     13 C13        -0.3630   -8.7860    9.6590 C.ar      1 0YH        -0.0307
     14 C14        -3.8690   -5.4380   10.7500 C.2       1 0YH        -0.0310
     15 C15        -5.9210    0.0370   10.0700 C.2       1 0YH        -0.0194
     16 C16        -8.7710    0.7980   15.7150 C.ar      1 0YH        -0.0493
     17 C17        -0.9840   -7.9080   10.5380 C.ar      1 0YH        -0.0456
     18 C18        -7.4850    0.6130   13.2460 C.ar      1 0YH         0.1228
     19 C19        -1.0140   -9.2380    8.4990 C.ar      1 0YH         0.0854
     20 C20        -2.2870   -7.4430   10.2410 C.ar      1 0YH        -0.0277
     21 C21        -3.0530   -6.5310   11.1350 C.2       1 0YH        -0.0005
     22 C22        -6.2760    1.3910   10.0010 C.2       1 0YH        -0.0041
     23 C23        -4.3900   -4.9100   11.8920 C.2       1 0YH         0.1788
     24 C24        -6.2990   -0.4470   11.3010 C.2       1 0YH         0.2188
     25 C25        -5.2340   -2.6570   11.4270 C.2       1 0YH         0.3284
     26 C26        -6.0970    2.3650    8.8530 C.3       1 0YH        -0.0463
     27 N27        -3.9400   -5.6460   12.9360 N.pl3     1 0YH        -0.2082
     28 N28        -3.1300   -6.6560   12.4360 N.2       1 0YH        -0.2503
     29 N29        -6.8510    1.7060   11.1360 N.2       1 0YH        -0.1672
     30 N30        -5.2730   -3.8470   12.0580 N.am      1 0YH        -0.1851
     31 N31        -6.1630   -1.7520   11.8010 N.am      1 0YH        -0.1788
     32 N32        -6.8700    0.5960   11.9850 N.pl3     1 0YH        -0.1067
     33 O33        -4.4050   -2.4250   10.5670 O.2       1 0YH        -0.3774
     34 O34        -0.4230  -10.1010    7.6150 O.3       1 0YH        -0.3221
     35 H          -9.6175    1.9559   17.3014 H         1 0YH         0.0385
     36 H         -10.4274    0.3975   17.0072 H         1 0YH         0.0385
     37 H          -8.8445    0.4384   17.8219 H         1 0YH         0.0385
     38 H           0.0618   -8.3660   12.3410 H         1 0YH         0.0395
     39 H           0.7220   -6.9862   11.4292 H         1 0YH         0.0395
     40 H          -0.7894   -6.8019   12.3527 H         1 0YH         0.0395
     41 H          -7.6379    1.3897    7.7049 H         1 0YH         0.0131
     42 H          -8.2200    2.7167    8.7400 H         1 0YH         0.0131
     43 H          -7.3329    3.0813    7.2396 H         1 0YH         0.0131
     44 H          -4.0147    1.9659    8.4351 H         1 0YH         0.0131
     45 H          -5.1555    1.0162    7.4514 H         1 0YH         0.0131
     46 H          -4.8961    2.7418    7.0963 H         1 0YH         0.0131
     47 H          -6.6483    4.0833   10.0294 H         1 0YH         0.0131
     48 H          -4.9019    3.7361   10.0072 H         1 0YH         0.0131
     49 H          -5.6837    4.4616    8.5812 H         1 0YH         0.0131
     50 H           1.5889   -9.6200    7.7505 H         1 0YH         0.0578
     51 H           1.0637  -10.9997    8.7463 H         1 0YH         0.0578
     52 H           1.2269  -11.1854    6.9828 H         1 0YH         0.0578
     53 H          -7.0838   -0.2788   16.5084 H         1 0YH         0.0550
     54 H         -10.3509    1.8232   14.6574 H         1 0YH         0.0550
     55 H          -5.8858   -0.3645   14.3270 H         1 0YH         0.0595
     56 H          -9.2293    1.6239   12.4527 H         1 0YH         0.0595
     57 H          -2.8246   -9.1416    7.3335 H         1 0YH         0.0492
     58 H          -3.9393   -7.5446    8.8492 H         1 0YH         0.0577
     59 H           0.6486   -9.1309    9.8732 H         1 0YH         0.0481
     60 H          -4.0459   -5.0869    9.7334 H         1 0YH         0.0144
     61 H          -5.4295   -0.5348    9.2829 H         1 0YH         0.0221
     62 H          -4.1585   -5.4858   13.9194 H         1 0YH         0.2477
     63 H          -6.0297   -3.9832   12.7282 H         1 0YH         0.2332
     64 H          -6.8301   -2.0441   12.5152 H         1 0YH         0.2344
@<TRIPOS>BOND
     1   16    1 1  
     2   17    2 1  
     3   26    3 1  
     4   26    4 1  
     5   26    5 1  
     6   34    6 1  
     7    9    7 ar 
     8    7   16 ar 
     9   10    8 ar 
    10    8   16 ar 
    11   18    9 ar 
    12   18   10 ar 
    13   12   11 ar 
    14   11   19 ar 
    15   20   12 ar 
    16   17   13 ar 
    17   13   19 ar 
    18   14   21 1  
    19   23   14 2  
    20   15   22 1  
    21   24   15 2  
    22   20   17 ar 
    23   32   18 1  
    24   19   34 1  
    25   21   20 1  
    26   21   28 2  
    27   22   26 1  
    28   22   29 2  
    29   23   27 1  
    30   30   23 1  
    31   31   24 1  
    32   24   32 1  
    33   25   30 am 
    34   25   31 am 
    35   25   33 2  
    36   27   28 1  
    37   29   32 1  
    38    1   35 1  
    39    1   36 1  
    40    1   37 1  
    41    2   38 1  
    42    2   39 1  
    43    2   40 1  
    44    3   41 1  
    45    3   42 1  
    46    3   43 1  
    47    4   44 1  
    48    4   45 1  
    49    4   46 1  
    50    5   47 1  
    51    5   48 1  
    52    5   49 1  
    53    6   50 1  
    54    6   51 1  
    55    6   52 1  
    56    7   53 1  
    57    8   54 1  
    58    9   55 1  
    59   10   56 1  
    60   11   57 1  
    61   12   58 1  
    62   13   59 1  
    63   14   60 1  
    64   15   61 1  
    65   27   62 1  
    66   30   63 1  
    67   31   64 1  
@<TRIPOS>SUBSTRUCTURE
     1 0YH         1

