### 
### Created by X-TOOL on Mon Sep 10 21:13:11 2018
### 

@<TRIPOS>MOLECULE
4h1m_ligand
   67    70     1     0     0
SMALL
GAST_HUCK


@<TRIPOS>ATOM
      1 C1         -7.6650    0.4220   18.0770 C.3       1 0YJ        -0.0327
      2 C2          1.4650   -5.5380   17.8870 C.3       1 0YJ        -0.0423
      3 C3          1.5140   -8.0420   17.6230 C.3       1 0YJ        -0.0423
      4 C4         -7.0130    2.6060    9.0150 C.3       1 0YJ        -0.0859
      5 C5         -4.9140    1.6070    8.2010 C.3       1 0YJ        -0.0859
      6 C6         -4.8720    3.4050    9.9310 C.3       1 0YJ        -0.0859
      7 C7         -3.2640   -6.9730   10.4550 C.ar      1 0YJ        -0.0934
      8 C8         -2.3840   -7.4880   11.3770 C.ar      1 0YJ        -0.0892
      9 C9         -4.0580   -5.8630   10.7630 C.ar      1 0YJ        -0.0548
     10 C10        -6.0170   -0.1210   16.2730 C.ar      1 0YJ        -0.0608
     11 C11        -8.1360    0.8760   15.6480 C.ar      1 0YJ        -0.0608
     12 C12        -5.6310   -0.1660   14.9410 C.ar      1 0YJ        -0.0265
     13 C13        -7.7580    0.8180   14.3170 C.ar      1 0YJ        -0.0265
     14 C14        -1.5180   -7.1850   13.8080 C.2       1 0YJ        -0.0442
     15 C15        -5.3900   -0.1930   10.5990 C.2       1 0YJ        -0.0194
     16 C16        -7.2640    0.3940   16.6210 C.ar      1 0YJ        -0.0493
     17 C17        -6.5010    0.3030   13.9580 C.ar      1 0YJ         0.1228
     18 C18        -2.2870   -6.9030   12.6550 C.ar      1 0YJ        -0.0306
     19 C19        -3.9630   -5.2630   12.0160 C.ar      1 0YJ         0.0918
     20 C20        -1.8360   -6.2690   14.7570 C.2       1 0YJ         0.1296
     21 C21        -5.7190    1.1650   10.5890 C.2       1 0YJ        -0.0041
     22 C22        -5.6200   -0.6860   11.8530 C.2       1 0YJ         0.2188
     23 C23        -3.0850   -5.7880   12.9720 C.ar      1 0YJ         0.0933
     24 C24         0.6380   -6.7910   17.5970 C.3       1 0YJ         0.0358
     25 C25        -1.2620   -6.1940   16.0970 C.2       1 0YJ         0.2264
     26 C26        -4.7090   -2.9470   11.7730 C.2       1 0YJ         0.3222
     27 C27        -5.6180    2.1610    9.4430 C.3       1 0YJ        -0.0463
     28 N28        -2.7990   -5.4200   14.2620 N.pl3     1 0YJ        -0.2705
     29 N29        -6.1220    1.4620   11.7920 N.2       1 0YJ        -0.1672
     30 N30        -4.7250   -4.1530   12.3950 N.am      1 0YJ        -0.2148
     31 N31        -5.4800   -1.9940   12.3210 N.am      1 0YJ        -0.1796
     32 N32        -0.0410   -6.7470   16.2990 N.am      1 0YJ        -0.2825
     33 N33        -6.1050    0.3320   12.6040 N.pl3     1 0YJ        -0.1067
     34 O34        -1.8650   -5.5980   16.9800 O.2       1 0YJ        -0.3843
     35 O35        -4.0460   -2.7260   10.7650 O.2       1 0YJ        -0.3791
     36 H1         -6.8528    0.0030   18.6891 H         1 0YJ         0.0385
     37 H2         -8.5767   -0.1771   18.2178 H         1 0YJ         0.0385
     38 H3         -7.8575    1.4605   18.3844 H         1 0YJ         0.0385
     39 H4          1.9457   -5.6357   18.8716 H         1 0YJ         0.0252
     40 H5          0.8074   -4.6562   17.8859 H         1 0YJ         0.0252
     41 H6          2.2369   -5.4207   17.1122 H         1 0YJ         0.0252
     42 H7          0.8957   -8.9270   17.4118 H         1 0YJ         0.0252
     43 H8          1.9757   -8.1458   18.6160 H         1 0YJ         0.0252
     44 H9          2.3013   -7.9543   16.8599 H         1 0YJ         0.0252
     45 H10        -6.9304    3.3253    8.1868 H         1 0YJ         0.0131
     46 H11        -7.5228    3.0827    9.8652 H         1 0YJ         0.0131
     47 H12        -7.5917    1.7309    8.6843 H         1 0YJ         0.0131
     48 H13        -3.9009    1.2747    8.4714 H         1 0YJ         0.0131
     49 H14        -4.8495    2.3934    7.4346 H         1 0YJ         0.0131
     50 H15        -5.4858    0.7549    7.8048 H         1 0YJ         0.0131
     51 H16        -5.3740    3.8070   10.8234 H         1 0YJ         0.0131
     52 H17        -4.8702    4.1664    9.1372 H         1 0YJ         0.0131
     53 H18        -3.8357    3.1357   10.1833 H         1 0YJ         0.0131
     54 H19        -3.3438   -7.4329    9.4766 H         1 0YJ         0.0477
     55 H20        -1.7666   -8.3416   11.1215 H         1 0YJ         0.0401
     56 H21        -4.7480   -5.4696   10.0253 H         1 0YJ         0.0401
     57 H22        -5.3479   -0.4868   17.0434 H         1 0YJ         0.0550
     58 H23        -9.0974    1.2909   15.9286 H         1 0YJ         0.0550
     59 H24        -4.6602   -0.5629   14.6669 H         1 0YJ         0.0595
     60 H25        -8.4354    1.1717   13.5482 H         1 0YJ         0.0595
     61 H26        -0.7976   -7.9946   13.9152 H         1 0YJ         0.0387
     62 H27        -5.0137   -0.7627    9.7506 H         1 0YJ         0.0221
     63 H28        -0.1257   -6.8772   18.3839 H         1 0YJ         0.0549
     64 H29        -3.2326   -4.6388   14.7744 H         1 0YJ         0.2244
     65 H30        -5.3284   -4.2561   13.1857 H         1 0YJ         0.2251
     66 H31        -6.0006   -2.2434   13.1375 H         1 0YJ         0.2343
     67 H32         0.4261   -7.1506   15.5123 H         1 0YJ         0.1845
@<TRIPOS>BOND
     1   16    1 1  
     2   24    2 1  
     3   24    3 1  
     4   27    4 1  
     5   27    5 1  
     6   27    6 1  
     7    7    8 ar 
     8    9    7 ar 
     9   18    8 ar 
    10   19    9 ar 
    11   12   10 ar 
    12   10   16 ar 
    13   13   11 ar 
    14   11   16 ar 
    15   17   12 ar 
    16   17   13 ar 
    17   18   14 1  
    18   20   14 2  
    19   15   21 1  
    20   22   15 2  
    21   33   17 1  
    22   23   18 ar 
    23   19   23 ar 
    24   30   19 1  
    25   20   25 1  
    26   28   20 1  
    27   21   27 1  
    28   21   29 2  
    29   31   22 1  
    30   22   33 1  
    31   23   28 1  
    32   32   24 1  
    33   25   32 am 
    34   25   34 2  
    35   26   30 am 
    36   26   31 am 
    37   26   35 2  
    38   29   33 1  
    39    1   36 1  
    40    1   37 1  
    41    1   38 1  
    42    2   39 1  
    43    2   40 1  
    44    2   41 1  
    45    3   42 1  
    46    3   43 1  
    47    3   44 1  
    48    4   45 1  
    49    4   46 1  
    50    4   47 1  
    51    5   48 1  
    52    5   49 1  
    53    5   50 1  
    54    6   51 1  
    55    6   52 1  
    56    6   53 1  
    57    7   54 1  
    58    8   55 1  
    59    9   56 1  
    60   10   57 1  
    61   11   58 1  
    62   12   59 1  
    63   13   60 1  
    64   14   61 1  
    65   15   62 1  
    66   24   63 1  
    67   28   64 1  
    68   30   65 1  
    69   31   66 1  
    70   32   67 1  
@<TRIPOS>SUBSTRUCTURE
     1 0YJ         1

