### 
### Created by X-TOOL on Mon Sep 10 21:13:10 2018
### 

@<TRIPOS>MOLECULE
4h2j_ligand
   60    65     1     0     0
SMALL
GAST_HUCK


@<TRIPOS>ATOM
      1 NAU        41.8560   21.4980   62.8040 N.2       1 0YU        -0.3678
      2 CAQ        42.0720   20.3850   63.7280 C.3       1 0YU         0.0003
      3 CAS        43.5050   20.0830   63.4990 C.3       1 0YU         0.0363
      4 NAY        44.0180   21.2690   62.9310 N.pl3     1 0YU        -0.2966
      5 CBC        43.0340   22.0380   62.4790 C.2       1 0YU         0.0996
      6 CBG        43.2770   23.2320   61.9250 C.ar      1 0YU         0.0230
      7 CAL        42.3930   23.8890   61.1040 C.ar      1 0YU        -0.0524
      8 CAH        42.6960   25.1430   60.5800 C.ar      1 0YU        -0.0311
      9 CAK        44.4500   23.8970   62.2120 C.ar      1 0YU        -0.0524
     10 CAG        44.7670   25.1450   61.7010 C.ar      1 0YU        -0.0311
     11 CBE        43.8930   25.7960   60.8380 C.ar      1 0YU         0.0757
     12 NAW        44.1950   27.0370   60.4560 N.am      1 0YU        -0.2291
     13 CBA        43.4980   27.7570   59.5740 C.2       1 0YU         0.2296
     14 OAB        42.6240   27.2830   58.9090 O.2       1 0YU        -0.3776
     15 CBI        43.7140   29.1500   59.5200 C.ar      1 0YU         0.0820
     16 CBJ        43.7220   29.8980   58.3640 C.ar      1 0YU         0.1327
     17 CAO        43.8480   31.2770   58.3160 C.ar      1 0YU        -0.0138
     18 NBK        43.6350   29.2370   57.2720 N.pl3     1 0YU         0.0172
     19 OAD        43.7870   28.4490   57.3050 O.3       1 0YU        -0.0359
     20 OAC        43.4260   29.7620   56.3440 O.3       1 0YU        -0.0359
     21 CAN        43.7720   29.9020   60.6840 C.ar      1 0YU        -0.0487
     22 CAM        43.8940   31.2920   60.6620 C.ar      1 0YU        -0.0505
     23 CBH        43.9440   31.9890   59.4740 C.ar      1 0YU         0.0484
     24 CAZ        44.0480   33.3750   59.4100 C.2       1 0YU         0.2354
     25 OAA        43.3430   33.9790   58.6170 O.2       1 0YU        -0.3694
     26 NAV        44.8950   33.9540   60.2610 N.am      1 0YU        -0.2268
     27 CBD        45.0040   35.2950   60.3580 C.ar      1 0YU         0.0761
     28 CAF        44.6300   36.1800   59.3770 C.ar      1 0YU        -0.0310
     29 CAJ        44.7650   37.5460   59.5690 C.ar      1 0YU        -0.0523
     30 CAE        45.5000   35.8270   61.5280 C.ar      1 0YU        -0.0310
     31 CAI        45.6320   37.1770   61.7340 C.ar      1 0YU        -0.0523
     32 CBF        45.2590   38.0420   60.7550 C.ar      1 0YU         0.0230
     33 CBB        45.4130   39.3500   60.9690 C.2       1 0YU         0.0996
     34 NAX        45.2750   40.2200   59.9790 N.2       1 0YU        -0.3677
     35 CAR        45.5320   41.5230   60.4900 C.3       1 0YU         0.0003
     36 CAP        45.5720   41.3260   61.9850 C.3       1 0YU         0.0363
     37 NAT        45.7950   39.9050   62.1230 N.pl3     1 0YU        -0.2966
     38 H          41.4134   19.5353   63.5484 H         1 0YU         0.0337
     39 H          41.8379   20.6273   64.7646 H         1 0YU         0.0337
     40 H          43.6463   19.2193   62.8493 H         1 0YU         0.0531
     41 H          44.0213   19.8088   64.4189 H         1 0YU         0.0531
     42 H          45.0091   21.5034   62.8753 H         1 0YU         0.1885
     43 H          41.4394   23.4213   60.8589 H         1 0YU         0.0655
     44 H          41.9619   25.6325   59.9400 H         1 0YU         0.0530
     45 H          45.1667   23.4148   62.8768 H         1 0YU         0.0655
     46 H          45.7083   25.6198   61.9776 H         1 0YU         0.0530
     47 H          45.0214   27.4692   60.8690 H         1 0YU         0.2295
     48 H          43.8703   31.7908   57.3549 H         1 0YU         0.0570
     49 H          43.7207   29.3915   61.6457 H         1 0YU         0.0641
     50 H          43.9509   31.8378   61.6038 H         1 0YU         0.0558
     51 H          45.4779   33.3657   60.8564 H         1 0YU         0.2301
     52 H          44.2230   35.8046   58.4381 H         1 0YU         0.0530
     53 H          44.4775   38.2340   58.7740 H         1 0YU         0.0655
     54 H          45.8005   35.1461   62.3243 H         1 0YU         0.0530
     55 H          46.0329   37.5525   62.6755 H         1 0YU         0.0655
     56 H          44.7716   42.2431   60.1879 H         1 0YU         0.0337
     57 H          46.4604   41.9433   60.1032 H         1 0YU         0.0337
     58 H          44.6588   41.6589   62.4783 H         1 0YU         0.0531
     59 H          46.3459   41.9227   62.4679 H         1 0YU         0.0531
     60 H          46.1696   39.4215   62.9393 H         1 0YU         0.1885
@<TRIPOS>BOND
     1    1    2 1  
     2    1    5 2  
     3    2    3 1  
     4    3    4 1  
     5    4    5 1  
     6    5    6 1  
     7    6    7 ar 
     8    6    9 ar 
     9    7    8 ar 
    10    8   11 ar 
    11    9   10 ar 
    12   10   11 ar 
    13   11   12 1  
    14   12   13 am 
    15   13   14 2  
    16   13   15 1  
    17   15   16 ar 
    18   15   21 ar 
    19   16   17 ar 
    20   16   18 1  
    21   17   23 ar 
    22   18   19 1  
    23   18   20 1  
    24   19   20 1  
    25   21   22 ar 
    26   22   23 ar 
    27   23   24 1  
    28   24   25 2  
    29   24   26 am 
    30   26   27 1  
    31   27   28 ar 
    32   27   30 ar 
    33   28   29 ar 
    34   29   32 ar 
    35   30   31 ar 
    36   31   32 ar 
    37   32   33 1  
    38   33   34 2  
    39   33   37 1  
    40   34   35 1  
    41   35   36 1  
    42   36   37 1  
    43    2   38 1  
    44    2   39 1  
    45    3   40 1  
    46    3   41 1  
    47    4   42 1  
    48    7   43 1  
    49    8   44 1  
    50    9   45 1  
    51   10   46 1  
    52   12   47 1  
    53   17   48 1  
    54   21   49 1  
    55   22   50 1  
    56   26   51 1  
    57   28   52 1  
    58   29   53 1  
    59   30   54 1  
    60   31   55 1  
    61   35   56 1  
    62   35   57 1  
    63   36   58 1  
    64   36   59 1  
    65   37   60 1  
@<TRIPOS>SUBSTRUCTURE
     1 0YU         1

