### 
### Created by X-TOOL on Mon Sep 10 21:13:10 2018
### 

@<TRIPOS>MOLECULE
4h2m_ligand
   56    58     1     0     0
SMALL
GAST_HUCK


@<TRIPOS>ATOM
      1 NAA        43.6140   21.8290   65.9910 N.4       1 0YV         0.2200
      2 CAS        42.7460   22.4760   64.9890 C.3       1 0YV        -0.0258
      3 CAU        43.3460   23.7360   64.3830 C.3       1 0YV         0.0216
      4 CBC        43.0530   23.8210   63.0270 C.ar      1 0YV        -0.0351
      5 CAQ        43.3060   25.0060   62.3870 C.ar      1 0YV        -0.0508
      6 CAN        42.5430   22.7310   62.3240 C.ar      1 0YV        -0.0503
      7 CAW        42.2700   22.8430   60.9920 C.ar      1 0YV         0.0074
      8 BRC        41.5870   21.3850   59.9690 Br        1 0YV        -0.0515
      9 CAL        42.5280   24.0660   60.3990 C.ar      1 0YV        -0.0514
     10 CBA        43.0390   25.1610   61.0510 C.ar      1 0YV        -0.0291
     11 CAG        43.2710   26.4020   60.3900 C.2       1 0YV        -0.0551
     12 CAE        43.4700   27.5110   59.7440 C.2       1 0YV        -0.0541
     13 CAY        43.6700   28.6730   59.0200 C.ar      1 0YV        -0.0238
     14 CAP        43.9830   29.8800   59.6150 C.ar      1 0YV        -0.0391
     15 CAJ        43.5410   28.6470   57.6580 C.ar      1 0YV        -0.0545
     16 CAI        43.7420   29.7630   56.8700 C.ar      1 0YV        -0.0600
     17 CAK        44.0500   30.9700   57.4720 C.ar      1 0YV        -0.0463
     18 CAZ        44.1750   31.0320   58.8490 C.ar      1 0YV         0.0259
     19 CAF        44.4830   32.2910   59.4930 C.1       1 0YV        -0.0611
     20 CAH        44.6950   33.0700   59.9200 C.1       1 0YV        -0.0621
     21 CBB        45.0570   34.3570   60.6650 C.ar      1 0YV         0.0213
     22 CAR        45.7410   34.3020   61.8760 C.ar      1 0YV        -0.0423
     23 CAM        44.7130   35.6020   60.1490 C.ar      1 0YV        -0.0434
     24 CAX        45.0230   36.7830   60.8210 C.ar      1 0YV         0.0078
     25 BRD        44.5660   38.4480   60.1200 Br        1 0YV        -0.0516
     26 CAO        45.6880   36.7150   62.0150 C.ar      1 0YV        -0.0504
     27 CBD        46.0430   35.4820   62.5510 C.ar      1 0YV        -0.0343
     28 CAV        46.7050   35.4470   63.7650 C.3       1 0YV         0.0217
     29 CAT        45.7260   35.7320   64.9050 C.3       1 0YV        -0.0258
     30 NAB        45.4040   34.6050   65.7910 N.4       1 0YV         0.2200
     31 H          43.1507   20.9955   66.3529 H         1 0YV         0.1996
     32 H          44.4976   21.5659   65.5545 H         1 0YV         0.1996
     33 H          43.7918   22.4798   66.7560 H         1 0YV         0.1996
     34 H          41.8239   22.7642   65.4938 H         1 0YV         0.0837
     35 H          42.5968   21.7632   64.1779 H         1 0YV         0.0837
     36 H          44.4285   23.7038   64.5068 H         1 0YV         0.0478
     37 H          42.9232   24.6042   64.8885 H         1 0YV         0.0478
     38 H          43.7266   25.8395   62.9495 H         1 0YV         0.0580
     39 H          42.3620   21.7876   62.8392 H         1 0YV         0.0585
     40 H          42.3095   24.1678   59.3360 H         1 0YV         0.0597
     41 H          43.5401   26.8782   61.3328 H         1 0YV         0.0623
     42 H          43.7780   28.0104   60.6626 H         1 0YV         0.0624
     43 H          44.0816   29.9340   60.6992 H         1 0YV         0.0636
     44 H          43.2688   27.7081   57.1759 H         1 0YV         0.0624
     45 H          43.6589   29.6937   55.7854 H         1 0YV         0.0618
     46 H          44.1931   31.8651   56.8666 H         1 0YV         0.0630
     47 H          46.0387   33.3403   62.2938 H         1 0YV         0.0589
     48 H          44.1879   35.6554   59.1953 H         1 0YV         0.0601
     49 H          45.9406   37.6314   62.5483 H         1 0YV         0.0584
     50 H          47.4881   36.2051   63.7677 H         1 0YV         0.0478
     51 H          47.1412   34.4582   63.9065 H         1 0YV         0.0478
     52 H          44.7877   36.0209   64.4315 H         1 0YV         0.0837
     53 H          46.2055   36.4823   65.5337 H         1 0YV         0.0837
     54 H          44.7467   34.9141   66.5071 H         1 0YV         0.1996
     55 H          44.9842   33.8533   65.2441 H         1 0YV         0.1996
     56 H          46.2584   34.2680   66.2347 H         1 0YV         0.1996
@<TRIPOS>BOND
     1    1    2 1  
     2    2    3 1  
     3    3    4 1  
     4    4    5 ar 
     5    4    6 ar 
     6    5   10 ar 
     7    6    7 ar 
     8    7    8 1  
     9    7    9 ar 
    10    9   10 ar 
    11   10   11 1  
    12   11   12 2  
    13   12   13 1  
    14   13   14 ar 
    15   13   15 ar 
    16   14   18 ar 
    17   15   16 ar 
    18   16   17 ar 
    19   17   18 ar 
    20   18   19 1  
    21   19   20 3  
    22   20   21 1  
    23   21   22 ar 
    24   21   23 ar 
    25   22   27 ar 
    26   23   24 ar 
    27   24   25 1  
    28   24   26 ar 
    29   26   27 ar 
    30   27   28 1  
    31   28   29 1  
    32   29   30 1  
    33    1   31 1  
    34    1   32 1  
    35    1   33 1  
    36    2   34 1  
    37    2   35 1  
    38    3   36 1  
    39    3   37 1  
    40    5   38 1  
    41    6   39 1  
    42    9   40 1  
    43   11   41 1  
    44   12   42 1  
    45   14   43 1  
    46   15   44 1  
    47   16   45 1  
    48   17   46 1  
    49   22   47 1  
    50   23   48 1  
    51   26   49 1  
    52   28   50 1  
    53   28   51 1  
    54   29   52 1  
    55   29   53 1  
    56   30   54 1  
    57   30   55 1  
    58   30   56 1  
@<TRIPOS>SUBSTRUCTURE
     1 0YV         1

