### 
### Created by X-TOOL on Mon Sep 10 21:13:11 2018
### 

@<TRIPOS>MOLECULE
4h2o_ligand
   61    62     1     0     0
SMALL
GAST_HUCK


@<TRIPOS>ATOM
      1 OAB       -12.0690  -12.8400   -8.4280 O.co2     1 0YW        -0.5455
      2 CAY       -11.4320  -12.9920   -9.4740 C.2       1 0YW         0.1239
      3 OAE       -11.6620  -12.2260  -10.4160 O.co2     1 0YW        -0.5455
      4 CBE       -10.4400  -13.9700   -9.5570 C.ar      1 0YW         0.1951
      5 CAM       -10.2070  -14.6700  -10.7540 C.ar      1 0YW         0.0944
      6 CBC        -9.1890  -15.6260  -10.8150 C.ar      1 0YW         0.1899
      7 NBF        -8.9460  -16.3090  -11.9410 N.2       1 0YW        -0.1368
      8 OAF        -9.1170  -17.5530  -11.9280 O.2       1 0YW        -0.4484
      9 OAD        -8.5000  -15.6520  -13.1190 O.2       1 0YW        -0.4484
     10 CAJ        -8.4340  -15.8850   -9.6650 C.ar      1 0YW         0.0822
     11 CAK        -8.6740  -15.2090   -8.4760 C.ar      1 0YW         0.1259
     12 CBD        -9.6640  -14.2350   -8.4290 C.ar      1 0YW         0.3262
     13 NAW       -10.0070  -13.5280   -7.3650 N.am      1 0YW        -0.0841
     14 CAZ       -10.0730  -14.0850   -6.1640 C.2       1 0YW         0.3880
     15 OAC        -9.7780  -15.2360   -5.8880 O.2       1 0YW        -0.2724
     16 CBB       -10.6360  -13.2600   -5.2180 C.ar      1 0YW         0.0906
     17 CAL       -11.2110  -12.0630   -5.5870 C.ar      1 0YW        -0.0091
     18 CAI       -10.6970  -13.6640   -3.9170 C.ar      1 0YW        -0.0486
     19 CAG       -11.2950  -12.8550   -2.9980 C.ar      1 0YW        -0.0647
     20 CAH       -11.8550  -11.6500   -3.3660 C.ar      1 0YW        -0.0287
     21 CBA       -11.8190  -11.2350   -4.6670 C.ar      1 0YW         0.0966
     22 OAX       -12.3470  -10.0480   -5.0440 O.3       1 0YW        -0.3170
     23 CAV       -13.1140   -9.3780   -4.0880 C.3       1 0YW         0.0705
     24 CAU       -12.7550   -7.9190   -4.1120 C.3       1 0YW        -0.0251
     25 CAT       -12.6900   -7.3800   -2.7000 C.3       1 0YW        -0.0506
     26 CAS       -12.9320   -5.9050   -2.7380 C.3       1 0YW        -0.0530
     27 CAR       -12.8410   -5.2910   -1.3630 C.3       1 0YW        -0.0531
     28 CAQ       -14.2470   -4.9340   -0.9780 C.3       1 0YW        -0.0531
     29 CAP       -14.2460   -3.8570    0.0750 C.3       1 0YW        -0.0531
     30 CAO       -15.1480   -4.2920    1.1790 C.3       1 0YW        -0.0533
     31 CAN       -16.3370   -3.4110    1.1590 C.3       1 0YW        -0.0559
     32 CAA       -16.5160   -2.8520    2.5310 C.3       1 0YW        -0.0653
     33 H         -10.8191  -14.4675  -11.6329 H         1 0YW         0.1054
     34 H          -7.6416  -16.6325   -9.7036 H         1 0YW         0.1031
     35 H          -8.0897  -15.4408   -7.5855 H         1 0YW         0.1347
     36 H         -10.2245  -12.5371   -7.4705 H         1 0YW         0.4294
     37 H         -11.1844  -11.7627   -6.6345 H         1 0YW         0.0593
     38 H         -10.2728  -14.6219   -3.6161 H         1 0YW         0.0577
     39 H         -11.3313  -13.1658   -1.9539 H         1 0YW         0.0601
     40 H         -12.3307  -11.0229   -2.6120 H         1 0YW         0.0578
     41 H         -12.9135   -9.7907   -3.0993 H         1 0YW         0.0613
     42 H         -14.1734   -9.5007   -4.3133 H         1 0YW         0.0613
     43 H         -13.5142   -7.3716   -4.6706 H         1 0YW         0.0291
     44 H         -11.7822   -7.7964   -4.5882 H         1 0YW         0.0291
     45 H         -11.7088   -7.5832   -2.2710 H         1 0YW         0.0266
     46 H         -13.4480   -7.8637   -2.0839 H         1 0YW         0.0266
     47 H         -13.9352   -5.7308   -3.1270 H         1 0YW         0.0265
     48 H         -12.1709   -5.4476   -3.3702 H         1 0YW         0.0265
     49 H         -12.1959   -4.4124   -1.3640 H         1 0YW         0.0265
     50 H         -12.3992   -5.9852   -0.6482 H         1 0YW         0.0265
     51 H         -14.7416   -5.8197   -0.5793 H         1 0YW         0.0265
     52 H         -14.7743   -4.5684   -1.8591 H         1 0YW         0.0265
     53 H         -14.5959   -2.9156   -0.3486 H         1 0YW         0.0265
     54 H         -13.2357   -3.7009    0.4533 H         1 0YW         0.0265
     55 H         -14.6367   -4.2188    2.1389 H         1 0YW         0.0265
     56 H         -15.4432   -5.3322    1.0412 H         1 0YW         0.0265
     57 H         -17.2209   -3.9761    0.8631 H         1 0YW         0.0263
     58 H         -16.1981   -2.6054    0.4380 H         1 0YW         0.0263
     59 H         -16.6621   -3.6683    3.2383 H         1 0YW         0.0230
     60 H         -15.6286   -2.2833    2.8088 H         1 0YW         0.0230
     61 H         -17.3875   -2.1975    2.5444 H         1 0YW         0.0230
@<TRIPOS>BOND
     1    1    2 ar 
     2    2    3 ar 
     3    2    4 1  
     4    4    5 ar 
     5    4   12 ar 
     6    5    6 ar 
     7    6    7 1  
     8    6   10 ar 
     9    7    8 2  
    10    7    9 2  
    11   10   11 ar 
    12   11   12 ar 
    13   12   13 1  
    14   13   14 am 
    15   14   15 2  
    16   14   16 1  
    17   16   17 ar 
    18   16   18 ar 
    19   17   21 ar 
    20   18   19 ar 
    21   19   20 ar 
    22   20   21 ar 
    23   21   22 1  
    24   22   23 1  
    25   23   24 1  
    26   24   25 1  
    27   25   26 1  
    28   26   27 1  
    29   27   28 1  
    30   28   29 1  
    31   29   30 1  
    32   30   31 1  
    33   31   32 1  
    34    5   33 1  
    35   10   34 1  
    36   11   35 1  
    37   13   36 1  
    38   17   37 1  
    39   18   38 1  
    40   19   39 1  
    41   20   40 1  
    42   23   41 1  
    43   23   42 1  
    44   24   43 1  
    45   24   44 1  
    46   25   45 1  
    47   25   46 1  
    48   26   47 1  
    49   26   48 1  
    50   27   49 1  
    51   27   50 1  
    52   28   51 1  
    53   28   52 1  
    54   29   53 1  
    55   29   54 1  
    56   30   55 1  
    57   30   56 1  
    58   31   57 1  
    59   31   58 1  
    60   32   59 1  
    61   32   60 1  
    62   32   61 1  
@<TRIPOS>SUBSTRUCTURE
     1 0YW         1

