### 
### Created by X-TOOL on Mon Sep 10 21:13:11 2018
### 

@<TRIPOS>MOLECULE
4h3a_ligand
   48    48     1     0     0
SMALL
GAST_HUCK


@<TRIPOS>ATOM
      1 OAB        45.2250   26.2840   67.1370 O.co2     1 0YY        -0.5662
      2 CAS        45.0050   25.1920   67.6750 C.2       1 0YY         0.0656
      3 OAD        45.2280   25.0200   68.8780 O.co2     1 0YY        -0.5662
      4 CAU        44.4470   24.0700   66.8360 C.3       1 0YY         0.1220
      5 OAE        44.2150   22.8520   67.4010 O.3       1 0YY        -0.3754
      6 CAF        44.2130   24.4140   65.3650 C.3       1 0YY         0.0586
      7 CAT        43.6950   23.4430   64.2970 C.2       1 0YY         0.1289
      8 OAC        43.3130   22.3050   64.5460 O.2       1 0YY        -0.3838
      9 CAW        43.5490   24.1150   63.0820 C.ar      1 0YY         0.0215
     10 CAJ        44.4650   25.1180   62.7980 C.ar      1 0YY        -0.0515
     11 CAH        44.3990   25.8930   61.6530 C.ar      1 0YY        -0.0265
     12 CAI        42.4950   23.9230   62.2070 C.ar      1 0YY        -0.0515
     13 CAG        42.4200   24.7080   61.0670 C.ar      1 0YY        -0.0265
     14 CAV        43.3600   25.6750   60.8020 C.ar      1 0YY         0.0970
     15 OAR        43.2650   26.4130   59.7140 O.3       1 0YY        -0.3143
     16 CAQ        44.1650   27.4570   59.7580 C.3       1 0YY         0.0718
     17 CAP        43.9970   28.2520   58.4850 C.3       1 0YY        -0.0248
     18 CAO        44.4280   29.6870   58.7250 C.3       1 0YY        -0.0506
     19 CAN        43.8200   30.2060   60.0300 C.3       1 0YY        -0.0530
     20 CAM        44.2170   31.6480   60.3110 C.3       1 0YY        -0.0531
     21 CAL        43.2950   32.6410   59.6370 C.3       1 0YY        -0.0533
     22 CAK        44.0910   33.8000   59.0560 C.3       1 0YY        -0.0559
     23 CAA        45.2430   34.1560   59.9870 C.3       1 0YY        -0.0653
     24 H          43.8746   23.1486   66.7286 H         1 0YY         0.0788
     25 H          43.8629   22.2545   66.7373 H         1 0YY         0.2126
     26 H          45.2239   24.6221   65.0146 H         1 0YY         0.0527
     27 H          43.4034   25.1413   65.4256 H         1 0YY         0.0527
     28 H          45.2715   25.3036   63.5074 H         1 0YY         0.0645
     29 H          45.1528   26.6512   61.4406 H         1 0YY         0.0558
     30 H          41.7363   23.1673   62.4105 H         1 0YY         0.0645
     31 H          41.5989   24.5553   60.3666 H         1 0YY         0.0558
     32 H          45.1842   27.0795   59.8410 H         1 0YY         0.0616
     33 H          43.9784   28.0858   60.6286 H         1 0YY         0.0616
     34 H          42.9508   28.2328   58.1798 H         1 0YY         0.0291
     35 H          44.6124   27.8142   57.6990 H         1 0YY         0.0291
     36 H          44.0837   30.3076   57.8977 H         1 0YY         0.0266
     37 H          45.5150   29.7276   58.7952 H         1 0YY         0.0266
     38 H          44.1881   29.5860   60.8474 H         1 0YY         0.0265
     39 H          42.7345   30.1628   59.9408 H         1 0YY         0.0265
     40 H          45.2231   31.8032   59.9214 H         1 0YY         0.0265
     41 H          44.1593   31.8104   61.3873 H         1 0YY         0.0265
     42 H          42.5929   33.0290   60.3750 H         1 0YY         0.0265
     43 H          42.7627   32.1378   58.8298 H         1 0YY         0.0265
     44 H          43.4375   34.6653   58.9455 H         1 0YY         0.0263
     45 H          44.4905   33.5103   58.0841 H         1 0YY         0.0263
     46 H          44.8461   34.4439   60.9605 H         1 0YY         0.0230
     47 H          45.8968   33.2914   60.1010 H         1 0YY         0.0230
     48 H          45.8075   34.9866   59.5633 H         1 0YY         0.0230
@<TRIPOS>BOND
     1    1    2 ar 
     2    2    3 ar 
     3    2    4 1  
     4    4    5 1  
     5    4    6 1  
     6    6    7 1  
     7    7    8 2  
     8    7    9 1  
     9    9   10 ar 
    10    9   12 ar 
    11   10   11 ar 
    12   11   14 ar 
    13   12   13 ar 
    14   13   14 ar 
    15   14   15 1  
    16   15   16 1  
    17   16   17 1  
    18   17   18 1  
    19   18   19 1  
    20   19   20 1  
    21   20   21 1  
    22   21   22 1  
    23   22   23 1  
    24    4   24 1  
    25    5   25 1  
    26    6   26 1  
    27    6   27 1  
    28   10   28 1  
    29   11   29 1  
    30   12   30 1  
    31   13   31 1  
    32   16   32 1  
    33   16   33 1  
    34   17   34 1  
    35   17   35 1  
    36   18   36 1  
    37   18   37 1  
    38   19   38 1  
    39   19   39 1  
    40   20   40 1  
    41   20   41 1  
    42   21   42 1  
    43   21   43 1  
    44   22   44 1  
    45   22   45 1  
    46   23   46 1  
    47   23   47 1  
    48   23   48 1  
@<TRIPOS>SUBSTRUCTURE
     1 0YY         1

