### 
### Created by X-TOOL on Mon Sep 10 21:13:11 2018
### 

@<TRIPOS>MOLECULE
4h3c_ligand
   54    54     1     0     0
SMALL
GAST_HUCK


@<TRIPOS>ATOM
      1 OAB        43.6830   20.4740   66.3350 O.co2     1 0YZ        -0.5662
      2 CAU        42.6770   19.7970   66.6280 C.2       1 0YZ         0.0656
      3 OAD        42.5280   19.3790   67.7810 O.co2     1 0YZ        -0.5662
      4 CAW        41.6050   19.5150   65.5700 C.3       1 0YZ         0.1221
      5 OAE        40.4940   18.7410   65.7990 O.3       1 0YZ        -0.3754
      6 CAF        41.9010   20.0800   64.2100 C.3       1 0YZ         0.0602
      7 CAV        40.9090   19.8850   63.1320 C.2       1 0YZ         0.1345
      8 OAC        39.9280   19.1950   63.3140 O.2       1 0YZ        -0.3782
      9 CAY        41.3030   20.4400   61.9370 C.ar      1 0YZ         0.0241
     10 CAJ        42.0540   21.5930   61.9350 C.ar      1 0YZ        -0.0146
     11 CAI        41.0030   19.8130   60.7610 C.ar      1 0YZ        -0.0541
     12 CAG        41.4290   20.3640   59.5830 C.ar      1 0YZ        -0.0646
     13 CAH        42.1800   21.4970   59.5750 C.ar      1 0YZ        -0.0285
     14 CAX        42.4740   22.1340   60.7410 C.ar      1 0YZ         0.0967
     15 OAT        43.2100   23.2430   60.6060 O.3       1 0YZ        -0.3169
     16 CAS        43.2670   24.2760   61.5180 C.3       1 0YZ         0.0705
     17 CAR        44.2270   25.3180   60.9270 C.3       1 0YZ        -0.0251
     18 CAQ        43.5100   26.2040   59.9430 C.3       1 0YZ        -0.0506
     19 CAP        44.3410   27.4100   59.6110 C.3       1 0YZ        -0.0530
     20 CAO        43.8490   28.1040   58.3850 C.3       1 0YZ        -0.0531
     21 CAN        44.9010   29.1130   58.0510 C.3       1 0YZ        -0.0531
     22 CAM        44.9940   29.4090   56.5850 C.3       1 0YZ        -0.0531
     23 CAL        46.2790   30.1530   56.4750 C.3       1 0YZ        -0.0533
     24 CAK        46.8820   30.0560   55.1250 C.3       1 0YZ        -0.0559
     25 CAA        47.5590   31.3570   54.8470 C.3       1 0YZ        -0.0653
     26 H          40.6504   19.5527   66.0948 H         1 0YZ         0.0789
     27 H          39.9630   18.7011   65.0002 H         1 0YZ         0.2126
     28 H          42.7945   19.5549   63.8724 H         1 0YZ         0.0529
     29 H          41.9539   21.1589   64.3558 H         1 0YZ         0.0529
     30 H          42.3156   22.0765   62.8762 H         1 0YZ         0.0594
     31 H          40.4312   18.8850   60.7609 H         1 0YZ         0.0578
     32 H          41.1627   19.8883   58.6391 H         1 0YZ         0.0601
     33 H          42.5484   21.8971   58.6304 H         1 0YZ         0.0580
     34 H          43.6182   23.9243   62.4881 H         1 0YZ         0.0613
     35 H          42.2792   24.7043   61.6883 H         1 0YZ         0.0613
     36 H          45.0353   24.7999   60.4110 H         1 0YZ         0.0291
     37 H          44.6193   25.9346   61.7357 H         1 0YZ         0.0291
     38 H          42.5705   26.5346   60.3860 H         1 0YZ         0.0266
     39 H          43.3273   25.6395   59.0287 H         1 0YZ         0.0266
     40 H          45.3643   27.0809   59.4302 H         1 0YZ         0.0265
     41 H          44.2803   28.1075   60.4464 H         1 0YZ         0.0265
     42 H          42.8808   28.5757   58.5532 H         1 0YZ         0.0265
     43 H          43.6910   27.4038   57.5647 H         1 0YZ         0.0265
     44 H          45.8612   28.7046   58.3662 H         1 0YZ         0.0265
     45 H          44.6400   30.0415   58.5587 H         1 0YZ         0.0265
     46 H          44.1424   29.9793   56.2141 H         1 0YZ         0.0265
     47 H          44.9726   28.5093   55.9700 H         1 0YZ         0.0265
     48 H          46.9801   29.7173   57.1868 H         1 0YZ         0.0265
     49 H          46.0751   31.2048   56.6757 H         1 0YZ         0.0265
     50 H          46.1153   29.8555   54.3766 H         1 0YZ         0.0263
     51 H          47.5979   29.2351   55.0833 H         1 0YZ         0.0263
     52 H          46.8248   32.1619   54.8819 H         1 0YZ         0.0230
     53 H          48.3285   31.5326   55.5987 H         1 0YZ         0.0230
     54 H          48.0163   31.3232   53.8581 H         1 0YZ         0.0230
@<TRIPOS>BOND
     1    1    2 ar 
     2    2    3 ar 
     3    2    4 1  
     4    4    5 1  
     5    4    6 1  
     6    6    7 1  
     7    7    8 2  
     8    7    9 1  
     9    9   10 ar 
    10    9   11 ar 
    11   10   14 ar 
    12   11   12 ar 
    13   12   13 ar 
    14   13   14 ar 
    15   14   15 1  
    16   15   16 1  
    17   16   17 1  
    18   17   18 1  
    19   18   19 1  
    20   19   20 1  
    21   20   21 1  
    22   21   22 1  
    23   22   23 1  
    24   23   24 1  
    25   24   25 1  
    26    4   26 1  
    27    5   27 1  
    28    6   28 1  
    29    6   29 1  
    30   10   30 1  
    31   11   31 1  
    32   12   32 1  
    33   13   33 1  
    34   16   34 1  
    35   16   35 1  
    36   17   36 1  
    37   17   37 1  
    38   18   38 1  
    39   18   39 1  
    40   19   40 1  
    41   19   41 1  
    42   20   42 1  
    43   20   43 1  
    44   21   44 1  
    45   21   45 1  
    46   22   46 1  
    47   22   47 1  
    48   23   48 1  
    49   23   49 1  
    50   24   50 1  
    51   24   51 1  
    52   25   52 1  
    53   25   53 1  
    54   25   54 1  
@<TRIPOS>SUBSTRUCTURE
     1 0YZ         1

