### 
### Created by X-TOOL on Mon Sep 10 21:13:10 2018
### 

@<TRIPOS>MOLECULE
4h3f_ligand
   56    60     1     0     0
SMALL
GAST_HUCK


@<TRIPOS>ATOM
      1 C1         21.8620   10.3850   21.5640 C.3       1 10O         0.1207
      2 C2         21.1720   11.6730   22.0590 C.3       1 10O         0.0727
      3 N1         22.4630   11.3560   24.1820 N.am      1 10O        -0.2148
      4 C3         22.4780    9.9840   23.9550 C.cat     1 10O         0.3167
      5 C4         21.8150   12.2610   23.3420 C.2       1 10O         0.1745
      6 N2         22.1740    9.5010   22.7020 N.pl3     1 10O        -0.2926
      7 C5         23.1090   10.7540   20.7800 C.2       1 10O         0.0488
      8 N3         19.5370   10.1670   21.3280 N.pl3     1 10O        -0.3051
      9 C6         20.7860    9.7190   20.7100 C.3       1 10O         0.0350
     10 C7         19.6950   11.3040   22.2440 C.3       1 10O         0.0390
     11 C8         24.4860   10.6230   21.2060 C.2       1 10O        -0.0109
     12 C9         25.4310   11.0600   20.2420 C.2       1 10O         0.0478
     13 S1         23.0970   11.4220   19.2090 S.3       1 10O         0.0101
     14 C10        24.7930   11.5310   19.0810 C.2       1 10O         0.0684
     15 C11        18.3400    9.5550   21.0370 C.ar      1 10O         0.1000
     16 N4         29.7790    9.2640   23.9810 N.1       1 10O        -0.3282
     17 N5         22.7720    9.1390   24.9360 N.pl3     1 10O        -0.2551
     18 C12        26.9210   11.0300   20.4680 C.ar      1 10O        -0.0001
     19 C13        29.3580    9.7690   23.0340 C.1       1 10O         0.1002
     20 O1         21.7440   13.4670   23.5620 O.2       1 10O        -0.3981
     21 N6         18.3940    8.5740   20.1010 N.ar      1 10O        -0.2613
     22 C14        27.4740   10.4230   21.6210 C.ar      1 10O        -0.0211
     23 C15        23.1720   11.9050   25.3740 C.3       1 10O         0.0243
     24 C16        28.8650   10.3990   21.8500 C.ar      1 10O         0.0942
     25 C17        27.8260   11.6220   19.5440 C.ar      1 10O        -0.0477
     26 C18        17.1090    9.9060   21.6560 C.ar      1 10O        -0.0286
     27 C19        29.2280   11.6010   19.7670 C.ar      1 10O        -0.0525
     28 C20        17.2840    7.9010   19.7290 C.ar      1 10O         0.1485
     29 C21        29.7600   10.9860   20.9270 C.ar      1 10O        -0.0290
     30 C22        15.9430    9.2020   21.2700 C.ar      1 10O        -0.0637
     31 C23        16.0290    8.1820   20.2890 C.ar      1 10O        -0.0195
     32 O2         17.3610    6.8960   18.7670 O.3       1 10O        -0.3061
     33 C24        18.6700    6.6660   18.2430 C.3       1 10O         0.0627
     34 H1         21.2500   12.4394   21.2738 H         1 10O         0.0436
     35 H2         22.1642    8.4818   22.5538 H         1 10O         0.3048
     36 H3         20.8740    8.6233   20.7500 H         1 10O         0.0396
     37 H4         20.8500   10.0541   19.6643 H         1 10O         0.0396
     38 H5         19.0376   12.1387   21.9593 H         1 10O         0.0535
     39 H6         19.4854   11.0100   23.2830 H         1 10O         0.0535
     40 H7         24.7711   10.2249   22.1787 H         1 10O         0.0977
     41 H8         25.3174   11.9175   18.2083 H         1 10O         0.1381
     42 H9         22.9997    9.4981   25.8741 H         1 10O         0.3198
     43 H10        22.7724    8.1243   24.7589 H         1 10O         0.3198
     44 H11        26.8112    9.9650   22.3463 H         1 10O         0.0708
     45 H12        23.6323   11.0808   25.9386 H         1 10O         0.0483
     46 H13        22.4529   12.4333   26.0173 H         1 10O         0.0483
     47 H14        23.9536   12.6057   25.0452 H         1 10O         0.0483
     48 H15        27.4374   12.0989   18.6515 H         1 10O         0.0674
     49 H16        17.0646   10.6907   22.4026 H         1 10O         0.0511
     50 H17        29.8953   12.0583   19.0454 H         1 10O         0.0635
     51 H18        30.8295   10.9661   21.1028 H         1 10O         0.0700
     52 H19        14.9878    9.4420   21.7229 H         1 10O         0.0666
     53 H20        15.1470    7.6331   19.9795 H         1 10O         0.0519
     54 H21        18.6293    5.8600   17.4956 H         1 10O         0.0583
     55 H22        19.3461    6.3744   19.0602 H         1 10O         0.0583
     56 H23        19.0425    7.5864   17.7697 H         1 10O         0.0583
@<TRIPOS>BOND
     1    1    2 1  
     2    1    6 1  
     3    7    1 1  
     4    1    9 1  
     5    2    5 1  
     6    2   10 1  
     7    4    3 ar 
     8    5    3 am 
     9    3   23 1  
    10    6    4 ar 
    11    4   17 ar 
    12    5   20 2  
    13   11    7 2  
    14   13    7 1  
    15    9    8 1  
    16    8   10 1  
    17    8   15 1  
    18   12   11 1  
    19   12   14 2  
    20   18   12 1  
    21   14   13 1  
    22   15   21 ar 
    23   15   26 ar 
    24   19   16 3  
    25   22   18 ar 
    26   18   25 ar 
    27   24   19 1  
    28   21   28 ar 
    29   22   24 ar 
    30   24   29 ar 
    31   25   27 ar 
    32   26   30 ar 
    33   27   29 ar 
    34   28   31 ar 
    35   28   32 1  
    36   30   31 ar 
    37   32   33 1  
    38    2   34 1  
    39    6   35 1  
    40    9   36 1  
    41    9   37 1  
    42   10   38 1  
    43   10   39 1  
    44   11   40 1  
    45   14   41 1  
    46   17   42 1  
    47   17   43 1  
    48   22   44 1  
    49   23   45 1  
    50   23   46 1  
    51   23   47 1  
    52   25   48 1  
    53   26   49 1  
    54   27   50 1  
    55   29   51 1  
    56   30   52 1  
    57   31   53 1  
    58   33   54 1  
    59   33   55 1  
    60   33   56 1  
@<TRIPOS>SUBSTRUCTURE
     1 10O         1

