### 
### Created by X-TOOL on Mon Sep 10 21:13:10 2018
### 

@<TRIPOS>MOLECULE
4h3g_ligand
   53    57     1     0     0
SMALL
GAST_HUCK


@<TRIPOS>ATOM
      1 C1         21.9550   10.7170   21.1860 C.3       1 10Q         0.1212
      2 C2         21.4950   12.1180   21.6250 C.3       1 10Q         0.0733
      3 N1         22.6910   11.6700   23.7900 N.am      1 10Q        -0.2148
      4 C3         22.5710   10.2970   23.5800 C.cat     1 10Q         0.3167
      5 C4         22.2490   12.6340   22.8790 C.2       1 10Q         0.1745
      6 N2         22.1730    9.8350   22.3520 N.pl3     1 10Q        -0.2925
      7 C5         23.1850   10.8980   20.3110 C.2       1 10Q         0.0488
      8 N3         19.6300   10.7890   21.0670 N.pl3     1 10Q        -0.2944
      9 C6         20.7880   10.1640   20.4320 C.3       1 10Q         0.0379
     10 C7         19.9770   11.9990   21.8190 C.3       1 10Q         0.0419
     11 C8         24.5600   10.8480   20.7490 C.2       1 10Q        -0.0109
     12 C9         25.4990   11.0590   19.7140 C.2       1 10Q         0.0478
     13 S1         23.1580   11.2120   18.6280 S.3       1 10Q         0.0101
     14 C10        24.8630   11.2790   18.4680 C.2       1 10Q         0.0684
     15 C11        18.3210   10.2980   21.0180 C.ar      1 10Q         0.1502
     16 N4         29.8160    9.5150   23.6020 N.1       1 10Q        -0.3282
     17 N5         22.8590    9.4320   24.5560 N.pl3     1 10Q        -0.2551
     18 C12        26.9860   11.0580   19.9590 C.ar      1 10Q        -0.0001
     19 C13        17.7220    9.5050   19.9650 C.ar      1 10Q         0.1401
     20 C14        29.4030    9.9630   22.6230 C.1       1 10Q         0.1002
     21 O1         22.4380   13.8400   23.0230 O.2       1 10Q        -0.3981
     22 C15        16.3810    9.0950   20.1020 C.ar      1 10Q        -0.0192
     23 C16        27.5210   10.5180   21.1540 C.ar      1 10Q        -0.0211
     24 C17        23.3360   12.1520   25.0490 C.3       1 10Q         0.0243
     25 C18        28.9120   10.5210   21.4010 C.ar      1 10Q         0.0942
     26 N6         17.5670   10.6430   22.1120 N.ar      1 10Q        -0.2719
     27 C19        27.8980   11.6070   19.0170 C.ar      1 10Q        -0.0477
     28 C20        16.2800   10.2220   22.2300 C.ar      1 10Q         0.0050
     29 C21        29.2940   11.6100   19.2590 C.ar      1 10Q        -0.0525
     30 C22        15.6440    9.4550   21.2480 C.ar      1 10Q        -0.0367
     31 C23        29.8160   11.0670   20.4580 C.ar      1 10Q        -0.0290
     32 C24        18.4050    9.0940   18.7530 C.1       1 10Q         0.0974
     33 N7         19.0030    8.7910   17.8020 N.1       1 10Q        -0.3364
     34 H1         21.6921   12.8301   20.8101 H         1 10Q         0.0436
     35 H2         22.0183    8.8233   22.2362 H         1 10Q         0.3048
     36 H3         20.7434    9.0691   20.5282 H         1 10Q         0.0403
     37 H4         20.8451   10.4366   19.3678 H         1 10Q         0.0403
     38 H5         19.4581   12.8785   21.4100 H         1 10Q         0.0541
     39 H6         19.7242   11.8863   22.8836 H         1 10Q         0.0541
     40 H7         24.8475   10.6643   21.7832 H         1 10Q         0.0977
     41 H8         25.3877   11.4660   17.5323 H         1 10Q         0.1381
     42 H9         23.1581    9.7778   25.4790 H         1 10Q         0.3198
     43 H10        22.7820    8.4191   24.3857 H         1 10Q         0.3198
     44 H11        15.9150    8.5012   19.3240 H         1 10Q         0.0800
     45 H12        26.8506   10.0944   21.8930 H         1 10Q         0.0708
     46 H13        23.6303   11.2887   25.6639 H         1 10Q         0.0483
     47 H14        22.6246   12.7761   25.6098 H         1 10Q         0.0483
     48 H15        24.2278   12.7459   24.8000 H         1 10Q         0.0483
     49 H16        27.5178   12.0319   18.0950 H         1 10Q         0.0674
     50 H17        15.7241   10.4914   23.1208 H         1 10Q         0.0853
     51 H18        29.9672   12.0310   18.5210 H         1 10Q         0.0635
     52 H19        14.6117    9.1458   21.3655 H         1 10Q         0.0622
     53 H20        30.8830   11.0693   20.6495 H         1 10Q         0.0700
@<TRIPOS>BOND
     1    1    2 1  
     2    1    6 1  
     3    7    1 1  
     4    1    9 1  
     5    2    5 1  
     6    2   10 1  
     7    4    3 ar 
     8    5    3 am 
     9    3   24 1  
    10    6    4 ar 
    11    4   17 ar 
    12    5   21 2  
    13   11    7 2  
    14   13    7 1  
    15    9    8 1  
    16    8   10 1  
    17    8   15 1  
    18   12   11 1  
    19   12   14 2  
    20   18   12 1  
    21   14   13 1  
    22   15   19 ar 
    23   15   26 ar 
    24   20   16 3  
    25   23   18 ar 
    26   18   27 ar 
    27   19   22 ar 
    28   19   32 1  
    29   25   20 1  
    30   22   30 ar 
    31   23   25 ar 
    32   25   31 ar 
    33   26   28 ar 
    34   27   29 ar 
    35   28   30 ar 
    36   29   31 ar 
    37   32   33 3  
    38    2   34 1  
    39    6   35 1  
    40    9   36 1  
    41    9   37 1  
    42   10   38 1  
    43   10   39 1  
    44   11   40 1  
    45   14   41 1  
    46   17   42 1  
    47   17   43 1  
    48   22   44 1  
    49   23   45 1  
    50   24   46 1  
    51   24   47 1  
    52   24   48 1  
    53   27   49 1  
    54   28   50 1  
    55   29   51 1  
    56   30   52 1  
    57   31   53 1  
@<TRIPOS>SUBSTRUCTURE
     1 10Q         1

