### 
### Created by X-TOOL on Mon Sep 10 21:13:11 2018
### 

@<TRIPOS>MOLECULE
4h3i_ligand
   56    60     1     0     0
SMALL
GAST_HUCK


@<TRIPOS>ATOM
      1 C1         28.3940   10.9150   18.2840 C.ar      1 10V        -0.0525
      2 C2         29.0800   10.5530   19.4740 C.ar      1 10V        -0.0290
      3 C3         28.3190   10.3150   20.6500 C.ar      1 10V         0.0942
      4 C4         26.9150   10.4360   20.6350 C.ar      1 10V        -0.0211
      5 C5         26.2070   10.7940   19.4600 C.ar      1 10V        -0.0001
      6 C6         26.9740   11.0330   18.2820 C.ar      1 10V        -0.0477
      7 C7         24.7030   10.9150   19.4840 C.2       1 10V         0.0478
      8 C8         23.8900   10.4700   20.5640 C.2       1 10V        -0.0109
      9 C9         22.4680   10.6900   20.3660 C.2       1 10V         0.0487
     10 S1         22.2430   11.4320   18.8520 S.3       1 10V         0.0101
     11 C10        23.9120   11.4710   18.4590 C.2       1 10V         0.0684
     12 C11        21.3480   10.3360   21.3170 C.3       1 10V         0.1203
     13 C12        20.7340   11.6290   21.8870 C.3       1 10V         0.0724
     14 C13        21.5060   12.2330   23.1010 C.2       1 10V         0.1745
     15 N1         22.2770   11.3440   23.8600 N.am      1 10V        -0.2148
     16 C14        22.3160    9.9770   23.6180 C.cat     1 10V         0.3167
     17 N2         21.8350    9.4830   22.4300 N.pl3     1 10V        -0.2926
     18 N3         22.8060    9.1340   24.5260 N.pl3     1 10V        -0.2551
     19 C15        20.1640    9.6030   20.6520 C.3       1 10V         0.0332
     20 C16        23.0710   11.9480   24.9740 C.3       1 10V         0.0243
     21 O1         21.4180   13.4350   23.3480 O.2       1 10V        -0.3981
     22 C17        28.9630    9.9470   21.8800 C.1       1 10V         0.1002
     23 N4         29.4520    9.6480   22.8880 N.1       1 10V        -0.3282
     24 C18        19.3020   11.2590   22.2360 C.3       1 10V         0.0373
     25 N5         18.9810   10.1530   21.3180 N.pl3     1 10V        -0.3052
     26 C19        15.3710    9.1180   21.6510 C.ar      1 10V        -0.0252
     27 C20        16.6400    9.6270   22.0600 C.ar      1 10V         0.1372
     28 C21        17.6840    9.6770   21.0620 C.ar      1 10V         0.1442
     29 C23        16.2280    8.7630   19.4300 C.ar      1 10V        -0.0167
     30 C24        15.1600    8.6830   20.3310 C.ar      1 10V        -0.0579
     31 C25        16.0550    9.6820   24.4530 C.3       1 10V         0.0584
     32 O2         16.8920   10.0720   23.3770 O.3       1 10V        -0.3187
     33 N6         17.4470    9.2450   19.7850 N.ar      1 10V        -0.2966
     34 H          28.9559   11.1032   17.3691 H         1 10V         0.0635
     35 H          30.1660   10.4599   19.4847 H         1 10V         0.0700
     36 H          26.3576   10.2490   21.5528 H         1 10V         0.0708
     37 H          26.4632   11.3119   17.3604 H         1 10V         0.0674
     38 H          24.2986   10.0049   21.4611 H         1 10V         0.0977
     39 H          24.3120   11.8764   17.5297 H         1 10V         0.1381
     40 H          20.7906   12.4314   21.1514 H         1 10V         0.0436
     41 H          21.8111    8.4709   22.3053 H         1 10V         0.3047
     42 H          23.1595    9.4900   25.4141 H         1 10V         0.3198
     43 H          22.8276    8.1327   24.3330 H         1 10V         0.3198
     44 H          20.2341    8.5212   20.7653 H         1 10V         0.0392
     45 H          20.1380    9.7578   19.5734 H         1 10V         0.0392
     46 H          23.7676   12.6806   24.5663 H         1 10V         0.0483
     47 H          22.3958   12.4379   25.6756 H         1 10V         0.0483
     48 H          23.6263   11.1642   25.4892 H         1 10V         0.0483
     49 H          18.6196   12.1010   22.1202 H         1 10V         0.0530
     50 H          19.1948   10.9701   23.2816 H         1 10V         0.0530
     51 H          14.5548    9.0659   22.3715 H         1 10V         0.0611
     52 H          16.0756    8.4257   18.4047 H         1 10V         0.0677
     53 H          14.1911    8.2940   20.0178 H         1 10V         0.0566
     54 H          15.0369   10.0208   24.2610 H         1 10V         0.0575
     55 H          16.0665    8.5960   24.5454 H         1 10V         0.0575
     56 H          16.4204   10.1304   25.3769 H         1 10V         0.0575
@<TRIPOS>BOND
     1    1    2 ar 
     2    6    1 ar 
     3    3    2 ar 
     4    4    3 ar 
     5    3   22 1  
     6    5    4 ar 
     7    5    6 ar 
     8    7    5 1  
     9    8    7 1  
    10   11    7 2  
    11    9    8 2  
    12    9   10 1  
    13   12    9 1  
    14   10   11 1  
    15   13   12 1  
    16   12   17 1  
    17   19   12 1  
    18   13   14 1  
    19   24   13 1  
    20   14   15 am 
    21   14   21 2  
    22   15   16 ar 
    23   15   20 1  
    24   17   16 ar 
    25   16   18 ar 
    26   25   19 1  
    27   22   23 3  
    28   25   24 1  
    29   28   25 1  
    30   27   26 ar 
    31   26   30 ar 
    32   27   28 ar 
    33   27   32 1  
    34   28   33 ar 
    35   30   29 ar 
    36   29   33 ar 
    37   32   31 1  
    38    1   34 1  
    39    2   35 1  
    40    4   36 1  
    41    6   37 1  
    42    8   38 1  
    43   11   39 1  
    44   13   40 1  
    45   17   41 1  
    46   18   42 1  
    47   18   43 1  
    48   19   44 1  
    49   19   45 1  
    50   20   46 1  
    51   20   47 1  
    52   20   48 1  
    53   24   49 1  
    54   24   50 1  
    55   26   51 1  
    56   29   52 1  
    57   30   53 1  
    58   31   54 1  
    59   31   55 1  
    60   31   56 1  
@<TRIPOS>SUBSTRUCTURE
     1 10V         1

