### 
### Created by X-TOOL on Mon Sep 10 21:13:09 2018
### 

@<TRIPOS>MOLECULE
4h3j_ligand
   53    57     1     0     0
SMALL
GAST_HUCK


@<TRIPOS>ATOM
      1 C1         21.5430   12.2290   23.3130 C.2       1 10W         0.1722
      2 N1         22.2370   11.3640   24.1340 N.am      1 10W        -0.2152
      3 C2         22.2480    9.9970   23.9650 C.cat     1 10W         0.3146
      4 N2         21.7440    9.4280   22.8060 N.pl3     1 10W        -0.3030
      5 N3         22.7370    9.2260   24.9090 N.pl3     1 10W        -0.2553
      6 C3         22.9910   12.0060   25.2550 C.3       1 10W         0.0243
      7 O1         21.5040   13.4380   23.5050 O.2       1 10W        -0.3984
      8 C4         20.7870   11.5840   22.1170 C.3       1 10W         0.0639
      9 C5         21.3930   10.2250   21.6270 C.3       1 10W         0.1056
     10 C6         20.2310    9.5620   20.8930 C.3       1 10W         0.0238
     11 N4         19.0440   10.1790   21.5070 N.pl3     1 10W        -0.3196
     12 C7         19.3470   11.2580   22.4600 C.3       1 10W         0.0340
     13 C8         22.6170   10.5300   20.8450 C.2       1 10W         0.0319
     14 C9         22.7170   11.1480   19.5540 C.2       1 10W        -0.0251
     15 C10        24.0460   11.3070   19.1190 C.2       1 10W         0.0003
     16 C11        25.0010   10.8170   20.0380 C.2       1 10W         0.0937
     17 S1         24.1850   10.2000   21.3870 S.3       1 10W        -0.0011
     18 C12        26.4530   10.8800   19.9300 C.ar      1 10W         0.0449
     19 C13        27.1940   10.4880   21.0570 C.ar      1 10W         0.0011
     20 C14        28.5900   10.5630   21.0680 C.ar      1 10W         0.1449
     21 C15        29.2650   11.0500   19.9270 C.ar      1 10W         0.1845
     22 C16        28.5470   11.4610   18.7880 C.ar      1 10W        -0.0014
     23 C17        27.1320   11.3810   18.7980 C.ar      1 10W        -0.0267
     24 C18        29.2760   10.1320   22.2520 C.1       1 10W         0.1029
     25 N5         29.8040    9.7740   23.2180 N.1       1 10W        -0.3314
     26 F1         30.5860   11.1390   19.8950 F         1 10W        -0.1597
     27 C19        17.7280    9.7790   21.2180 C.ar      1 10W         0.0391
     28 C20        17.4520    8.8020   20.2130 C.ar      1 10W        -0.0444
     29 C21        16.1240    8.4040   19.9290 C.ar      1 10W        -0.0737
     30 C22        15.0540    8.9730   20.6410 C.ar      1 10W        -0.0751
     31 C23        15.3000    9.9410   21.6410 C.ar      1 10W        -0.0737
     32 C24        16.6270   10.3380   21.9240 C.ar      1 10W        -0.0444
     33 H1         21.6112    8.4072   22.7719 H         1 10W         0.3022
     34 H2         23.1127    9.6439   25.7722 H         1 10W         0.3198
     35 H3         22.7448    8.2034   24.7862 H         1 10W         0.3198
     36 H4         22.8530   13.0965   25.2125 H         1 10W         0.0483
     37 H5         24.0608   11.7679   25.1611 H         1 10W         0.0483
     38 H6         22.6137   11.6259   26.2158 H         1 10W         0.0483
     39 H7         20.8095   12.3043   21.2859 H         1 10W         0.0410
     40 H8         20.2351    8.4734   21.0511 H         1 10W         0.0365
     41 H9         20.2728    9.7761   19.8149 H         1 10W         0.0365
     42 H10        18.6915   12.1271   22.3017 H         1 10W         0.0526
     43 H11        19.2521   10.9116   23.4997 H         1 10W         0.0526
     44 H12        21.8529   11.4619   18.9704 H         1 10W         0.0935
     45 H13        24.3124   11.7633   18.1668 H         1 10W         0.0670
     46 H14        26.6740   10.1206   21.9343 H         1 10W         0.0841
     47 H15        29.0696   11.8339   17.9146 H         1 10W         0.0667
     48 H16        26.5678   11.7064   17.9315 H         1 10W         0.0793
     49 H17        18.2721    8.3589   19.6597 H         1 10W         0.0515
     50 H18        15.9322    7.6611   19.1632 H         1 10W         0.0583
     51 H19        14.0369    8.6684   20.4224 H         1 10W         0.0505
     52 H20        14.4734   10.3779   22.1895 H         1 10W         0.0583
     53 H21        16.8085   11.0811   22.6921 H         1 10W         0.0515
@<TRIPOS>BOND
     1    1    2 am 
     2    1    7 2  
     3    1    8 1  
     4    2    3 ar 
     5    2    6 1  
     6    3    4 ar 
     7    3    5 ar 
     8    4    9 1  
     9    8    9 1  
    10    8   12 1  
    11    9   10 1  
    12    9   13 1  
    13   10   11 1  
    14   11   12 1  
    15   11   27 1  
    16   13   14 2  
    17   13   17 1  
    18   14   15 1  
    19   15   16 2  
    20   16   17 1  
    21   16   18 1  
    22   18   19 ar 
    23   18   23 ar 
    24   19   20 ar 
    25   20   21 ar 
    26   20   24 1  
    27   21   22 ar 
    28   21   26 1  
    29   22   23 ar 
    30   24   25 3  
    31   27   28 ar 
    32   27   32 ar 
    33   28   29 ar 
    34   29   30 ar 
    35   30   31 ar 
    36   31   32 ar 
    37    4   33 1  
    38    5   34 1  
    39    5   35 1  
    40    6   36 1  
    41    6   37 1  
    42    6   38 1  
    43    8   39 1  
    44   10   40 1  
    45   10   41 1  
    46   12   42 1  
    47   12   43 1  
    48   14   44 1  
    49   15   45 1  
    50   19   46 1  
    51   22   47 1  
    52   23   48 1  
    53   28   49 1  
    54   29   50 1  
    55   30   51 1  
    56   31   52 1  
    57   32   53 1  
@<TRIPOS>SUBSTRUCTURE
     1 10W         1

