### 
### Created by X-TOOL on Mon Sep 10 21:13:15 2018
### 

@<TRIPOS>MOLECULE
4h42_ligand
   25    26     1     0     0
SMALL
GAST_HUCK


@<TRIPOS>ATOM
      1 O3        -23.5650  -15.9680    9.1480 O.co2     1 11E        -0.5669
      2 C9        -24.3240  -15.1780    9.6200 C.2       1 11E         0.0569
      3 O2        -25.0700  -14.6010    8.9600 O.co2     1 11E        -0.5669
      4 C8        -24.4460  -14.9430   11.0440 C.3       1 11E         0.0826
      5 N1        -25.6190  -15.7320   11.1910 N.am      1 11E        -0.2747
      6 C7        -26.4340  -15.7090   12.2300 C.2       1 11E         0.1988
      7 O1        -26.2440  -15.0580   13.2400 O.2       1 11E        -0.3886
      8 C3        -27.5740  -16.6390   12.1050 C.ar      1 11E         0.0366
      9 C2        -27.9810  -17.3680   13.2430 C.ar      1 11E        -0.0561
     10 C4        -28.1800  -16.8160   10.8600 C.ar      1 11E        -0.0332
     11 C5        -29.2050  -17.7470   10.8010 C.ar      1 11E         0.0552
     12 S1        -30.0380  -18.0530    9.3970 S.3       1 11E         0.0307
     13 C6        -29.6540  -18.4840   11.9250 C.ar      1 11E         0.0151
     14 C1        -29.0370  -18.2720   13.1610 C.ar      1 11E        -0.0579
     15 N2        -30.6930  -19.3230   11.5740 N.2       1 11E        -0.3036
     16 C10       -31.0140  -19.1960   10.2630 C.2       1 11E         0.1849
     17 N3        -32.0080  -19.9160    9.7120 N.pl3     1 11E        -0.2924
     18 H1        -24.6058  -13.8836   11.2933 H         1 11E         0.0689
     19 H2        -23.5919  -15.3303   11.6189 H         1 11E         0.0689
     20 H3        -25.8465  -16.3574   10.4446 H         1 11E         0.1863
     21 H4        -27.4682  -17.2232   14.1870 H         1 11E         0.0594
     22 H5        -27.8660  -16.2557    9.9868 H         1 11E         0.0611
     23 H6        -29.3756  -18.8036   14.0430 H         1 11E         0.0547
     24 H7        -32.5462  -20.5774   10.2897 H         1 11E         0.1902
     25 H8        -32.2308  -19.8058    8.7124 H         1 11E         0.1902
@<TRIPOS>BOND
     1    1    2 ar 
     2    2    3 ar 
     3    2    4 1  
     4    4    5 1  
     5    5    6 am 
     6    6    7 2  
     7    6    8 1  
     8    8    9 ar 
     9    8   10 ar 
    10    9   14 ar 
    11   10   11 ar 
    12   11   12 1  
    13   11   13 ar 
    14   12   16 1  
    15   13   14 ar 
    16   13   15 1  
    17   15   16 2  
    18   16   17 1  
    19    4   18 1  
    20    4   19 1  
    21    5   20 1  
    22    9   21 1  
    23   10   22 1  
    24   14   23 1  
    25   17   24 1  
    26   17   25 1  
@<TRIPOS>SUBSTRUCTURE
     1 11E         1

