### 
### Created by X-TOOL on Mon Sep 10 21:13:10 2018
### 

@<TRIPOS>MOLECULE
4h4b_ligand
   30    32     1     0     0
SMALL
GAST_HUCK


@<TRIPOS>ATOM
      1 O01        -2.3510   20.3060   57.6760 O.co2     1 11H        -0.4792
      2 S02        -3.5400   19.5800   57.2180 S.o2      1 11H        -0.1600
      3 O03        -4.1640   20.3730   56.1920 O.co2     1 11H        -0.4792
      4 O04        -4.4660   19.5220   58.3240 O.co2     1 11H        -0.4792
      5 C05        -2.9020   18.0370   56.6680 C.ar      1 11H         0.0610
      6 C06        -2.8830   16.8990   57.4980 C.ar      1 11H        -0.0301
      7 C07        -2.3000   15.7170   57.0370 C.ar      1 11H        -0.0367
      8 C08        -1.7240   15.6910   55.7310 C.ar      1 11H         0.0520
      9 C09        -1.0780   14.4220   55.2090 C.2       1 11H         0.1688
     10 O10        -1.0520   13.4160   55.9060 O.2       1 11H        -0.3611
     11 C11        -0.4630   14.4190   53.8170 C.ar      1 11H         0.0536
     12 C12        -0.4800   15.5510   53.0120 C.ar      1 11H         0.0520
     13 C13         0.1040   15.5230   51.7140 C.ar      1 11H        -0.0367
     14 C14         0.6980   14.3520   51.2390 C.ar      1 11H        -0.0301
     15 C15         0.7100   13.2050   52.0560 C.ar      1 11H         0.0610
     16 C16         0.1420   13.2330   53.3330 C.ar      1 11H        -0.0165
     17 S17         1.4760   11.6930   51.5500 S.o2      1 11H        -0.1600
     18 O18         0.4900   10.7190   51.0420 O.co2     1 11H        -0.4792
     19 O19         2.2220   11.2020   52.6950 O.co2     1 11H        -0.4792
     20 O20         2.5420   11.9560   50.5980 O.co2     1 11H        -0.4792
     21 C21        -1.1320   16.8180   53.5320 C.2       1 11H         0.1688
     22 O22        -1.1610   17.8280   52.8480 O.2       1 11H        -0.3611
     23 C23        -1.7420   16.8250   54.9230 C.ar      1 11H         0.0536
     24 C24        -2.3350   18.0140   55.4010 C.ar      1 11H        -0.0165
     25 H          -3.3212   16.9410   58.4951 H         1 11H         0.0682
     26 H          -2.2849   14.8266   57.6655 H         1 11H         0.0683
     27 H           0.0874   16.4167   51.0902 H         1 11H         0.0683
     28 H           1.1476   14.3259   50.2464 H         1 11H         0.0682
     29 H           0.1647   12.3402   53.9578 H         1 11H         0.0700
     30 H          -2.3475   18.9088   54.7787 H         1 11H         0.0700
@<TRIPOS>BOND
     1    1    2 ar 
     2    2    3 ar 
     3    2    4 ar 
     4    2    5 1  
     5    5    6 ar 
     6    5   24 ar 
     7    6    7 ar 
     8    7    8 ar 
     9    8    9 1  
    10    8   23 ar 
    11    9   10 2  
    12    9   11 1  
    13   11   12 ar 
    14   11   16 ar 
    15   12   13 ar 
    16   12   21 1  
    17   13   14 ar 
    18   14   15 ar 
    19   15   16 ar 
    20   15   17 1  
    21   17   18 ar 
    22   17   19 ar 
    23   17   20 ar 
    24   21   22 2  
    25   21   23 1  
    26   23   24 ar 
    27    6   25 1  
    28    7   26 1  
    29   13   27 1  
    30   14   28 1  
    31   16   29 1  
    32   24   30 1  
@<TRIPOS>SUBSTRUCTURE
     1 11H         1

