### 
### Created by X-TOOL on Mon Sep 10 21:13:11 2018
### 

@<TRIPOS>MOLECULE
4h4m_ligand
   45    47     1     0     0
SMALL
GAST_HUCK


@<TRIPOS>ATOM
      1 C00       270.2100  -24.0190   19.6490 C.ar      1 494        -0.0266
      2 C01       271.0880  -23.2230   18.8850 C.ar      1 494         0.0205
      3 C02       272.3090  -22.7770   19.4290 C.ar      1 494        -0.0669
      4 C03       272.6400  -23.1390   20.7460 C.ar      1 494        -0.0359
      5 C04       271.7700  -23.9460   21.5330 C.ar      1 494         0.1454
      6 C05       270.5160  -24.4000   20.9780 C.ar      1 494         0.1254
      7 CL7       270.6510  -22.7970   17.2810 Cl        1 494        -0.0832
      8 O0A       272.1740  -24.2400   22.8170 O.3       1 494        -0.2596
      9 O0B       269.5100  -25.1810   21.5400 O.3       1 494        -0.3181
     10 C0C       272.0060  -23.3130   23.8220 C.ar      1 494         0.1213
     11 C0D       271.2750  -22.1110   23.6450 C.ar      1 494        -0.0080
     12 C0E       271.1350  -21.1950   24.6970 C.ar      1 494         0.0410
     13 C0F       271.7250  -21.4780   25.9470 C.ar      1 494        -0.0404
     14 C0G       272.4650  -22.6680   26.1680 C.ar      1 494        -0.0084
     15 C0H       272.5950  -23.5850   25.0820 C.ar      1 494        -0.0118
     16 CL0       270.2410  -19.7520   24.4260 Cl        1 494        -0.0715
     17 C0M       273.0270  -22.8510   27.4910 C.2       1 494        -0.0187
     18 C0O       269.5520  -25.7170   22.8590 C.3       1 494         0.0958
     19 C0P       268.5460  -26.8680   23.0310 C.3       1 494         0.0934
     20 N0S       269.1440  -28.1570   22.6350 N.am      1 494        -0.1868
     21 C0V       268.8540  -28.7560   21.4330 C.2       1 494         0.3306
     22 N0W       269.4750  -29.9400   21.2040 N.am      1 494        -0.1866
     23 C0X       270.3460  -30.6030   22.0070 C.2       1 494         0.1822
     24 C0Y       270.6340  -29.9380   23.2860 C.2       1 494         0.0061
     25 C0Z       270.0380  -28.7490   23.5670 C.2       1 494         0.0564
     26 O10       268.0860  -28.2810   20.5960 O.2       1 494        -0.3815
     27 O12       270.8370  -31.6800   21.6650 O.2       1 494        -0.4124
     28 C15       273.8540  -23.8590   27.8110 C.2       1 494         0.0532
     29 C17       274.6700  -23.8320   28.9800 C.1       1 494         0.0687
     30 N19       275.3300  -23.8100   29.9290 N.1       1 494        -0.3538
     31 H         269.2711  -24.3497   19.2049 H         1 494         0.0516
     32 H         272.9862  -22.1608   18.8375 H         1 494         0.0504
     33 H         273.5818  -22.7950   21.1737 H         1 494         0.0520
     34 H         270.8165  -21.8967   22.6796 H         1 494         0.0616
     35 H         271.6094  -20.7647   26.7630 H         1 494         0.0606
     36 H         273.1559  -24.5087   25.2239 H         1 494         0.0614
     37 H         272.7645  -22.1324   28.2674 H         1 494         0.0905
     38 H         269.2946  -24.9250   23.5623 H         1 494         0.0637
     39 H         270.5543  -26.1036   23.0432 H         1 494         0.0637
     40 H         267.6813  -26.6742   22.3963 H         1 494         0.0643
     41 H         268.2560  -26.9249   24.0802 H         1 494         0.0643
     42 H         269.2599  -30.3900   20.3142 H         1 494         0.2259
     43 H         271.3184  -30.3936   24.0016 H         1 494         0.0258
     44 H         270.2470  -28.2474   24.5119 H         1 494         0.1177
     45 H         273.9034  -24.7278   27.1547 H         1 494         0.0767
@<TRIPOS>BOND
     1    1    2 ar 
     2    1    6 ar 
     3    2    3 ar 
     4    2    7 1  
     5    3    4 ar 
     6    4    5 ar 
     7    5    6 ar 
     8    5    8 1  
     9    6    9 1  
    10    8   10 1  
    11    9   18 1  
    12   10   11 ar 
    13   10   15 ar 
    14   11   12 ar 
    15   12   13 ar 
    16   12   16 1  
    17   13   14 ar 
    18   14   15 ar 
    19   14   17 1  
    20   17   28 2  
    21   18   19 1  
    22   19   20 1  
    23   20   21 am 
    24   20   25 1  
    25   21   22 am 
    26   21   26 2  
    27   22   23 am 
    28   23   24 1  
    29   23   27 2  
    30   24   25 2  
    31   28   29 1  
    32   29   30 3  
    33    1   31 1  
    34    3   32 1  
    35    4   33 1  
    36   11   34 1  
    37   13   35 1  
    38   15   36 1  
    39   17   37 1  
    40   18   38 1  
    41   18   39 1  
    42   19   40 1  
    43   19   41 1  
    44   22   42 1  
    45   24   43 1  
    46   25   44 1  
    47   28   45 1  
@<TRIPOS>SUBSTRUCTURE
     1 494         1

