### 
### Created by X-TOOL on Mon Sep 10 21:13:15 2018
### 

@<TRIPOS>MOLECULE
4h58_ligand
   53    56     1     0     0
SMALL
GAST_HUCK


@<TRIPOS>ATOM
      1 C29        37.5430  121.6730   78.4140 C.3       1 10Z         0.0367
      2 O28        36.5040  122.4850   77.8550 O.3       1 10Z        -0.3777
      3 C27        35.3350  121.7710   77.4210 C.3       1 10Z         0.0871
      4 C26        34.2500  122.7160   76.8650 C.3       1 10Z        -0.0085
      5 N25        32.9020  122.5300   77.4650 N.4       1 10Z         0.2393
      6 C24        31.8430  122.0980   76.5050 C.3       1 10Z        -0.0047
      7 C18        30.4250  122.0890   77.0820 C.ar      1 10Z        -0.0094
      8 C20        29.7180  120.8950   77.2650 C.ar      1 10Z        -0.0641
      9 C22        28.4250  120.8970   77.8030 C.ar      1 10Z        -0.0438
     10 C23        27.8290  122.1060   78.1530 C.ar      1 10Z         0.0600
     11 C21        28.5420  123.2850   77.9640 C.ar      1 10Z        -0.0438
     12 C19        29.8210  123.2800   77.4350 C.ar      1 10Z        -0.0641
     13 N17        26.5390  122.3010   78.7300 N.pl3     1 10Z        -0.2444
     14 C8         25.4960  121.4480   79.1950 C.ar      1 10Z         0.2079
     15 N10        25.5940  120.0660   79.1540 N.ar      1 10Z        -0.2624
     16 C12        24.5520  119.2690   79.6100 C.ar      1 10Z         0.0433
     17 C14        24.6670  117.8950   79.5550 C.ar      1 10Z        -0.0391
     18 C13        23.6390  117.0780   80.0020 C.ar      1 10Z        -0.0459
     19 C15        22.4710  117.6180   80.5240 C.ar      1 10Z        -0.0024
     20 C16        22.3410  119.0060   80.5700 C.ar      1 10Z        -0.0324
     21 C11        23.3820  119.8200   80.1200 C.ar      1 10Z         0.0257
     22 C9         23.2810  121.1960   80.1640 C.ar      1 10Z         0.0344
     23 N7         24.3290  121.9950   79.7070 N.ar      1 10Z        -0.2384
     24 C2         21.3980  116.6920   80.9550 C.ar      1 10Z         0.0013
     25 C4         21.6880  115.4720   81.5490 C.ar      1 10Z        -0.0276
     26 C6         20.6500  114.6250   81.9130 C.ar      1 10Z         0.0097
     27 N5         19.3240  114.9770   81.6830 N.ar      1 10Z        -0.2994
     28 C3         19.0360  116.1830   81.0800 C.ar      1 10Z         0.0097
     29 C1         20.0700  117.0300   80.7120 C.ar      1 10Z        -0.0276
     30 H1         38.3871  122.3120   78.7126 H         1 10Z         0.0524
     31 H2         37.8826  120.9440   77.6635 H         1 10Z         0.0524
     32 H3         37.1574  121.1395   79.2953 H         1 10Z         0.0524
     33 H4         34.9192  121.2182   78.2763 H         1 10Z         0.0613
     34 H5         35.6254  121.0616   76.6321 H         1 10Z         0.0613
     35 H6         34.1697  122.5465   75.7811 H         1 10Z         0.0837
     36 H7         34.5688  123.7521   77.0515 H         1 10Z         0.0837
     37 H8         32.6167  123.4065   77.8728 H         1 10Z         0.2027
     38 H9         32.9742  121.8309   78.1875 H         1 10Z         0.2027
     39 H10        32.0820  121.0791   76.1662 H         1 10Z         0.0958
     40 H11        31.8591  122.7837   75.6450 H         1 10Z         0.0958
     41 H12        30.1784  119.9541   76.9860 H         1 10Z         0.0532
     42 H13        27.8919  119.9641   77.9460 H         1 10Z         0.0522
     43 H14        28.0856  124.2295   78.2372 H         1 10Z         0.0522
     44 H15        30.3513  124.2153   77.2971 H         1 10Z         0.0532
     45 H16        26.3049  123.2984   78.8362 H         1 10Z         0.2174
     46 H17        25.5715  117.4488   79.1577 H         1 10Z         0.0621
     47 H18        23.7491  116.0012   79.9429 H         1 10Z         0.0691
     48 H19        21.4315  119.4527   80.9552 H         1 10Z         0.0707
     49 H20        22.3822  121.6582   80.5559 H         1 10Z         0.1009
     50 H21        22.7173  115.1824   81.7275 H         1 10Z         0.0709
     51 H22        20.8762  113.6750   82.3835 H         1 10Z         0.0818
     52 H23        18.0065  116.4674   80.8946 H         1 10Z         0.0818
     53 H24        19.8402  117.9717   80.2267 H         1 10Z         0.0709
@<TRIPOS>BOND
     1    1    2 1  
     2    2    3 1  
     3    3    4 1  
     4    4    5 1  
     5    5    6 1  
     6    6    7 1  
     7    7    8 ar 
     8    7   12 ar 
     9    8    9 ar 
    10    9   10 ar 
    11   10   11 ar 
    12   10   13 1  
    13   11   12 ar 
    14   13   14 1  
    15   14   15 ar 
    16   14   23 ar 
    17   15   16 ar 
    18   16   17 ar 
    19   16   21 ar 
    20   17   18 ar 
    21   18   19 ar 
    22   19   20 ar 
    23   19   24 1  
    24   20   21 ar 
    25   21   22 ar 
    26   22   23 ar 
    27   24   25 ar 
    28   24   29 ar 
    29   25   26 ar 
    30   26   27 ar 
    31   27   28 ar 
    32   28   29 ar 
    33    1   30 1  
    34    1   31 1  
    35    1   32 1  
    36    3   33 1  
    37    3   34 1  
    38    4   35 1  
    39    4   36 1  
    40    5   37 1  
    41    5   38 1  
    42    6   39 1  
    43    6   40 1  
    44    8   41 1  
    45    9   42 1  
    46   11   43 1  
    47   12   44 1  
    48   13   45 1  
    49   17   46 1  
    50   18   47 1  
    51   20   48 1  
    52   22   49 1  
    53   25   50 1  
    54   26   51 1  
    55   28   52 1  
    56   29   53 1  
@<TRIPOS>SUBSTRUCTURE
     1 10Z         1

