### 
### Created by X-TOOL on Mon Sep 10 21:13:10 2018
### 

@<TRIPOS>MOLECULE
4h71_ligand
   26    26     1     0     0
SMALL
GAST_HUCK


@<TRIPOS>ATOM
      1 OAA         0.4830  -12.7000   -3.5560 O.3       1 PXE        -0.2209
      2 NAB        -0.5580  -12.6280   -2.6990 N.2       1 PXE        -0.1058
      3 CAC        -1.7810  -12.2590   -3.1830 C.2       1 PXE         0.1006
      4 CAD        -1.9580  -11.9300   -4.5090 C.2       1 PXE        -0.0312
      5 CAE        -3.1950  -11.6110   -5.0010 C.2       1 PXE         0.0032
      6 CAF        -4.2840  -11.5670   -4.0600 C.2       1 PXE         0.1139
      7 CAG        -4.1170  -11.8170   -2.7660 C.2       1 PXE        -0.0239
      8 CAH        -2.9280  -12.1690   -2.3030 C.2       1 PXE        -0.0159
      9 OAI        -5.3740  -11.2970   -4.4260 O.2       1 PXE        -0.4040
     10 CAJ        -2.9300  -12.4520   -0.8590 C.3       1 PXE        -0.0249
     11 CAK        -3.5480  -11.2240   -6.3350 C.3       1 PXE        -0.0094
     12 CAL        -2.3710  -10.9460   -7.2000 C.3       1 PXE        -0.0528
     13 CAM        -4.0860   -9.8890   -6.0020 C.3       1 PXE        -0.0528
     14 H1          1.2629  -12.9666   -3.0835 H         1 PXE         0.3024
     15 H2         -1.0985  -11.9236   -5.1777 H         1 PXE         0.0544
     16 H3         -4.9615  -11.7320   -2.0837 H         1 PXE         0.0407
     17 H4         -1.9167  -12.7372   -0.5399 H         1 PXE         0.0424
     18 H5         -3.6266  -13.2768   -0.6479 H         1 PXE         0.0424
     19 H6         -3.2481  -11.5536   -0.3097 H         1 PXE         0.0424
     20 H7         -4.2589  -11.9120   -6.8158 H         1 PXE         0.0460
     21 H8         -2.7142  -10.6562   -8.2041 H         1 PXE         0.0255
     22 H9         -1.7475  -11.8493   -7.2722 H         1 PXE         0.0255
     23 H10        -1.7806  -10.1268   -6.7637 H         1 PXE         0.0255
     24 H11        -4.9698  -10.0004   -5.3566 H         1 PXE         0.0255
     25 H12        -4.3712   -9.3673   -6.9274 H         1 PXE         0.0255
     26 H13        -3.3176   -9.3053   -5.4739 H         1 PXE         0.0255
@<TRIPOS>BOND
     1    1    2 1  
     2    2    3 2  
     3    3    4 1  
     4    3    8 1  
     5    4    5 2  
     6    5    6 1  
     7    5   11 1  
     8    6    7 1  
     9    6    9 2  
    10    7    8 2  
    11    8   10 1  
    12   11   12 1  
    13   11   13 1  
    14    1   14 1  
    15    4   15 1  
    16    7   16 1  
    17   10   17 1  
    18   10   18 1  
    19   10   19 1  
    20   11   20 1  
    21   12   21 1  
    22   12   22 1  
    23   12   23 1  
    24   13   24 1  
    25   13   25 1  
    26   13   26 1  
@<TRIPOS>SUBSTRUCTURE
     1 PXE         1

