### 
### Created by X-TOOL on Mon Sep 10 21:13:15 2018
### 

@<TRIPOS>MOLECULE
4h7q_ligand
   18    17     1     0     0
SMALL
GAST_HUCK


@<TRIPOS>ATOM
      1 C1         -7.9860  -31.9420   13.3750 C.2       1 COI         0.1248
      2 O1         -8.5890  -31.4780   12.3760 O.co2     1 COI        -0.5464
      3 O2         -7.0650  -32.7950   13.2360 O.co2     1 COI        -0.5464
      4 C2         -8.3370  -31.5300   14.7470 C.2       1 COI         0.1717
      5 O3         -8.6680  -30.3950   14.9730 O.2       1 COI        -0.3577
      6 C3         -8.2570  -32.5840   15.8360 C.3       1 COI         0.0331
      7 C4         -9.3530  -32.6670   16.9020 C.3       1 COI        -0.0304
      8 C5         -8.9890  -32.1430   18.2000 C.3       1 COI        -0.0605
      9 C6        -10.6970  -32.2660   16.4240 C.3       1 COI        -0.0605
     10 H1         -7.3083  -32.4199   16.3679 H         1 COI         0.0501
     11 H2         -8.2302  -33.5610   15.3312 H         1 COI         0.0501
     12 H3         -9.4548  -33.7473   17.0826 H         1 COI         0.0320
     13 H4         -9.8394  -32.2487   18.8897 H         1 COI         0.0234
     14 H5         -8.7240  -31.0797   18.1050 H         1 COI         0.0234
     15 H6         -8.1269  -32.7021   18.5926 H         1 COI         0.0234
     16 H7        -10.8821  -32.7105   15.4350 H         1 COI         0.0234
     17 H8        -10.7473  -31.1698   16.3485 H         1 COI         0.0234
     18 H9        -11.4593  -32.6201   17.1336 H         1 COI         0.0234
@<TRIPOS>BOND
     1    1    2 ar 
     2    1    3 ar 
     3    1    4 1  
     4    4    5 2  
     5    4    6 1  
     6    6    7 1  
     7    7    8 1  
     8    7    9 1  
     9    6   10 1  
    10    6   11 1  
    11    7   12 1  
    12    8   13 1  
    13    8   14 1  
    14    8   15 1  
    15    9   16 1  
    16    9   17 1  
    17    9   18 1  
@<TRIPOS>SUBSTRUCTURE
     1 COI         1

