### 
### Created by X-TOOL on Mon Sep 10 21:13:15 2018
### 

@<TRIPOS>MOLECULE
4h81_ligand
   20    20     1     0     0
SMALL
GAST_HUCK


@<TRIPOS>ATOM
      1 CL1        -8.0110  -30.2200   15.0790 Cl        1 WJ2        -0.1026
      2 C02        -8.7870  -31.6470   14.4940 C.3       1 WJ2         0.0957
      3 C03        -8.1370  -32.0140   13.2040 C.2       1 WJ2         0.0545
      4 O04        -7.1240  -32.7590   13.2160 O.co2     1 WJ2        -0.5673
      5 O05        -8.6180  -31.5700   12.1160 O.co2     1 WJ2        -0.5673
      6 C06        -8.7110  -32.7540   15.5020 C.3       1 WJ2         0.0089
      7 C07        -9.1550  -32.4170   16.8930 C.ar      1 WJ2        -0.0400
      8 C08        -8.3500  -32.7150   17.9810 C.ar      1 WJ2        -0.0602
      9 C09        -8.7460  -32.4010   19.2740 C.ar      1 WJ2        -0.0686
     10 C10        -9.9600  -31.7690   19.4810 C.ar      1 WJ2        -0.0687
     11 C11       -10.7670  -31.4700   18.3930 C.ar      1 WJ2        -0.0686
     12 C12       -10.3680  -31.7870   17.1000 C.ar      1 WJ2        -0.0602
     13 H1         -9.8484  -31.4274   14.3066 H         1 WJ2         0.0656
     14 H2         -7.6640  -33.0869   15.5559 H         1 WJ2         0.0458
     15 H3         -9.3404  -33.5804   15.1403 H         1 WJ2         0.0458
     16 H4         -7.3949  -33.2016   17.8197 H         1 WJ2         0.0557
     17 H5         -8.1091  -32.6489   20.1154 H         1 WJ2         0.0599
     18 H6        -10.2774  -31.5100   20.4846 H         1 WJ2         0.0559
     19 H7        -11.7218  -30.9825   18.5535 H         1 WJ2         0.0599
     20 H8        -11.0049  -31.5414   16.2579 H         1 WJ2         0.0557
@<TRIPOS>BOND
     1    1    2 1  
     2    2    3 1  
     3    2    6 1  
     4    3    4 ar 
     5    3    5 ar 
     6    6    7 1  
     7    7    8 ar 
     8    7   12 ar 
     9    8    9 ar 
    10    9   10 ar 
    11   10   11 ar 
    12   11   12 ar 
    13    2   13 1  
    14    6   14 1  
    15    6   15 1  
    16    8   16 1  
    17    9   17 1  
    18   10   18 1  
    19   11   19 1  
    20   12   20 1  
@<TRIPOS>SUBSTRUCTURE
     1 WJ2         1

