### 
### Created by X-TOOL on Mon Sep 10 21:13:10 2018
### 

@<TRIPOS>MOLECULE
4ha5_ligand
   40    42     1     0     0
SMALL
GAST_HUCK


@<TRIPOS>ATOM
      1 C1         28.2760   11.2450   18.7210 C.ar      1 13W        -0.0525
      2 C2         28.9760   10.8340   19.8800 C.ar      1 13W        -0.0290
      3 C3         28.2450   10.4820   21.0380 C.ar      1 13W         0.0942
      4 C4         26.8360   10.5370   21.0440 C.ar      1 13W        -0.0211
      5 C5         26.1050   10.9450   19.8880 C.ar      1 13W        -0.0001
      6 C6         26.8550   11.3030   18.7230 C.ar      1 13W        -0.0477
      7 C7         24.6270   11.0020   19.9160 C.2       1 13W         0.0478
      8 C8         23.8510   10.4900   20.9840 C.2       1 13W        -0.0110
      9 C9         22.4810   10.6700   20.7760 C.2       1 13W         0.0463
     10 S1         22.1930   11.4570   19.2990 S.3       1 13W         0.0100
     11 C10        23.8290   11.5680   18.9100 C.2       1 13W         0.0684
     12 C11        21.3360   10.2500   21.7050 C.3       1 13W         0.0936
     13 C12        20.6470   11.5190   22.2640 C.3       1 13W         0.0390
     14 C13        21.4570   12.1880   23.4050 C.2       1 13W         0.1694
     15 N1         22.2710   11.3450   24.1740 N.am      1 13W        -0.2151
     16 C14        22.3270    9.9680   23.9950 C.cat     1 13W         0.3167
     17 N2         21.8610    9.4250   22.8210 N.pl3     1 13W        -0.2947
     18 N3         22.8240    9.1630   24.9390 N.pl3     1 13W        -0.2551
     19 C15        20.3330    9.3850   20.9160 C.3       1 13W        -0.0614
     20 C16        23.0960   12.0250   25.2200 C.3       1 13W         0.0243
     21 O1         21.3720   13.4000   23.5900 O.2       1 13W        -0.3985
     22 C17        28.9270   10.0600   22.2340 C.1       1 13W         0.1002
     23 N4         29.4470    9.7160   23.2110 N.1       1 13W        -0.3282
     24 H1         28.8256   11.5170   17.8271 H         1 13W         0.0635
     25 H2         30.0591   10.7896   19.8801 H         1 13W         0.0700
     26 H3         26.2974   10.2640   21.9443 H         1 13W         0.0708
     27 H4         26.3323   11.6231   17.8289 H         1 13W         0.0674
     28 H5         24.2733   10.0110   21.8661 H         1 13W         0.0977
     29 H6         24.2160   12.0196   17.9978 H         1 13W         0.1381
     30 H7         19.6569   11.2392   22.6530 H         1 13W         0.0379
     31 H8         20.5279   12.2441   21.4454 H         1 13W         0.0379
     32 H9         21.8770    8.4010   22.7114 H         1 13W         0.3047
     33 H10        23.1755    9.5603   25.8219 H         1 13W         0.3198
     34 H11        22.8555    8.1453   24.7837 H         1 13W         0.3198
     35 H12        20.8444    8.4911   20.5295 H         1 13W         0.0108
     36 H13        19.9279    9.9678   20.0756 H         1 13W         0.0108
     37 H14        19.5111    9.0789   21.5799 H         1 13W         0.0108
     38 H15        22.9026   13.1075   25.1930 H         1 13W         0.0483
     39 H16        24.1623   11.8380   25.0249 H         1 13W         0.0483
     40 H17        22.8298   11.6296   26.2114 H         1 13W         0.0483
@<TRIPOS>BOND
     1    1    2 ar 
     2    1    6 ar 
     3    2    3 ar 
     4    3    4 ar 
     5    3   22 1  
     6    4    5 ar 
     7    5    6 ar 
     8    5    7 1  
     9    7    8 1  
    10    7   11 2  
    11    8    9 2  
    12    9   10 1  
    13    9   12 1  
    14   10   11 1  
    15   12   13 1  
    16   12   17 1  
    17   12   19 1  
    18   13   14 1  
    19   14   15 am 
    20   14   21 2  
    21   15   16 ar 
    22   15   20 1  
    23   16   17 ar 
    24   16   18 ar 
    25   22   23 3  
    26    1   24 1  
    27    2   25 1  
    28    4   26 1  
    29    6   27 1  
    30    8   28 1  
    31   11   29 1  
    32   13   30 1  
    33   13   31 1  
    34   17   32 1  
    35   18   33 1  
    36   18   34 1  
    37   19   35 1  
    38   19   36 1  
    39   19   37 1  
    40   20   38 1  
    41   20   39 1  
    42   20   40 1  
@<TRIPOS>SUBSTRUCTURE
     1 13W         1

