### 
### Created by X-TOOL on Mon Sep 10 21:13:09 2018
### 

@<TRIPOS>MOLECULE
4hai_ligand
   62    64     1     0     0
SMALL
GAST_HUCK


@<TRIPOS>ATOM
      1 O28        16.8890   10.7120   17.2100 O.2       1 I23        -0.3968
      2 C9         16.1000   10.7500   16.2920 C.2       1 I23         0.1794
      3 N8         14.8020   11.0980   16.4820 N.am      1 I23        -0.2837
      4 C7         14.0860   11.3790   17.7560 C.3       1 I23         0.0420
      5 C6         14.8690   12.0960   18.8600 C.3       1 I23        -0.0299
      6 C5         13.9400   12.9710   19.7110 C.3       1 I23        -0.0510
      7 C4         13.1740   12.2420   20.8210 C.3       1 I23        -0.0530
      8 C3         12.1990   11.2250   20.2580 C.3       1 I23        -0.0530
      9 C2         12.9780   10.0060   19.7660 C.3       1 I23        -0.0510
     10 C1         13.4830   10.0690   18.3050 C.3       1 I23        -0.0299
     11 C10        16.6490   10.3150   14.9270 C.3       1 I23         0.0515
     12 C27        17.7060   11.2580   14.3650 C.3       1 I23        -0.0160
     13 C26        18.5310   10.5850   13.2630 C.3       1 I23         0.0317
     14 N13        17.7130    9.6790   12.4400 N.am      1 I23        -0.2362
     15 C12        16.2360    9.7630   12.4360 C.3       1 I23         0.0317
     16 C11        15.6270   10.1590   13.7950 C.3       1 I23        -0.0160
     17 S14        18.4840    8.6530   11.5570 S.o2      1 I23         0.0625
     18 O15        19.5060    9.3800   10.8510 O.2       1 I23        -0.1531
     19 O25        19.1540    7.7190   12.4310 O.2       1 I23        -0.1531
     20 C16        17.6280    7.8470   10.4300 C.ar      1 I23         0.1030
     21 C23        17.4950    6.3430   10.4030 C.ar      1 I23        -0.0330
     22 C24        18.1290    5.4350   11.4290 C.3       1 I23        -0.0324
     23 C22        16.7450    5.7330    9.3960 C.ar      1 I23        -0.0647
     24 C20        16.1150    6.4730    8.3910 C.ar      1 I23        -0.0594
     25 C21        15.3190    5.7600    7.3240 C.3       1 I23        -0.0343
     26 C19        16.2090    7.8660    8.3540 C.ar      1 I23        -0.0647
     27 C17        16.9330    8.5770    9.3150 C.ar      1 I23        -0.0330
     28 C18        16.9810   10.0800    9.1960 C.3       1 I23        -0.0324
     29 H          14.2397   11.1780   15.6348 H         1 I23         0.1854
     30 H          13.3212   12.1033   17.4757 H         1 I23         0.0556
     31 H          15.6233   12.7326   18.3975 H         1 I23         0.0287
     32 H          15.3321   11.3479   19.5034 H         1 I23         0.0287
     33 H          13.1894   13.3759   19.0322 H         1 I23         0.0266
     34 H          14.5751   13.7062   20.2053 H         1 I23         0.0266
     35 H          12.6087   12.9806   21.3893 H         1 I23         0.0265
     36 H          13.8951   11.7157   21.4464 H         1 I23         0.0265
     37 H          11.6462   11.6665   19.4288 H         1 I23         0.0265
     38 H          11.4956   10.9224   21.0337 H         1 I23         0.0265
     39 H          12.2899    9.1621   19.8161 H         1 I23         0.0266
     40 H          13.8660    9.9359   20.3943 H         1 I23         0.0266
     41 H          14.3044    9.3534   18.2684 H         1 I23         0.0287
     42 H          12.5915    9.9037   17.7001 H         1 I23         0.0287
     43 H          17.0528    9.3380   15.1924 H         1 I23         0.0539
     44 H          18.3786   11.5438   15.1738 H         1 I23         0.0308
     45 H          17.2026   12.1255   13.9382 H         1 I23         0.0308
     46 H          19.3191    9.9990   13.7359 H         1 I23         0.0479
     47 H          18.9354   11.3631   12.6156 H         1 I23         0.0479
     48 H          15.8565    8.7717   12.1882 H         1 I23         0.0479
     49 H          15.9581   10.5361   11.7196 H         1 I23         0.0479
     50 H          15.1490   11.1293   13.6603 H         1 I23         0.0308
     51 H          14.9476    9.3579   14.0862 H         1 I23         0.0308
     52 H          19.2104    5.5709   11.4137 H         1 I23         0.0389
     53 H          17.7444    5.6825   12.4184 H         1 I23         0.0389
     54 H          17.8884    4.3984   11.1930 H         1 I23         0.0389
     55 H          16.6477    4.6474    9.3932 H         1 I23         0.0439
     56 H          15.9716    5.0753    6.7823 H         1 I23         0.0389
     57 H          14.5090    5.1994    7.7905 H         1 I23         0.0389
     58 H          14.9039    6.4925    6.6317 H         1 I23         0.0389
     59 H          15.7054    8.4119    7.5562 H         1 I23         0.0439
     60 H          17.4309   10.3534    8.2416 H         1 I23         0.0389
     61 H          15.9685   10.4800    9.2497 H         1 I23         0.0389
     62 H          17.5782   10.4888   10.0110 H         1 I23         0.0389
@<TRIPOS>BOND
     1    1    2 2  
     2    2    3 am 
     3    2   11 1  
     4    3    4 1  
     5    4    5 1  
     6    4   10 1  
     7    5    6 1  
     8    6    7 1  
     9    7    8 1  
    10    8    9 1  
    11    9   10 1  
    12   11   12 1  
    13   11   16 1  
    14   12   13 1  
    15   13   14 1  
    16   14   15 1  
    17   14   17 am 
    18   15   16 1  
    19   17   18 2  
    20   17   19 2  
    21   17   20 1  
    22   20   21 ar 
    23   20   27 ar 
    24   21   22 1  
    25   21   23 ar 
    26   23   24 ar 
    27   24   25 1  
    28   24   26 ar 
    29   26   27 ar 
    30   27   28 1  
    31    3   29 1  
    32    4   30 1  
    33    5   31 1  
    34    5   32 1  
    35    6   33 1  
    36    6   34 1  
    37    7   35 1  
    38    7   36 1  
    39    8   37 1  
    40    8   38 1  
    41    9   39 1  
    42    9   40 1  
    43   10   41 1  
    44   10   42 1  
    45   11   43 1  
    46   12   44 1  
    47   12   45 1  
    48   13   46 1  
    49   13   47 1  
    50   15   48 1  
    51   15   49 1  
    52   16   50 1  
    53   16   51 1  
    54   22   52 1  
    55   22   53 1  
    56   22   54 1  
    57   23   55 1  
    58   25   56 1  
    59   25   57 1  
    60   25   58 1  
    61   26   59 1  
    62   28   60 1  
    63   28   61 1  
    64   28   62 1  
@<TRIPOS>SUBSTRUCTURE
     1 I23         1

