### 
### Created by X-TOOL on Mon Sep 10 21:13:11 2018
### 

@<TRIPOS>MOLECULE
4hbm_ligand
   54    56     1     0     0
SMALL
GAST_HUCK


@<TRIPOS>ATOM
      1 CL1        15.0760   17.5450   17.4790 Cl        1 0Y7        -0.0771
      2 C1         16.1130   16.2870   16.8820 C.ar      1 0Y7         0.0330
      3 C2         17.4940   16.4200   17.0740 C.ar      1 0Y7        -0.0545
      4 C3         18.3480   15.4060   16.6410 C.ar      1 0Y7        -0.0573
      5 C4         15.5720   15.1560   16.2510 C.ar      1 0Y7        -0.0545
      6 C5         16.4260   14.1430   15.8170 C.ar      1 0Y7        -0.0573
      7 C6         17.8090   14.2640   16.0170 C.ar      1 0Y7        -0.0152
      8 C7         18.6830   13.1440   15.6010 C.3       1 0Y7         0.0913
      9 N1         19.5810   13.5180   14.4850 N.am      1 0Y7        -0.2511
     10 C8         19.0220   14.3390   13.3610 C.3       1 0Y7         0.0705
     11 C9         18.7980   13.4630   12.1330 C.3       1 0Y7         0.0675
     12 O4         17.7450   12.5510   12.3890 O.3       1 0Y7        -0.3927
     13 C11        20.8810   13.1460   14.4370 C.2       1 0Y7         0.1859
     14 O1         21.6180   13.4950   13.5270 O.2       1 0Y7        -0.3963
     15 C12        21.4670   12.2360   15.5760 C.3       1 0Y7         0.0626
     16 C13        22.4070   13.0380   16.5000 C.3       1 0Y7         0.0201
     17 C14        23.2300   12.0260   17.3250 C.2       1 0Y7         0.0373
     18 O2         23.0770   11.7510   18.4880 O.co2     1 0Y7        -0.5688
     19 O3         24.1740   11.4530   16.5640 O.co2     1 0Y7        -0.5688
     20 C15        20.4440   11.4740   16.3950 C.3       1 0Y7        -0.0151
     21 C16        19.3450   12.4070   16.8340 C.3       1 0Y7         0.0282
     22 C17        18.3520   11.7210   17.7430 C.ar      1 0Y7        -0.0352
     23 C18        17.8270   10.4410   17.4460 C.ar      1 0Y7        -0.0597
     24 C19        16.8890    9.8570   18.2960 C.ar      1 0Y7        -0.0680
     25 C20        16.4600   10.5230   19.4440 C.ar      1 0Y7        -0.0548
     26 C21        16.9870   11.7870   19.7340 C.ar      1 0Y7         0.0338
     27 CL2        16.4600   12.6050   21.1180 Cl        1 0Y7        -0.0725
     28 C22        17.9220   12.3910   18.9060 C.ar      1 0Y7        -0.0460
     29 C10        19.8270   15.5800   12.9560 C.3       1 0Y7        -0.0302
     30 C23        19.4840   16.8960   13.6380 C.3       1 0Y7        -0.0631
     31 H1         17.8959   17.3042   17.5554 H         1 0Y7         0.0606
     32 H2         19.4188   15.4961   16.7836 H         1 0Y7         0.0558
     33 H3         14.5016   15.0710   16.1027 H         1 0Y7         0.0606
     34 H4         16.0224   13.2646   15.3265 H         1 0Y7         0.0558
     35 H5         18.0055   12.3941   15.1668 H         1 0Y7         0.0748
     36 H6         18.0398   14.7002   13.6999 H         1 0Y7         0.0583
     37 H7         19.7190   12.9055   11.9074 H         1 0Y7         0.0580
     38 H8         18.5332   14.0968   11.2739 H         1 0Y7         0.0580
     39 H9         17.9746   12.0041   13.1311 H         1 0Y7         0.2095
     40 H10        22.0822   11.4764   15.0714 H         1 0Y7         0.0558
     41 H11        21.8158   13.6767   17.1726 H         1 0Y7         0.0458
     42 H12        23.0801   13.6648   15.8967 H         1 0Y7         0.0458
     43 H13        20.9330   11.0431   17.2811 H         1 0Y7         0.0320
     44 H14        20.0150   10.6663   15.7838 H         1 0Y7         0.0320
     45 H15        19.8223   13.1912   17.4400 H         1 0Y7         0.0508
     46 H16        18.1544    9.9142   16.5570 H         1 0Y7         0.0558
     47 H17        16.4895    8.8767   18.0627 H         1 0Y7         0.0599
     48 H18        15.7288   10.0682   20.1024 H         1 0Y7         0.0565
     49 H19        18.3184   13.3697   19.1514 H         1 0Y7         0.0562
     50 H20        19.6878   15.7239   11.8744 H         1 0Y7         0.0286
     51 H21        20.8860   15.3677   13.1644 H         1 0Y7         0.0286
     52 H22        20.1378   17.6912   13.2503 H         1 0Y7         0.0230
     53 H23        19.6322   16.7961   14.7234 H         1 0Y7         0.0230
     54 H24        18.4341   17.1523   13.4334 H         1 0Y7         0.0230
@<TRIPOS>BOND
     1    1    2 1  
     2    2    3 ar 
     3    2    5 ar 
     4    3    4 ar 
     5    4    7 ar 
     6    5    6 ar 
     7    6    7 ar 
     8    7    8 1  
     9    8    9 1  
    10    8   21 1  
    11    9   10 1  
    12    9   13 am 
    13   10   11 1  
    14   10   29 1  
    15   11   12 1  
    16   13   14 2  
    17   13   15 1  
    18   15   16 1  
    19   15   20 1  
    20   16   17 1  
    21   17   18 ar 
    22   17   19 ar 
    23   20   21 1  
    24   21   22 1  
    25   22   23 ar 
    26   22   28 ar 
    27   23   24 ar 
    28   24   25 ar 
    29   25   26 ar 
    30   26   27 1  
    31   26   28 ar 
    32   29   30 1  
    33    3   31 1  
    34    4   32 1  
    35    5   33 1  
    36    6   34 1  
    37    8   35 1  
    38   10   36 1  
    39   11   37 1  
    40   11   38 1  
    41   12   39 1  
    42   15   40 1  
    43   16   41 1  
    44   16   42 1  
    45   20   43 1  
    46   20   44 1  
    47   21   45 1  
    48   23   46 1  
    49   24   47 1  
    50   25   48 1  
    51   28   49 1  
    52   29   50 1  
    53   29   51 1  
    54   30   52 1  
    55   30   53 1  
    56   30   54 1  
@<TRIPOS>SUBSTRUCTURE
     1 0Y7         1

