### 
### Created by X-TOOL on Mon Sep 10 21:13:15 2018
### 

@<TRIPOS>MOLECULE
4hbp_ligand
   33    35     1     0     0
SMALL
GAST_HUCK


@<TRIPOS>ATOM
      1 C2        -26.1470  -44.9310  -42.8750 C.2       1 17J         0.1719
      2 O1        -25.5420  -44.5910  -43.9180 O.2       1 17J        -0.3829
      3 N10       -27.3390  -45.5130  -42.9540 N.am      1 17J        -0.2706
      4 C15       -27.9390  -45.8040  -44.2600 C.3       1 17J         0.0562
      5 C14       -29.2840  -45.0940  -44.2690 C.3       1 17J         0.0621
      6 N13       -29.8980  -45.7780  -43.1500 N.pl3     1 17J        -0.2528
      7 C12       -29.4640  -45.2720  -41.8570 C.3       1 17J         0.0621
      8 C11       -28.0780  -45.9120  -41.7490 C.3       1 17J         0.0562
      9 C16       -31.1960  -46.1620  -43.3110 C.2       1 17J         0.2057
     10 S20       -32.3280  -46.3020  -42.0290 S.3       1 17J         0.0629
     11 N19       -33.5380  -46.8220  -43.0980 N.2       1 17J        -0.2644
     12 C18       -33.0420  -46.8830  -44.3750 C.2       1 17J         0.0776
     13 N17       -31.7250  -46.5160  -44.5000 N.2       1 17J        -0.2690
     14 C21       -33.8800  -47.2970  -45.5340 C.ar      1 17J         0.0149
     15 C26       -34.8980  -48.2380  -45.3620 C.ar      1 17J        -0.0444
     16 C25       -35.6880  -48.6090  -46.4530 C.ar      1 17J        -0.0553
     17 C24       -35.4550  -48.0380  -47.7080 C.ar      1 17J        -0.0566
     18 C23       -34.4380  -47.0970  -47.8790 C.ar      1 17J        -0.0553
     19 C22       -33.6520  -46.7250  -46.7890 C.ar      1 17J        -0.0444
     20 H1        -25.6949  -44.7491  -41.9011 H         1 17J         0.1546
     21 H2        -28.0780  -46.8881  -44.3841 H         1 17J         0.0546
     22 H3        -27.2991  -45.4213  -45.0688 H         1 17J         0.0546
     23 H4        -29.8334  -45.2596  -45.2075 H         1 17J         0.0563
     24 H5        -29.1831  -44.0135  -44.0890 H         1 17J         0.0563
     25 H6        -30.1288  -45.6072  -41.0472 H         1 17J         0.0563
     26 H7        -29.4042  -44.1737  -41.8514 H         1 17J         0.0563
     27 H8        -27.5610  -45.5489  -40.8485 H         1 17J         0.0546
     28 H9        -28.1678  -47.0074  -41.7036 H         1 17J         0.0546
     29 H10       -35.0741  -48.6781  -44.3871 H         1 17J         0.0675
     30 H11       -36.4801  -49.3382  -46.3268 H         1 17J         0.0632
     31 H12       -36.0681  -48.3279  -48.5537 H         1 17J         0.0661
     32 H13       -34.2603  -46.6579  -48.8540 H         1 17J         0.0632
     33 H14       -32.8636  -45.9917  -46.9149 H         1 17J         0.0675
@<TRIPOS>BOND
     1    1    2 2  
     2    1    3 am 
     3    3    4 1  
     4    3    8 1  
     5    4    5 1  
     6    5    6 1  
     7    6    7 1  
     8    6    9 1  
     9    7    8 1  
    10    9   10 1  
    11    9   13 2  
    12   10   11 1  
    13   11   12 2  
    14   12   13 1  
    15   12   14 1  
    16   14   15 ar 
    17   14   19 ar 
    18   15   16 ar 
    19   16   17 ar 
    20   17   18 ar 
    21   18   19 ar 
    22    1   20 1  
    23    4   21 1  
    24    4   22 1  
    25    5   23 1  
    26    5   24 1  
    27    7   25 1  
    28    7   26 1  
    29    8   27 1  
    30    8   28 1  
    31   15   29 1  
    32   16   30 1  
    33   17   31 1  
    34   18   32 1  
    35   19   33 1  
@<TRIPOS>SUBSTRUCTURE
     1 17J         1

