### 
### Created by X-TOOL on Mon Sep 10 21:13:10 2018
### 

@<TRIPOS>MOLECULE
4hbv_ligand
   22    23     1     0     0
SMALL
GAST_HUCK


@<TRIPOS>ATOM
      1 OAM        32.2140   18.2990    0.0580 O.2       1 15E        -0.3905
      2 CAH        31.1030   17.6980    0.0150 C.2       1 15E         0.2903
      3 NAG        30.9510   16.4600   -0.6940 N.am      1 15E        -0.2204
      4 CAD        29.6770   15.9760   -1.0640 C.ar      1 15E         0.0742
      5 CAC        29.5280   15.0690   -2.1340 C.ar      1 15E        -0.0448
      6 CAB        28.2900   14.6180   -2.5110 C.ar      1 15E        -0.0732
      7 CAA        27.1600   15.0390   -1.8350 C.ar      1 15E        -0.0102
      8 BR         25.4250   14.3310   -2.3220 Br        1 15E        -0.0658
      9 CAF        27.2970   15.8890   -0.7340 C.ar      1 15E        -0.0625
     10 CAE        28.5490   16.4040   -0.3640 C.ar      1 15E         0.0034
     11 CAJ        28.7460   17.2740    0.7570 C.3       1 15E         0.0648
     12 NAI        29.9930   18.1530    0.6470 N.am      1 15E        -0.2484
     13 CAL        30.0350   19.3400    1.5120 C.3       1 15E         0.0253
     14 H1         31.7643   15.9287   -0.9311 H         1 15E         0.2245
     15 H2         30.4066   14.7233   -2.6665 H         1 15E         0.0486
     16 H3         28.1965   13.9286   -3.3423 H         1 15E         0.0546
     17 H4         26.4200   16.1554   -0.1552 H         1 15E         0.0538
     18 H5         28.8361   16.6567    1.6630 H         1 15E         0.0653
     19 H6         27.8670   17.9293    0.8457 H         1 15E         0.0653
     20 H7         30.9750   19.8852    1.3410 H         1 15E         0.0485
     21 H8         29.9784   19.0283    2.5654 H         1 15E         0.0485
     22 H9         29.1832   19.9952    1.2772 H         1 15E         0.0485
@<TRIPOS>BOND
     1    1    2 2  
     2    2    3 am 
     3    2   12 am 
     4    3    4 1  
     5    4    5 ar 
     6    4   10 ar 
     7    5    6 ar 
     8    6    7 ar 
     9    7    8 1  
    10    7    9 ar 
    11    9   10 ar 
    12   10   11 1  
    13   11   12 1  
    14   12   13 1  
    15    3   14 1  
    16    5   15 1  
    17    6   16 1  
    18    9   17 1  
    19   11   18 1  
    20   11   19 1  
    21   13   20 1  
    22   13   21 1  
    23   13   22 1  
@<TRIPOS>SUBSTRUCTURE
     1 15E         1

