### 
### Created by X-TOOL on Mon Sep 10 21:13:09 2018
### 

@<TRIPOS>MOLECULE
4hbw_ligand
   33    34     1     0     0
SMALL
GAST_HUCK


@<TRIPOS>ATOM
      1 CAO        26.9350   17.8170   -5.1240 C.3       1 14Z        -0.0483
      2 CAN        26.9900   17.0030   -3.8260 C.3       1 14Z         0.0236
      3 NAM        27.2240   15.5870   -4.1500 N.am      1 14Z        -0.2494
      4 SAP        27.3170   14.6020   -2.9210 S.o2      1 14Z         0.0598
      5 OAQ        27.7270   13.2090   -3.2990 O.2       1 14Z        -0.1523
      6 OAR        26.4640   14.8550   -1.7890 O.2       1 14Z        -0.1523
      7 CAA        28.8730   15.1950   -2.2720 C.ar      1 14Z         0.0859
      8 CAF        28.8680   15.9120   -1.0470 C.ar      1 14Z        -0.0452
      9 CAE        30.0920   16.3850   -0.5530 C.ar      1 14Z         0.0024
     10 CAJ        30.0320   17.2050    0.7520 C.3       1 14Z         0.0643
     11 NAI        31.2510   18.0710    0.8450 N.am      1 14Z        -0.2486
     12 CAL        31.1540   19.1450    1.9100 C.3       1 14Z         0.0253
     13 CAH        32.4470   17.7690    0.1800 C.2       1 14Z         0.2893
     14 OAK        33.4400   18.4760    0.3330 O.2       1 14Z        -0.3909
     15 NAG        32.4940   16.7420   -0.7730 N.am      1 14Z        -0.2223
     16 CAD        31.2950   16.1520   -1.2020 C.ar      1 14Z         0.0711
     17 CAC        31.2730   15.5220   -2.4410 C.ar      1 14Z        -0.0459
     18 CAB        30.0800   15.0130   -2.9360 C.ar      1 14Z        -0.0562
     19 H1         26.7601   18.8764   -4.8852 H         1 14Z         0.0245
     20 H2         26.1161   17.4437   -5.7565 H         1 14Z         0.0245
     21 H3         27.8893   17.7150   -5.6615 H         1 14Z         0.0245
     22 H4         26.0358   17.1041   -3.2881 H         1 14Z         0.0473
     23 H5         27.8090   17.3753   -3.1931 H         1 14Z         0.0473
     24 H6         27.3185   15.2679   -5.0930 H         1 14Z         0.1670
     25 H7         27.9439   16.0889   -0.5086 H         1 14Z         0.0532
     26 H8         29.9986   16.5228    1.6142 H         1 14Z         0.0653
     27 H9         29.1313   17.8365    0.7489 H         1 14Z         0.0653
     28 H10        32.0808   19.7374    1.9188 H         1 14Z         0.0485
     29 H11        31.0106   18.6741    2.8937 H         1 14Z         0.0485
     30 H12        30.3003   19.8030    1.6905 H         1 14Z         0.0485
     31 H13        33.3706   16.4337   -1.1424 H         1 14Z         0.2233
     32 H14        32.1851   15.4284   -3.0192 H         1 14Z         0.0479
     33 H15        30.0904   14.4578   -3.8670 H         1 14Z         0.0539
@<TRIPOS>BOND
     1    1    2 1  
     2    2    3 1  
     3    3    4 am 
     4    4    5 2  
     5    4    6 2  
     6    4    7 1  
     7    7    8 ar 
     8    7   18 ar 
     9    8    9 ar 
    10    9   10 1  
    11    9   16 ar 
    12   10   11 1  
    13   11   12 1  
    14   11   13 am 
    15   13   14 2  
    16   13   15 am 
    17   15   16 1  
    18   16   17 ar 
    19   17   18 ar 
    20    1   19 1  
    21    1   20 1  
    22    1   21 1  
    23    2   22 1  
    24    2   23 1  
    25    3   24 1  
    26    8   25 1  
    27   10   26 1  
    28   10   27 1  
    29   12   28 1  
    30   12   29 1  
    31   12   30 1  
    32   15   31 1  
    33   17   32 1  
    34   18   33 1  
@<TRIPOS>SUBSTRUCTURE
     1 14Z         1

