### 
### Created by X-TOOL on Mon Sep 10 21:13:09 2018
### 

@<TRIPOS>MOLECULE
4hbx_ligand
   37    39     1     0     0
SMALL
GAST_HUCK


@<TRIPOS>ATOM
      1 C4         50.3320    2.2940   21.5860 C.ar      1 14X         0.0862
      2 C5         50.1300    3.4580   22.3570 C.ar      1 14X        -0.0562
      3 C6         50.5800    4.6970   21.9600 C.ar      1 14X        -0.0459
      4 C11        53.0150    0.4690   24.3790 C.3       1 14X        -0.0344
      5 C7         51.3020    4.7550   20.7690 C.ar      1 14X         0.0711
      6 C8         52.8870    6.1330   19.3740 C.2       1 14X         0.2893
      7 C9         52.3450   -0.2860   22.2360 C.3       1 14X         0.0295
      8 C10        53.2710   -0.6420   23.3610 C.3       1 14X        -0.0344
      9 C12        51.5260    0.5500   24.3800 C.3       1 14X         0.0295
     10 N1         51.9750    5.9960   20.4340 N.am      1 14X        -0.2223
     11 N2         51.1570    0.2970   22.9530 N.am      1 14X        -0.2358
     12 C3         50.9900    2.3900   20.3560 C.ar      1 14X        -0.0452
     13 O2         48.8200    1.0770   23.1520 O.2       1 14X        -0.1522
     14 S          49.8160    0.7520   22.1620 S.o2      1 14X         0.0622
     15 O1         49.8120   -0.1010   21.0900 O.2       1 14X        -0.1522
     16 C2         51.4560    3.6350   19.9530 C.ar      1 14X         0.0024
     17 C1         52.0740    3.9020   18.5960 C.3       1 14X         0.0643
     18 O          53.5650    7.1410   19.4030 O.2       1 14X        -0.3909
     19 N          53.0590    5.0500   18.6020 N.am      1 14X        -0.2486
     20 C          54.1920    5.0510   17.6010 C.3       1 14X         0.0253
     21 H1         49.5998    3.3735   23.2987 H         1 14X         0.0539
     22 H2         50.3819    5.5867   22.5467 H         1 14X         0.0479
     23 H3         53.4668    1.4187   24.0566 H         1 14X         0.0281
     24 H4         53.4013    0.1978   25.3726 H         1 14X         0.0281
     25 H5         52.0607   -1.1786   21.6594 H         1 14X         0.0478
     26 H6         52.8043    0.4539   21.5639 H         1 14X         0.0478
     27 H7         53.0229   -1.6281   23.7806 H         1 14X         0.0281
     28 H8         54.3190   -0.6388   23.0269 H         1 14X         0.0281
     29 H9         51.1874    1.5458   24.7022 H         1 14X         0.0478
     30 H10        51.0918   -0.2160   25.0393 H         1 14X         0.0478
     31 H11        51.7778    6.8026   20.9913 H         1 14X         0.2233
     32 H12        51.1329    1.5148   19.7325 H         1 14X         0.0532
     33 H13        51.2679    4.1375   17.8856 H         1 14X         0.0653
     34 H14        52.5991    2.9933   18.2667 H         1 14X         0.0653
     35 H15        54.8074    5.9514   17.7447 H         1 14X         0.0485
     36 H16        53.7802    5.0473   16.5810 H         1 14X         0.0485
     37 H17        54.8129    4.1551   17.7490 H         1 14X         0.0485
@<TRIPOS>BOND
     1    1    2 ar 
     2    1   12 ar 
     3   14    1 1  
     4    2    3 ar 
     5    3    5 ar 
     6    4    8 1  
     7    9    4 1  
     8    5   10 1  
     9    5   16 ar 
    10   10    6 am 
    11    6   18 2  
    12    6   19 am 
    13    7    8 1  
    14   11    7 1  
    15   11    9 1  
    16   11   14 am 
    17   12   16 ar 
    18   14   13 2  
    19   14   15 2  
    20   16   17 1  
    21   17   19 1  
    22   19   20 1  
    23    2   21 1  
    24    3   22 1  
    25    4   23 1  
    26    4   24 1  
    27    7   25 1  
    28    7   26 1  
    29    8   27 1  
    30    8   28 1  
    31    9   29 1  
    32    9   30 1  
    33   10   31 1  
    34   12   32 1  
    35   17   33 1  
    36   17   34 1  
    37   20   35 1  
    38   20   36 1  
    39   20   37 1  
@<TRIPOS>SUBSTRUCTURE
     1 14X         1

