### 
### Created by X-TOOL on Mon Sep 10 21:13:10 2018
### 

@<TRIPOS>MOLECULE
4hby_ligand
   37    39     1     0     0
SMALL
GAST_HUCK


@<TRIPOS>ATOM
      1 C4          6.5860    3.9000   22.1210 C.ar      1 13F        -0.0556
      2 C14         8.9090    4.0540   18.7230 C.3       1 13F         0.0643
      3 C5          6.7470    2.7910   21.3750 C.ar      1 13F         0.0919
      4 C6          7.8210    0.5070   23.8310 C.ar      1 13F         0.0623
      5 C11         8.4260   -0.4220   23.0580 C.ar      1 13F        -0.0456
      6 C7          8.4450    1.0130   24.8300 C.ar      1 13F        -0.0456
      7 C8          9.7370    0.7100   25.0550 C.ar      1 13F        -0.0779
      8 C9         10.3990   -0.1200   24.2780 C.ar      1 13F        -0.0792
      9 C10         9.7380   -0.7360   23.2620 C.ar      1 13F        -0.0779
     10 C12         7.5190    2.8870   20.2310 C.ar      1 13F        -0.0447
     11 C13         8.0900    4.0000   19.9190 C.ar      1 13F         0.0025
     12 N1          8.6960    6.1090   20.4580 N.am      1 13F        -0.2223
     13 N2          6.5920    1.1400   23.4170 N.am      1 13F        -0.1887
     14 C3          7.1810    5.0660   21.7880 C.ar      1 13F        -0.0459
     15 O2         10.1650    7.0990   19.5500 O.2       1 13F        -0.3909
     16 C1          9.5940    6.2170   19.5250 C.2       1 13F         0.2893
     17 C2          7.9770    5.0620   20.6640 C.ar      1 13F         0.0711
     18 N           9.7720    5.1600   18.7690 N.am      1 13F        -0.2486
     19 C          10.8860    5.1170   17.8670 C.3       1 13F         0.0253
     20 S           6.0360    1.4280   21.8720 S.o2      1 13F         0.0811
     21 O           4.7600    1.7300   22.2040 O.2       1 13F        -0.1467
     22 O1          6.2900    0.1800   21.0370 O.2       1 13F        -0.1467
     23 H           5.9617    3.8560   23.0134 H         1 13F         0.0539
     24 H           8.2596    4.1470   17.8525 H         1 13F         0.0653
     25 H           9.5036    3.1427   18.6590 H         1 13F         0.0653
     26 H           7.8640   -0.9220   22.2691 H         1 13F         0.0481
     27 H           7.9248    1.6945   25.5030 H         1 13F         0.0481
     28 H          10.2484    1.1644   25.9036 H         1 13F         0.0572
     29 H          11.4590   -0.3105   24.4459 H         1 13F         0.0471
     30 H          10.2437   -1.4627   22.6262 H         1 13F         0.0572
     31 H           7.6454    2.0154   19.5888 H         1 13F         0.0532
     32 H           8.5507    6.9114   21.0707 H         1 13F         0.2233
     33 H           5.9812    1.4534   24.1714 H         1 13F         0.2161
     34 H           7.0377    5.9688   22.3817 H         1 13F         0.0479
     35 H          10.8121    5.9439   17.1607 H         1 13F         0.0485
     36 H          11.8136    5.2026   18.4329 H         1 13F         0.0485
     37 H          10.8760    4.1719   17.3241 H         1 13F         0.0485
@<TRIPOS>BOND
     1    3    1 ar 
     2    1   14 ar 
     3   11    2 1  
     4    2   18 1  
     5    3   10 ar 
     6   20    3 1  
     7    4    5 ar 
     8    4    6 ar 
     9   13    4 1  
    10    5    9 ar 
    11    6    7 ar 
    12    7    8 ar 
    13    9    8 ar 
    14   10   11 ar 
    15   11   17 ar 
    16   12   16 am 
    17   17   12 1  
    18   13   20 am 
    19   14   17 ar 
    20   16   15 2  
    21   16   18 am 
    22   18   19 1  
    23   20   21 2  
    24   20   22 2  
    25    1   23 1  
    26    2   24 1  
    27    2   25 1  
    28    5   26 1  
    29    6   27 1  
    30    7   28 1  
    31    8   29 1  
    32    9   30 1  
    33   10   31 1  
    34   12   32 1  
    35   13   33 1  
    36   14   34 1  
    37   19   35 1  
    38   19   36 1  
    39   19   37 1  
@<TRIPOS>SUBSTRUCTURE
     1 13F         1

