### 
### Created by X-TOOL on Mon Sep 10 21:13:11 2018
### 

@<TRIPOS>MOLECULE
4hco_ligand
   24    24     1     0     0
SMALL
GAST_HUCK


@<TRIPOS>ATOM
      1 CAA        -3.0530  -12.8610   -2.1730 C.2       1 IMW         0.0250
      2 CAB        -4.1960  -12.4230   -2.6760 C.2       1 IMW         0.0058
      3 CAC        -4.2320  -11.9330   -3.9060 C.2       1 IMW         0.1583
      4 CAD        -3.0280  -11.8110   -4.6920 C.2       1 IMW         0.0306
      5 CAE        -1.8650  -12.2230   -4.1930 C.2       1 IMW         0.0063
      6 CAF        -1.8270  -12.7490   -2.9700 C.2       1 IMW         0.1578
      7 CAG        -3.1400  -13.4360   -0.7900 C.3       1 IMW        -0.0165
      8 CAH        -2.9760  -11.2670   -6.0180 C.3       1 IMW         0.0014
      9 CAI        -3.3110   -9.8040   -5.9610 C.3       1 IMW        -0.0497
     10 OAJ        -0.7110  -13.0980   -2.5630 O.2       1 IMW        -0.3612
     11 OAK        -5.3120  -11.5790   -4.3070 O.2       1 IMW        -0.3612
     12 CAL        -3.9330  -12.0680   -6.8210 C.3       1 IMW        -0.0497
     13 H1         -5.1060  -12.4654   -2.0793 H         1 IMW         0.0577
     14 H2         -0.9522  -12.1308   -4.7797 H         1 IMW         0.0577
     15 H3         -4.1817  -13.3916   -0.4393 H         1 IMW         0.0438
     16 H4         -2.4993  -12.8550   -0.1104 H         1 IMW         0.0438
     17 H5         -2.8030  -14.4830   -0.8063 H         1 IMW         0.0438
     18 H6         -1.9654  -11.3808   -6.4371 H         1 IMW         0.0503
     19 H7         -3.2731   -9.3794   -6.9751 H         1 IMW         0.0260
     20 H8         -2.5832   -9.2859   -5.3192 H         1 IMW         0.0260
     21 H9         -4.3220   -9.6752   -5.5471 H         1 IMW         0.0260
     22 H10        -3.6227  -13.1233   -6.8157 H         1 IMW         0.0260
     23 H11        -3.9458  -11.6948   -7.8557 H         1 IMW         0.0260
     24 H12        -4.9398  -11.9797   -6.3869 H         1 IMW         0.0260
@<TRIPOS>BOND
     1    1    2 2  
     2    1    6 1  
     3    1    7 1  
     4    2    3 1  
     5    3    4 1  
     6    3   11 2  
     7    4    5 2  
     8    4    8 1  
     9    5    6 1  
    10    6   10 2  
    11    8    9 1  
    12    8   12 1  
    13    2   13 1  
    14    5   14 1  
    15    7   15 1  
    16    7   16 1  
    17    7   17 1  
    18    8   18 1  
    19    9   19 1  
    20    9   20 1  
    21    9   21 1  
    22   12   22 1  
    23   12   23 1  
    24   12   24 1  
@<TRIPOS>SUBSTRUCTURE
     1 IMW         1

