### 
### Created by X-TOOL on Mon Sep 10 21:13:09 2018
### 

@<TRIPOS>MOLECULE
4hct_ligand
   72    76     1     0     0
SMALL
GAST_HUCK


@<TRIPOS>ATOM
      1 C1          1.5640   10.0490   18.3050 C.2       1 18R         0.2325
      2 N1          1.2040   10.4710   17.0690 N.am      1 18R        -0.2273
      3 O1          1.8890   10.8260   19.1990 O.2       1 18R        -0.3730
      4 N2          8.1800    5.1210   21.8490 N.am      1 18R        -0.2708
      5 C2          8.8560    4.0280   22.2600 C.2       1 18R         0.1978
      6 O2          8.2570    3.0420   22.7080 O.2       1 18R        -0.3875
      7 C3          6.0760    5.9730   22.5970 C.3       1 18R         0.1015
      8 C4          6.6020    7.4120   22.5920 C.3       1 18R        -0.0176
      9 C5          8.1340    7.4470   22.6120 C.3       1 18R        -0.0297
     10 C6          8.7090    6.4660   21.5870 C.3       1 18R         0.0333
     11 C7          6.7480    5.1060   21.5570 C.3       1 18R         0.0645
     12 N3          1.6560    3.6670   23.7580 N.ar      1 18R        -0.2655
     13 C8          2.8920    3.5690   24.2650 C.ar      1 18R         0.0566
     14 N4          3.9830    4.2620   23.9220 N.ar      1 18R        -0.2674
     15 C9          1.4410    4.5330   22.7430 C.ar      1 18R         0.1276
     16 N5          4.6340    5.9180   22.2700 N.pl3     1 18R        -0.1774
     17 N6          4.1020    6.6440   21.2400 N.2       1 18R        -0.1916
     18 C10         2.7890    6.2630   21.1950 C.2       1 18R         0.0746
     19 C11         2.5300    5.3270   22.2300 C.ar      1 18R         0.0878
     20 C12         3.7460    5.1100   22.9070 C.ar      1 18R         0.1641
     21 N7          0.1970    4.6510   22.2500 N.pl3     1 18R        -0.3125
     22 C13         1.8870    6.7900   20.1340 C.ar      1 18R        -0.0020
     23 C14         1.9960    8.1250   19.7630 C.ar      1 18R        -0.0336
     24 C15         1.3790    8.5990   18.6080 C.ar      1 18R         0.0560
     25 C16         0.5260    7.7530   17.9010 C.ar      1 18R        -0.0421
     26 C17         0.3260    6.4460   18.3280 C.ar      1 18R        -0.0564
     27 C18         1.0360    5.9480   19.4140 C.ar      1 18R        -0.0500
     28 C19        10.3410    4.0570   22.2370 C.2       1 18R         0.0083
     29 C20        11.0070    3.6020   21.1970 C.2       1 18R        -0.0786
     30 C21         1.8390   13.5460   15.0090 C.ar      1 18R        -0.0620
     31 C22         1.9080   12.2240   15.4630 C.ar      1 18R        -0.0201
     32 C23         1.0480   14.4500   15.7160 C.ar      1 18R        -0.0528
     33 C24         2.5870   14.0110   13.7470 C.3       1 18R        -0.0488
     34 C25         1.2020   11.8160   16.5960 C.ar      1 18R         0.0946
     35 C26         0.3410   14.0480   16.8420 C.ar      1 18R        -0.0435
     36 C27         3.7260   14.9750   14.1100 C.3       1 18R        -0.0842
     37 C28         3.1960   12.8440   12.9650 C.3       1 18R        -0.0842
     38 C29         1.6380   14.7640   12.7890 C.3       1 18R        -0.0842
     39 C30         0.4180   12.7350   17.2850 C.ar      1 18R        -0.0111
     40 H           0.9037    9.7532   16.4095 H         1 18R         0.2255
     41 H           6.2821    5.6104   23.6041 H         1 18R         0.0682
     42 H           6.2324    7.9189   23.4834 H         1 18R         0.0296
     43 H           6.2562    7.9039   21.6829 H         1 18R         0.0296
     44 H           8.4807    7.1631   23.6056 H         1 18R         0.0286
     45 H           8.4675    8.4543   22.3624 H         1 18R         0.0286
     46 H           8.4240    6.7800   20.5829 H         1 18R         0.0521
     47 H           9.7960    6.4516   21.6669 H         1 18R         0.0521
     48 H           6.3578    4.0888   21.5922 H         1 18R         0.0552
     49 H           6.5548    5.4868   20.5541 H         1 18R         0.0552
     50 H           3.0252    2.8317   25.0567 H         1 18R         0.1030
     51 H           0.0074    5.3127   21.4973 H         1 18R         0.1842
     52 H          -0.5579    4.0789   22.6284 H         1 18R         0.1842
     53 H           2.5723    8.8103   20.3846 H         1 18R         0.0672
     54 H           0.0143    8.1179   17.0104 H         1 18R         0.0663
     55 H          -0.3904    5.8089   17.8093 H         1 18R         0.0627
     56 H           0.9291    4.9026   19.7034 H         1 18R         0.0652
     57 H          10.8853    4.4597   23.0912 H         1 18R         0.0692
     58 H          10.4689    3.1980   20.3395 H         1 18R         0.0687
     59 H          12.0967    3.6292   21.1932 H         1 18R         0.0687
     60 H           2.5220   11.5024   14.9240 H         1 18R         0.0709
     61 H           0.9834   15.4853   15.3811 H         1 18R         0.0739
     62 H          -0.2770   14.7669   17.3800 H         1 18R         0.0664
     63 H           3.3139   15.8481   14.6159 H         1 18R         0.0137
     64 H           4.4311   14.4700   14.7703 H         1 18R         0.0137
     65 H           4.2385   15.2886   13.2006 H         1 18R         0.0137
     66 H           3.9050   12.3132   13.6004 H         1 18R         0.0137
     67 H           2.4033   12.1630   12.6550 H         1 18R         0.0137
     68 H           3.7117   13.2279   12.0848 H         1 18R         0.0137
     69 H           0.8247   14.1023   12.4909 H         1 18R         0.0137
     70 H           1.2296   15.6379   13.2967 H         1 18R         0.0137
     71 H           2.1922   15.0814   11.9057 H         1 18R         0.0137
     72 H          -0.1351   12.4246   18.1715 H         1 18R         0.0760
@<TRIPOS>BOND
     1    2    1 am 
     2    1    3 2  
     3    1   24 1  
     4   34    2 1  
     5    4    5 am 
     6    4   10 1  
     7   11    4 1  
     8    5    6 2  
     9    5   28 1  
    10    7    8 1  
    11    7   11 1  
    12   16    7 1  
    13    8    9 1  
    14    9   10 1  
    15   12   13 ar 
    16   15   12 ar 
    17   14   13 ar 
    18   20   14 ar 
    19   19   15 ar 
    20   15   21 1  
    21   17   16 1  
    22   20   16 1  
    23   18   17 2  
    24   18   19 1  
    25   22   18 1  
    26   19   20 ar 
    27   23   22 ar 
    28   22   27 ar 
    29   24   23 ar 
    30   24   25 ar 
    31   25   26 ar 
    32   26   27 ar 
    33   28   29 2  
    34   31   30 ar 
    35   30   32 ar 
    36   30   33 1  
    37   31   34 ar 
    38   32   35 ar 
    39   33   36 1  
    40   33   37 1  
    41   33   38 1  
    42   34   39 ar 
    43   35   39 ar 
    44    2   40 1  
    45    7   41 1  
    46    8   42 1  
    47    8   43 1  
    48    9   44 1  
    49    9   45 1  
    50   10   46 1  
    51   10   47 1  
    52   11   48 1  
    53   11   49 1  
    54   13   50 1  
    55   21   51 1  
    56   21   52 1  
    57   23   53 1  
    58   25   54 1  
    59   26   55 1  
    60   27   56 1  
    61   28   57 1  
    62   29   58 1  
    63   29   59 1  
    64   31   60 1  
    65   32   61 1  
    66   35   62 1  
    67   36   63 1  
    68   36   64 1  
    69   36   65 1  
    70   37   66 1  
    71   37   67 1  
    72   37   68 1  
    73   38   69 1  
    74   38   70 1  
    75   38   71 1  
    76   39   72 1  
@<TRIPOS>SUBSTRUCTURE
     1 18R         1

