### 
### Created by X-TOOL on Mon Sep 10 21:13:09 2018
### 

@<TRIPOS>MOLECULE
4hcu_ligand
   71    75     1     0     0
SMALL
GAST_HUCK


@<TRIPOS>ATOM
      1 C4          2.5820   12.7000   14.5140 C.ar      1 13L        -0.0729
      2 C7          1.1250   12.6940   16.8370 C.ar      1 13L        -0.0472
      3 C6          2.3680   11.5080   15.1830 C.ar      1 13L        -0.0472
      4 C9          2.9790    3.6170   24.3990 C.ar      1 13L         0.0566
      5 C13         2.0650   13.8890   14.9860 C.ar      1 13L        -0.0550
      6 C20         8.2330    7.4920   22.5780 C.3       1 13L        -0.0296
      7 C21         6.6990    7.4800   22.5790 C.3       1 13L        -0.0176
      8 C8          2.1510    8.1210   19.8590 C.ar      1 13L        -0.0337
      9 C18         1.6180   10.0100   18.3510 C.2       1 13L         0.2305
     10 C16         3.8290    5.1350   23.0170 C.ar      1 13L         0.1641
     11 C19         8.9070    4.1390   22.3990 C.2       1 13L         0.1783
     12 C26         2.5360   16.3920   14.9790 C.3       1 13L        -0.0548
     13 C1          0.3590    6.4760   18.5380 C.ar      1 13L        -0.0564
     14 C2          1.1050    5.9950   19.6010 C.ar      1 13L        -0.0500
     15 C3          0.5240    7.7810   18.1090 C.ar      1 13L        -0.0422
     16 C5          1.3330   13.8820   16.1580 C.ar      1 13L        -0.0729
     17 C10         2.6080    5.3440   22.3970 C.ar      1 13L         0.0878
     18 C11         1.9990    6.8140   20.2930 C.ar      1 13L        -0.0020
     19 C12         1.4130    8.6100   18.7890 C.ar      1 13L         0.0556
     20 C14         1.6380   11.5080   16.3540 C.ar      1 13L         0.0594
     21 C15         2.8580    6.2970   21.3630 C.2       1 13L         0.0746
     22 C17         1.5300    4.5970   22.8880 C.ar      1 13L         0.1276
     23 C22         8.7700    6.5140   21.5360 C.3       1 13L         0.0341
     24 C23         6.7930    5.1050   21.6630 C.3       1 13L         0.0652
     25 C24         6.1440    6.0600   22.6670 C.3       1 13L         0.1016
     26 C25        10.9520    3.6560   21.0660 C.3       1 13L        -0.0482
     27 C27         1.3150   15.3300   13.0660 C.3       1 13L        -0.0548
     28 C28        10.4080    4.2280   22.3560 C.3       1 13L         0.0346
     29 C29         2.3480   15.1300   14.1720 C.3       1 13L        -0.0198
     30 N30         4.0760    4.3110   24.0410 N.ar      1 13L        -0.2674
     31 N31         1.7360    3.7340   23.8980 N.ar      1 13L        -0.2655
     32 N32         4.1440    6.6910   21.3960 N.2       1 13L        -0.1916
     33 N33         4.7040    5.9980   22.4160 N.pl3     1 13L        -0.1774
     34 N34         8.2330    5.1820   21.7840 N.am      1 13L        -0.2702
     35 N35         0.2480    4.7100   22.3490 N.pl3     1 13L        -0.3125
     36 N36         1.4170   10.2640   17.0190 N.am      1 13L        -0.2369
     37 O37         1.9650   10.8780   19.1400 O.2       1 13L        -0.3739
     38 O38         8.3780    3.1790   22.9650 O.2       1 13L        -0.3969
     39 H           3.1703   12.6998   13.5964 H         1 13L         0.0520
     40 H           0.5499   12.6955   17.7629 H         1 13L         0.0488
     41 H           2.7729   10.5762   14.7882 H         1 13L         0.0488
     42 H           3.1137    2.8746   25.1857 H         1 13L         0.1030
     43 H           8.5918    7.1945   23.5633 H         1 13L         0.0286
     44 H           8.5808    8.4963   22.3359 H         1 13L         0.0286
     45 H           6.3519    7.9267   21.6473 H         1 13L         0.0296
     46 H           6.3522    8.0383   23.4486 H         1 13L         0.0296
     47 H           2.8607    8.7754   20.3651 H         1 13L         0.0672
     48 H           2.8781   17.1931   14.3238 H         1 13L         0.0251
     49 H           1.5874   16.6745   15.4356 H         1 13L         0.0251
     50 H           3.2777   16.2164   15.7582 H         1 13L         0.0251
     51 H          -0.3591    5.8256   18.0386 H         1 13L         0.0627
     52 H           0.9916    4.9541   19.9040 H         1 13L         0.0652
     53 H          -0.0340    8.1552   17.2507 H         1 13L         0.0663
     54 H           0.9194   14.8121   16.5478 H         1 13L         0.0520
     55 H           9.8576    6.4812   21.6001 H         1 13L         0.0522
     56 H           8.4674    6.8447   20.5424 H         1 13L         0.0522
     57 H           6.4982    5.3860   20.6520 H         1 13L         0.0553
     58 H           6.4655    4.0857   21.8677 H         1 13L         0.0553
     59 H           6.3710    5.7561   23.6889 H         1 13L         0.0682
     60 H          10.6623    2.6084   20.9839 H         1 13L         0.0254
     61 H          10.5453    4.2140   20.2226 H         1 13L         0.0254
     62 H          12.0391    3.7348   21.0651 H         1 13L         0.0254
     63 H           0.3582   15.6052   13.5097 H         1 13L         0.0251
     64 H           1.6489   16.1239   12.3979 H         1 13L         0.0251
     65 H           1.2029   14.4032   12.5034 H         1 13L         0.0251
     66 H          10.8149    3.6557   23.1897 H         1 13L         0.0500
     67 H          10.6967    5.2771   22.4209 H         1 13L         0.0500
     68 H           3.3186   14.9389   13.7142 H         1 13L         0.0428
     69 H           0.0750    5.3509   21.5746 H         1 13L         0.1842
     70 H          -0.5162    4.1517   22.7294 H         1 13L         0.1842
     71 H           1.0769    9.4901   16.4482 H         1 13L         0.2231
@<TRIPOS>BOND
     1    3    1 ar 
     2    1    5 ar 
     3    2   16 ar 
     4   20    2 ar 
     5   20    3 ar 
     6   30    4 ar 
     7    4   31 ar 
     8   16    5 ar 
     9    5   29 1  
    10    7    6 1  
    11    6   23 1  
    12   25    7 1  
    13   18    8 ar 
    14    8   19 ar 
    15   19    9 1  
    16    9   36 am 
    17    9   37 2  
    18   10   17 ar 
    19   10   30 ar 
    20   33   10 1  
    21   11   28 1  
    22   34   11 am 
    23   11   38 2  
    24   29   12 1  
    25   14   13 ar 
    26   13   15 ar 
    27   18   14 ar 
    28   19   15 ar 
    29   17   21 1  
    30   17   22 ar 
    31   21   18 1  
    32   36   20 1  
    33   21   32 2  
    34   22   31 ar 
    35   22   35 1  
    36   34   23 1  
    37   25   24 1  
    38   24   34 1  
    39   25   33 1  
    40   28   26 1  
    41   29   27 1  
    42   32   33 1  
    43    1   39 1  
    44    2   40 1  
    45    3   41 1  
    46    4   42 1  
    47    6   43 1  
    48    6   44 1  
    49    7   45 1  
    50    7   46 1  
    51    8   47 1  
    52   12   48 1  
    53   12   49 1  
    54   12   50 1  
    55   13   51 1  
    56   14   52 1  
    57   15   53 1  
    58   16   54 1  
    59   23   55 1  
    60   23   56 1  
    61   24   57 1  
    62   24   58 1  
    63   25   59 1  
    64   26   60 1  
    65   26   61 1  
    66   26   62 1  
    67   27   63 1  
    68   27   64 1  
    69   27   65 1  
    70   28   66 1  
    71   28   67 1  
    72   29   68 1  
    73   35   69 1  
    74   35   70 1  
    75   36   71 1  
@<TRIPOS>SUBSTRUCTURE
     1 13L         1

