### 
### Created by X-TOOL on Mon Sep 10 21:13:09 2018
### 

@<TRIPOS>MOLECULE
4hcv_ligand
   71    75     1     0     0
SMALL
GAST_HUCK


@<TRIPOS>ATOM
      1 C4          1.4130   13.3960   15.8870 C.ar      1 13J        -0.0729
      2 C7          2.6330   11.1520   14.8420 C.ar      1 13J        -0.0472
      3 C6          1.2940   12.1960   16.5490 C.ar      1 13J        -0.0472
      4 C9          4.3160    3.5200   24.0750 C.ar      1 13J         0.0566
      5 C13         2.1220   13.4840   14.7090 C.ar      1 13J        -0.0550
      6 C20         9.1760    6.5190   23.3530 C.3       1 13J        -0.0296
      7 C21         7.6620    6.3900   23.3190 C.3       1 13J        -0.0176
      8 C8          2.8670    7.8350   19.5020 C.ar      1 13J        -0.0337
      9 C18         2.1310    9.6470   18.0060 C.2       1 13J         0.2305
     10 C16         4.9300    5.0080   22.5590 C.ar      1 13J         0.1641
     11 C19        10.2790    5.4980   20.4080 C.2       1 13J         0.1783
     12 C26         1.4850   14.8310   12.6790 C.3       1 13J        -0.0548
     13 C1          1.0250    6.1000   18.3830 C.ar      1 13J        -0.0564
     14 C2          1.8970    5.6660   19.3660 C.ar      1 13J        -0.0500
     15 C3          1.0950    7.4010   17.9170 C.ar      1 13J        -0.0422
     16 C5          2.7330   12.3610   14.1700 C.ar      1 13J        -0.0729
     17 C10         3.6570    5.1100   22.0280 C.ar      1 13J         0.0878
     18 C11         2.8220    6.5170   19.9510 C.ar      1 13J        -0.0020
     19 C12         2.0120    8.2680   18.4960 C.ar      1 13J         0.0556
     20 C14         1.9200   11.0780   16.0250 C.ar      1 13J         0.0594
     21 C15         3.7650    6.0390   20.9490 C.2       1 13J         0.0746
     22 C17         2.6870    4.3130   22.6240 C.ar      1 13J         0.1276
     23 C22         9.8270    5.2880   22.7580 C.3       1 13J         0.0341
     24 C23         7.9340    4.9380   21.2440 C.3       1 13J         0.0652
     25 C24         7.1560    6.0800   21.9110 C.3       1 13J         0.1016
     26 C25        10.8060    4.2690   18.4420 C.3       1 13J        -0.0482
     27 C27         3.3510   15.6550   14.1860 C.3       1 13J        -0.0548
     28 C28         9.8170    5.2880   19.0050 C.3       1 13J         0.0346
     29 C29         2.1020   14.8330   14.0620 C.3       1 13J        -0.0198
     30 N30         5.3350    4.2210   23.5710 N.ar      1 13J        -0.2674
     31 N31         3.0380    3.5230   23.6600 N.ar      1 13J        -0.2655
     32 N32         5.0280    6.4630   20.8630 N.2       1 13J        -0.1916
     33 N33         5.7220    5.8540   21.8370 N.pl3     1 13J        -0.1774
     34 N34         9.3770    5.1410   21.3980 N.am      1 13J        -0.2702
     35 N35         1.3510    4.3400   22.2320 N.pl3     1 13J        -0.3125
     36 N36         1.7860    9.8410   16.6920 N.am      1 13J        -0.2369
     37 O37         2.5370   10.5290   18.7500 O.2       1 13J        -0.3739
     38 O38        11.4210    5.9110   20.6140 O.2       1 13J        -0.3969
     39 H           0.9408   14.2877   16.2993 H         1 13J         0.0520
     40 H           3.1154   10.2617   14.4387 H         1 13J         0.0488
     41 H           0.7164   12.1266   17.4708 H         1 13J         0.0488
     42 H           4.5476    2.8712   24.9197 H         1 13J         0.1030
     43 H           9.4991    6.6248   24.3886 H         1 13J         0.0286
     44 H           9.4701    7.3918   22.7700 H         1 13J         0.0286
     45 H           7.2282    7.3369   23.6404 H         1 13J         0.0296
     46 H           7.3710    5.5717   23.9777 H         1 13J         0.0296
     47 H           3.5789    8.5324   19.9436 H         1 13J         0.0672
     48 H           1.2227   15.8510   12.3981 H         1 13J         0.0251
     49 H           2.2019   14.4287   11.9633 H         1 13J         0.0251
     50 H           0.5879   14.2119   12.6837 H         1 13J         0.0251
     51 H           0.2814    5.4155   17.9749 H         1 13J         0.0627
     52 H           1.8554    4.6259   19.6894 H         1 13J         0.0652
     53 H           0.4431    7.7386   17.1113 H         1 13J         0.0663
     54 H           3.2838   12.4280   13.2318 H         1 13J         0.0520
     55 H           9.5517    4.4065   23.3370 H         1 13J         0.0522
     56 H          10.9115    5.3947   22.7802 H         1 13J         0.0522
     57 H           7.6909    4.9172   20.1817 H         1 13J         0.0553
     58 H           7.6564    3.9965   21.7180 H         1 13J         0.0553
     59 H           7.3496    6.9894   21.3422 H         1 13J         0.0682
     60 H          11.8144    4.6803   18.4866 H         1 13J         0.0254
     61 H          10.7589    3.3542   19.0327 H         1 13J         0.0254
     62 H          10.5479    4.0480   17.4063 H         1 13J         0.0254
     63 H           4.1072   15.2700   13.5018 H         1 13J         0.0251
     64 H           3.1279   16.6924   13.9366 H         1 13J         0.0251
     65 H           3.7221   15.5976   15.2093 H         1 13J         0.0251
     66 H           9.8041    6.2140   18.4302 H         1 13J         0.0500
     67 H           8.7867    4.9357   18.9566 H         1 13J         0.0500
     68 H           1.4099   15.3934   14.6905 H         1 13J         0.0428
     69 H           1.0525    4.9617   21.4805 H         1 13J         0.1842
     70 H           0.6710    3.7381   22.6964 H         1 13J         0.1842
     71 H           1.4127    9.0488   16.1691 H         1 13J         0.2231
@<TRIPOS>BOND
     1    3    1 ar 
     2    1    5 ar 
     3    2   16 ar 
     4   20    2 ar 
     5   20    3 ar 
     6   30    4 ar 
     7    4   31 ar 
     8   16    5 ar 
     9    5   29 1  
    10    7    6 1  
    11    6   23 1  
    12   25    7 1  
    13   18    8 ar 
    14    8   19 ar 
    15   19    9 1  
    16    9   36 am 
    17    9   37 2  
    18   10   17 ar 
    19   10   30 ar 
    20   33   10 1  
    21   11   28 1  
    22   34   11 am 
    23   11   38 2  
    24   29   12 1  
    25   14   13 ar 
    26   13   15 ar 
    27   18   14 ar 
    28   19   15 ar 
    29   17   21 1  
    30   17   22 ar 
    31   21   18 1  
    32   36   20 1  
    33   21   32 2  
    34   22   31 ar 
    35   22   35 1  
    36   34   23 1  
    37   25   24 1  
    38   24   34 1  
    39   25   33 1  
    40   28   26 1  
    41   29   27 1  
    42   32   33 1  
    43    1   39 1  
    44    2   40 1  
    45    3   41 1  
    46    4   42 1  
    47    6   43 1  
    48    6   44 1  
    49    7   45 1  
    50    7   46 1  
    51    8   47 1  
    52   12   48 1  
    53   12   49 1  
    54   12   50 1  
    55   13   51 1  
    56   14   52 1  
    57   15   53 1  
    58   16   54 1  
    59   23   55 1  
    60   23   56 1  
    61   24   57 1  
    62   24   58 1  
    63   25   59 1  
    64   26   60 1  
    65   26   61 1  
    66   26   62 1  
    67   27   63 1  
    68   27   64 1  
    69   27   65 1  
    70   28   66 1  
    71   28   67 1  
    72   29   68 1  
    73   35   69 1  
    74   35   70 1  
    75   36   71 1  
@<TRIPOS>SUBSTRUCTURE
     1 13J         1

