### 
### Created by X-TOOL on Mon Sep 10 21:13:12 2018
### 

@<TRIPOS>MOLECULE
4hdb_ligand
   82    86     1     0     0
SMALL
GAST_HUCK


@<TRIPOS>ATOM
      1 C2         21.0300   27.6650   14.9000 C.ar      1 G52         0.0908
      2 C3         19.6840   27.5730   14.5350 C.ar      1 G52        -0.0313
      3 C4         18.9260   26.4450   14.8310 C.ar      1 G52        -0.0440
      4 C5         19.5160   25.3650   15.4860 C.ar      1 G52         0.0971
      5 C6         20.8560   25.4570   15.8230 C.ar      1 G52        -0.0440
      6 C7         21.6360   26.5720   15.5270 C.ar      1 G52        -0.0313
      7 S8         18.5630   23.9480   15.9080 S.o2      1 G52         0.0657
      8 O9         17.4960   23.7720   14.8800 O.2       1 G52        -0.1515
      9 O10        19.4570   22.7590   16.0020 O.2       1 G52        -0.1515
     10 N11        17.8480   24.1840   17.3650 N.am      1 G52        -0.2325
     11 C12        18.7450   24.5520   18.4410 C.3       1 G52         0.0319
     12 C13        18.4390   23.8320   19.7640 C.3       1 G52        -0.0296
     13 C14        18.6640   22.3150   19.6690 C.3       1 G52        -0.0612
     14 C15        19.3600   24.3830   20.8690 C.3       1 G52        -0.0612
     15 C16        16.5980   24.9440   17.3420 C.3       1 G52         0.0578
     16 C17        15.4440   24.0910   17.8700 C.3       1 G52         0.0967
     17 O18        14.2780   24.8730   18.1490 O.3       1 G52        -0.3877
     18 C19        15.1030   22.9320   16.9310 C.3       1 G52         0.0807
     19 N20        14.1910   22.0130   17.6170 N.am      1 G52        -0.2550
     20 C21        14.4620   20.7510   17.9680 C.2       1 G52         0.3203
     21 O22        15.5690   20.2320   17.7750 O.2       1 G52        -0.3775
     22 O23        13.4200   20.0860   18.5320 O.3       1 G52        -0.2578
     23 C24        13.6860   18.7060   18.8020 C.3       1 G52         0.1192
     24 C25        13.2260   18.4400   20.2390 C.3       1 G52         0.0816
     25 O26        11.7990   18.2870   20.1790 O.3       1 G52        -0.3479
     26 C27        11.4400   17.9360   18.8510 C.3       1 G52         0.1682
     27 O28        10.6480   18.9880   18.3130 O.3       1 G52        -0.3222
     28 C29        11.1070   19.4040   17.0490 C.3       1 G52         0.1655
     29 C30        12.2810   18.5060   16.6670 C.3       1 G52         0.0225
     30 C31        12.6860   17.8570   17.9990 C.3       1 G52         0.0504
     31 C32        14.3960   23.4360   15.6700 C.3       1 G52         0.0064
     32 C33        12.7630   21.8300   14.5840 C.ar      1 G52        -0.0603
     33 C34        12.4740   20.7440   13.7590 C.ar      1 G52        -0.0686
     34 C35        13.4950   20.0750   13.0810 C.ar      1 G52        -0.0687
     35 C36        14.8010   20.5450   13.2060 C.ar      1 G52        -0.0686
     36 C37        15.0930   21.6200   14.0500 C.ar      1 G52        -0.0603
     37 C38        14.0750   22.2560   14.7450 C.ar      1 G52        -0.0408
     38 O39        21.6940   28.8250   14.6730 O.3       1 G52        -0.3212
     39 C40        23.0730   28.7310   15.0370 C.3       1 G52         0.0594
     40 O41        10.0890   19.1310   16.0790 O.3       1 G52        -0.3509
     41 C42        10.1530   17.7140   15.8480 C.3       1 G52         0.0511
     42 C43        11.6560   17.4990   15.7010 C.3       1 G52        -0.0214
     43 H1         19.2202   28.3997   14.0092 H         1 G52         0.0542
     44 H2         17.8790   26.4057   14.5530 H         1 G52         0.0608
     45 H3         21.3183   24.6240   16.3402 H         1 G52         0.0608
     46 H4         22.6905   26.5921   15.7773 H         1 G52         0.0542
     47 H5         18.6637   25.6363   18.6073 H         1 G52         0.0480
     48 H6         19.7729   24.3034   18.1385 H         1 G52         0.0480
     49 H7         17.3891   24.0205   20.0327 H         1 G52         0.0311
     50 H8         18.4320   21.8486   20.6378 H         1 G52         0.0233
     51 H9         19.7138   22.1156   19.4081 H         1 G52         0.0233
     52 H10        18.0072   21.8947   18.8932 H         1 G52         0.0233
     53 H11        19.2173   25.4702   20.9569 H         1 G52         0.0233
     54 H12        20.4083   24.1704   20.6125 H         1 G52         0.0233
     55 H13        19.1120   23.9021   21.8267 H         1 G52         0.0233
     56 H14        16.3789   25.2497   16.3083 H         1 G52         0.0504
     57 H15        16.7060   25.8380   17.9737 H         1 G52         0.0504
     58 H16        15.7786   23.6524   18.8216 H         1 G52         0.0634
     59 H17        13.9882   25.3026   17.3528 H         1 G52         0.2100
     60 H18        16.0274   22.4058   16.6507 H         1 G52         0.0604
     61 H19        13.2816   22.3616   17.8438 H         1 G52         0.1873
     62 H20        14.7364   18.4377   18.6160 H         1 G52         0.0675
     63 H21        13.4920   19.2874   20.8880 H         1 G52         0.0590
     64 H22        13.6924   17.5217   20.6253 H         1 G52         0.0590
     65 H23        10.8940   16.9812   18.8375 H         1 G52         0.0914
     66 H24        11.3879   20.4675   17.0562 H         1 G52         0.0913
     67 H25        13.1193   19.0487   16.2058 H         1 G52         0.0356
     68 H26        13.0515   16.8304   17.8488 H         1 G52         0.0383
     69 H27        15.0515   24.1448   15.1429 H         1 G52         0.0449
     70 H28        13.4613   23.9420   15.9534 H         1 G52         0.0449
     71 H29        11.9609   22.3437   15.1016 H         1 G52         0.0557
     72 H30        11.4474   20.4160   13.6428 H         1 G52         0.0599
     73 H31        13.2761   19.2071   12.4695 H         1 G52         0.0559
     74 H32        15.5979   20.0723   12.6433 H         1 G52         0.0599
     75 H33        16.1171   21.9574   14.1617 H         1 G52         0.0557
     76 H34        23.5713   29.6910   14.8368 H         1 G52         0.0577
     77 H35        23.5548   27.9377   14.4467 H         1 G52         0.0577
     78 H36        23.1542   28.4921   16.1077 H         1 G52         0.0577
     79 H37         9.6149   17.4313   14.9312 H         1 G52         0.0561
     80 H38         9.7475   17.1489   16.7002 H         1 G52         0.0561
     81 H39        11.9310   16.4708   15.9789 H         1 G52         0.0292
     82 H40        11.9784   17.6985   14.6684 H         1 G52         0.0292
@<TRIPOS>BOND
     1    2    1 ar 
     2    6    1 ar 
     3    1   38 1  
     4    3    2 ar 
     5    4    3 ar 
     6    4    5 ar 
     7    7    4 1  
     8    5    6 ar 
     9    7    8 2  
    10    7    9 2  
    11   10    7 am 
    12   10   11 1  
    13   15   10 1  
    14   11   12 1  
    15   12   13 1  
    16   12   14 1  
    17   16   15 1  
    18   16   17 1  
    19   18   16 1  
    20   18   19 1  
    21   31   18 1  
    22   19   20 am 
    23   20   21 2  
    24   20   22 1  
    25   22   23 1  
    26   23   24 1  
    27   23   30 1  
    28   24   25 1  
    29   26   25 1  
    30   26   27 1  
    31   30   26 1  
    32   28   27 1  
    33   29   28 1  
    34   28   40 1  
    35   30   29 1  
    36   29   42 1  
    37   37   31 1  
    38   32   33 ar 
    39   32   37 ar 
    40   33   34 ar 
    41   34   35 ar 
    42   35   36 ar 
    43   36   37 ar 
    44   38   39 1  
    45   40   41 1  
    46   41   42 1  
    47    2   43 1  
    48    3   44 1  
    49    5   45 1  
    50    6   46 1  
    51   11   47 1  
    52   11   48 1  
    53   12   49 1  
    54   13   50 1  
    55   13   51 1  
    56   13   52 1  
    57   14   53 1  
    58   14   54 1  
    59   14   55 1  
    60   15   56 1  
    61   15   57 1  
    62   16   58 1  
    63   17   59 1  
    64   18   60 1  
    65   19   61 1  
    66   23   62 1  
    67   24   63 1  
    68   24   64 1  
    69   26   65 1  
    70   28   66 1  
    71   29   67 1  
    72   30   68 1  
    73   31   69 1  
    74   31   70 1  
    75   32   71 1  
    76   33   72 1  
    77   34   73 1  
    78   35   74 1  
    79   36   75 1  
    80   39   76 1  
    81   39   77 1  
    82   39   78 1  
    83   41   79 1  
    84   41   80 1  
    85   42   81 1  
    86   42   82 1  
@<TRIPOS>SUBSTRUCTURE
     1 G52         1

