### 
### Created by X-TOOL on Mon Sep 10 21:13:11 2018
### 

@<TRIPOS>MOLECULE
4hdc_ligand
   69    72     1     0     0
SMALL
GAST_HUCK


@<TRIPOS>ATOM
      1 C2         18.6210   -0.5640    2.4550 C.ar      1 13Y         0.0328
      2 C4         16.8940   -1.8970    3.4450 C.ar      1 13Y        -0.0690
      3 C5         16.7960   -0.9630    4.4750 C.ar      1 13Y        -0.0281
      4 C6         17.6020    0.1850    4.4920 C.ar      1 13Y         0.1176
      5 CL1        19.6990   -0.2680    1.1600 Cl        1 13Y        -0.0734
      6 C3         17.8290   -1.7120    2.4440 C.ar      1 13Y        -0.0583
      7 C7         18.5180    0.3980    3.4600 C.ar      1 13Y        -0.0144
      8 O8         17.5220    1.1250    5.5080 O.3       1 13Y        -0.2563
      9 C9         16.3780    1.3980    6.1830 C.ar      1 13Y         0.1248
     10 C10        16.2260    1.0600    7.5540 C.ar      1 13Y         0.0364
     11 C11        15.0730    1.4670    8.2460 C.ar      1 13Y        -0.0613
     12 C12        14.0790    2.1610    7.5770 C.ar      1 13Y        -0.0615
     13 C13        14.2160    2.4820    6.2220 C.ar      1 13Y        -0.0005
     14 C14        15.3720    2.1060    5.5410 C.ar      1 13Y        -0.0182
     15 C15        13.1050    3.2740    5.5430 C.3       1 13Y         0.0121
     16 C16        13.4970    4.4440    4.6110 C.3       1 13Y         0.0030
     17 C17        14.5670    5.3970    5.1620 C.3       1 13Y        -0.0397
     18 C18        13.9860    6.3030    6.2570 C.3       1 13Y        -0.0623
     19 C19        15.1320    6.2240    3.9930 C.3       1 13Y        -0.0623
     20 N20        12.0210    2.4720    4.9330 N.4       1 13Y         0.2516
     21 C22        11.2720    1.6530    5.9370 C.3       1 13Y        -0.0300
     22 C23        10.0150    1.0550    5.3230 C.3       1 13Y        -0.0096
     23 C24        10.4220    0.1580    4.1430 C.3       1 13Y        -0.0132
     24 C25        11.2310    0.9840    3.1180 C.3       1 13Y         0.1120
     25 C26        12.4520    1.5940    3.8110 C.3       1 13Y         0.0003
     26 N27        11.6560    0.2370    1.9100 N.am      1 13Y        -0.1927
     27 C28        12.1810   -1.0400    2.0600 C.2       1 13Y         0.0503
     28 C29        12.6480   -1.7610    1.0180 C.2       1 13Y         0.0224
     29 C30        12.5800   -1.1770   -0.2990 C.2       1 13Y         0.1930
     30 O31        12.9330   -1.7420   -1.3510 O.2       1 13Y        -0.4079
     31 N32        12.0320    0.0910   -0.3460 N.am      1 13Y        -0.1860
     32 C34        11.5820    0.8330    0.6800 C.2       1 13Y         0.3248
     33 O35        11.1430    1.9600    0.5090 O.2       1 13Y        -0.3843
     34 C36        13.2110   -3.1470    1.1740 C.3       1 13Y        -0.0437
     35 C37        17.2580    0.2840    8.2620 C.2       1 13Y         0.0546
     36 O38        17.7370    0.6880    9.3270 O.co2     1 13Y        -0.5658
     37 O39        17.6370   -0.8650    7.7320 O.co2     1 13Y        -0.5658
     38 H1         16.2415   -2.7624    3.4291 H         1 13Y         0.0591
     39 H2         16.0848   -1.1265    5.2766 H         1 13Y         0.0555
     40 H3         17.9454   -2.4508    1.6593 H         1 13Y         0.0535
     41 H4         19.1343    1.2895    3.4402 H         1 13Y         0.0558
     42 H5         14.9620    1.2385    9.2998 H         1 13Y         0.0608
     43 H6         13.1833    2.4594    8.1097 H         1 13Y         0.0481
     44 H7         15.4870    2.3700    4.4959 H         1 13Y         0.0498
     45 H8         12.6187    3.7754    6.3927 H         1 13Y         0.1021
     46 H9         12.5908    5.0333    4.4071 H         1 13Y         0.0346
     47 H10        13.8756    4.0164    3.6709 H         1 13Y         0.0346
     48 H11        15.3811    4.8020    5.6016 H         1 13Y         0.0299
     49 H12        14.7723    6.9740    6.6331 H         1 13Y         0.0232
     50 H13        13.6069    5.6832    7.0829 H         1 13Y         0.0232
     51 H14        13.1626    6.9010    5.8395 H         1 13Y         0.0232
     52 H15        15.5393    5.5467    3.2279 H         1 13Y         0.0232
     53 H16        15.9316    6.8828    4.3626 H         1 13Y         0.0232
     54 H17        14.3288    6.8334    3.5531 H         1 13Y         0.0232
     55 H18        11.3684    3.1359    4.5465 H         1 13Y         0.2053
     56 H19        10.9884    2.2940    6.7848 H         1 13Y         0.0815
     57 H20        11.9206    0.8392    6.2934 H         1 13Y         0.0815
     58 H21         9.3579    1.8614    4.9655 H         1 13Y         0.0318
     59 H22         9.4835    0.4561    6.0771 H         1 13Y         0.0318
     60 H23         9.5189   -0.2424    3.6591 H         1 13Y         0.0298
     61 H24        11.0399   -0.6740    4.5118 H         1 13Y         0.0298
     62 H25        10.5830    1.8054    2.7783 H         1 13Y         0.0696
     63 H26        13.0873    0.7869    4.2046 H         1 13Y         0.0844
     64 H27        13.0235    2.1886    3.0831 H         1 13Y         0.0844
     65 H28        12.2175   -1.4770    3.0568 H         1 13Y         0.1010
     66 H29        11.9619    0.5064   -1.2530 H         1 13Y         0.2259
     67 H30        13.1886   -3.4345    2.2355 H         1 13Y         0.0296
     68 H31        14.2494   -3.1640    0.8114 H         1 13Y         0.0296
     69 H32        12.6068   -3.8562    0.5893 H         1 13Y         0.0296
@<TRIPOS>BOND
     1    1    5 1  
     2    6    1 ar 
     3    1    7 ar 
     4    2    3 ar 
     5    2    6 ar 
     6    3    4 ar 
     7    4    7 ar 
     8    4    8 1  
     9    8    9 1  
    10    9   10 ar 
    11    9   14 ar 
    12   10   11 ar 
    13   10   35 1  
    14   11   12 ar 
    15   12   13 ar 
    16   13   14 ar 
    17   13   15 1  
    18   15   16 1  
    19   15   20 1  
    20   16   17 1  
    21   17   18 1  
    22   17   19 1  
    23   20   21 1  
    24   20   25 1  
    25   21   22 1  
    26   22   23 1  
    27   23   24 1  
    28   24   25 1  
    29   24   26 1  
    30   26   27 1  
    31   26   32 am 
    32   27   28 2  
    33   28   29 1  
    34   28   34 1  
    35   29   30 2  
    36   29   31 am 
    37   31   32 am 
    38   32   33 2  
    39   35   36 ar 
    40   35   37 ar 
    41    2   38 1  
    42    3   39 1  
    43    6   40 1  
    44    7   41 1  
    45   11   42 1  
    46   12   43 1  
    47   14   44 1  
    48   15   45 1  
    49   16   46 1  
    50   16   47 1  
    51   17   48 1  
    52   18   49 1  
    53   18   50 1  
    54   18   51 1  
    55   19   52 1  
    56   19   53 1  
    57   19   54 1  
    58   20   55 1  
    59   21   56 1  
    60   21   57 1  
    61   22   58 1  
    62   22   59 1  
    63   23   60 1  
    64   23   61 1  
    65   24   62 1  
    66   25   63 1  
    67   25   64 1  
    68   27   65 1  
    69   31   66 1  
    70   34   67 1  
    71   34   68 1  
    72   34   69 1  
@<TRIPOS>SUBSTRUCTURE
     1 13Y         1

