### 
### Created by X-TOOL on Mon Sep 10 21:13:12 2018
### 

@<TRIPOS>MOLECULE
4hdf_ligand
   82    86     1     0     0
SMALL
GAST_HUCK


@<TRIPOS>ATOM
      1 C2         17.3440  -25.0320  -20.1770 C.ar      1 G52         0.0908
      2 C3         16.6590  -24.1100  -20.9620 C.ar      1 G52        -0.0313
      3 C4         15.6160  -23.3980  -20.3980 C.ar      1 G52        -0.0440
      4 C5         15.2450  -23.5790  -19.0990 C.ar      1 G52         0.0971
      5 C6         15.8580  -24.5610  -18.3570 C.ar      1 G52        -0.0440
      6 C7         16.9190  -25.2920  -18.8800 C.ar      1 G52        -0.0313
      7 S8         13.8870  -22.6750  -18.4650 S.o2      1 G52         0.0657
      8 O9         12.9560  -22.3180  -19.5670 O.2       1 G52        -0.1515
      9 O10        13.3130  -23.3510  -17.2930 O.2       1 G52        -0.1515
     10 N11        14.5110  -21.2620  -17.9140 N.am      1 G52        -0.2325
     11 C12        15.5500  -21.3750  -16.9410 C.3       1 G52         0.0319
     12 C13        15.4080  -20.3770  -15.7880 C.3       1 G52        -0.0296
     13 C14        14.0890  -20.5660  -15.0820 C.3       1 G52        -0.0612
     14 C15        16.5130  -20.6050  -14.7530 C.3       1 G52        -0.0612
     15 C16        14.6220  -20.1840  -18.8720 C.3       1 G52         0.0578
     16 C17        13.7540  -18.9970  -18.4620 C.3       1 G52         0.0967
     17 O18        14.2700  -17.8560  -19.1290 O.3       1 G52        -0.3877
     18 C19        12.2720  -19.2140  -18.7380 C.3       1 G52         0.0807
     19 N20        11.4380  -18.2080  -18.1220 N.am      1 G52        -0.2550
     20 C21        10.6470  -18.3210  -17.0610 C.2       1 G52         0.3203
     21 O22        10.5140  -19.3380  -16.3550 O.2       1 G52        -0.3775
     22 O23        10.0350  -17.1440  -16.7790 O.3       1 G52        -0.2578
     23 C24         9.0490  -17.1880  -15.7550 C.3       1 G52         0.1192
     24 C25         9.2800  -15.9470  -14.8790 C.3       1 G52         0.0816
     25 O26         8.6620  -14.8400  -15.5620 O.3       1 G52        -0.3479
     26 C27         7.6750  -15.3490  -16.4810 C.3       1 G52         0.1682
     27 O28         8.0220  -15.0660  -17.8460 O.3       1 G52        -0.3222
     28 C29         7.9000  -16.2290  -18.6620 C.3       1 G52         0.1655
     29 C30         7.4370  -17.3620  -17.7450 C.3       1 G52         0.0225
     30 C31         7.6500  -16.8580  -16.3280 C.3       1 G52         0.0504
     31 C32        11.8890  -19.2540  -20.2150 C.3       1 G52         0.0064
     32 C33         9.5660  -18.6340  -20.9620 C.ar      1 G52        -0.0603
     33 C34         8.2300  -18.9640  -21.0810 C.ar      1 G52        -0.0686
     34 C35         7.7040  -20.1660  -20.6090 C.ar      1 G52        -0.0687
     35 C36         8.5960  -21.1050  -20.1150 C.ar      1 G52        -0.0686
     36 C37         9.9260  -20.8060  -20.0060 C.ar      1 G52        -0.0603
     37 C38        10.4160  -19.5780  -20.4160 C.ar      1 G52        -0.0408
     38 O39        18.3880  -25.6440  -20.7780 O.3       1 G52        -0.3212
     39 C40        19.0720  -26.5220  -19.8860 C.3       1 G52         0.0594
     40 O41         6.8610  -16.0750  -19.6390 O.3       1 G52        -0.3509
     41 C42         5.6540  -16.3010  -18.8960 C.3       1 G52         0.0511
     42 C43         5.9820  -17.5690  -18.1300 C.3       1 G52        -0.0214
     43 H1         16.9379  -23.9524  -21.9976 H         1 G52         0.0542
     44 H2         15.0797  -22.6774  -21.0048 H         1 G52         0.0608
     45 H3         15.5097  -24.7679  -17.3515 H         1 G52         0.0608
     46 H4         17.4078  -26.0542  -18.2840 H         1 G52         0.0542
     47 H5         16.5153  -21.1995  -17.4383 H         1 G52         0.0480
     48 H6         15.5311  -22.3935  -16.5260 H         1 G52         0.0480
     49 H7         15.4739  -19.3535  -16.1856 H         1 G52         0.0311
     50 H8         14.0066  -19.8411  -14.2588 H         1 G52         0.0233
     51 H9         14.0324  -21.5875  -14.6780 H         1 G52         0.0233
     52 H10        13.2658  -20.4071  -15.7941 H         1 G52         0.0233
     53 H11        17.4953  -20.4756  -15.2309 H         1 G52         0.0233
     54 H12        16.4330  -21.6253  -14.3498 H         1 G52         0.0233
     55 H13        16.4047  -19.8779  -13.9348 H         1 G52         0.0233
     56 H14        14.2958  -20.5445  -19.8587 H         1 G52         0.0504
     57 H15        15.6715  -19.8596  -18.9287 H         1 G52         0.0504
     58 H16        13.8647  -18.8461  -17.3781 H         1 G52         0.0634
     59 H17        14.2291  -17.9940  -20.0680 H         1 G52         0.2100
     60 H18        12.0124  -20.1890  -18.2998 H         1 G52         0.0604
     61 H19        11.4591  -17.3055  -18.5521 H         1 G52         0.1873
     62 H20         9.0754  -18.1383  -15.2016 H         1 G52         0.0675
     63 H21        10.3578  -15.7638  -14.7572 H         1 G52         0.0590
     64 H22         8.8181  -16.0887  -13.8908 H         1 G52         0.0590
     65 H23         6.6905  -14.9171  -16.2483 H         1 G52         0.0914
     66 H24         8.8594  -16.4633  -19.1465 H         1 G52         0.0913
     67 H25         8.0103  -18.2870  -17.9052 H         1 G52         0.0356
     68 H26         6.8531  -17.2126  -15.6578 H         1 G52         0.0383
     69 H27        12.4932  -20.0238  -20.7173 H         1 G52         0.0449
     70 H28        12.1004  -18.2718  -20.6629 H         1 G52         0.0449
     71 H29         9.9355  -17.6677  -21.2857 H         1 G52         0.0557
     72 H30         7.5620  -18.2585  -21.5618 H         1 G52         0.0599
     73 H31         6.6375  -20.3589  -20.6277 H         1 G52         0.0559
     74 H32         8.2371  -22.0823  -19.8132 H         1 G52         0.0599
     75 H33        10.6065  -21.5415  -19.5924 H         1 G52         0.0557
     76 H34        19.9120  -26.9984  -20.4128 H         1 G52         0.0577
     77 H35        18.3770  -27.2961  -19.5286 H         1 G52         0.0577
     78 H36        19.4546  -25.9487  -19.0287 H         1 G52         0.0577
     79 H37         4.7950  -16.4511  -19.5665 H         1 G52         0.0561
     80 H38         5.4440  -15.4652  -18.2124 H         1 G52         0.0561
     81 H39         5.3463  -17.6687  -17.2379 H         1 G52         0.0292
     82 H40         5.8630  -18.4583  -18.7663 H         1 G52         0.0292
@<TRIPOS>BOND
     1    2    1 ar 
     2    6    1 ar 
     3    1   38 1  
     4    3    2 ar 
     5    4    3 ar 
     6    4    5 ar 
     7    7    4 1  
     8    5    6 ar 
     9    7    8 2  
    10    7    9 2  
    11   10    7 am 
    12   10   11 1  
    13   15   10 1  
    14   11   12 1  
    15   12   13 1  
    16   12   14 1  
    17   16   15 1  
    18   16   17 1  
    19   18   16 1  
    20   18   19 1  
    21   31   18 1  
    22   19   20 am 
    23   20   21 2  
    24   20   22 1  
    25   22   23 1  
    26   23   24 1  
    27   23   30 1  
    28   24   25 1  
    29   26   25 1  
    30   26   27 1  
    31   30   26 1  
    32   28   27 1  
    33   29   28 1  
    34   28   40 1  
    35   30   29 1  
    36   29   42 1  
    37   37   31 1  
    38   32   33 ar 
    39   32   37 ar 
    40   33   34 ar 
    41   34   35 ar 
    42   35   36 ar 
    43   36   37 ar 
    44   38   39 1  
    45   40   41 1  
    46   41   42 1  
    47    2   43 1  
    48    3   44 1  
    49    5   45 1  
    50    6   46 1  
    51   11   47 1  
    52   11   48 1  
    53   12   49 1  
    54   13   50 1  
    55   13   51 1  
    56   13   52 1  
    57   14   53 1  
    58   14   54 1  
    59   14   55 1  
    60   15   56 1  
    61   15   57 1  
    62   16   58 1  
    63   17   59 1  
    64   18   60 1  
    65   19   61 1  
    66   23   62 1  
    67   24   63 1  
    68   24   64 1  
    69   26   65 1  
    70   28   66 1  
    71   29   67 1  
    72   30   68 1  
    73   31   69 1  
    74   31   70 1  
    75   32   71 1  
    76   33   72 1  
    77   34   73 1  
    78   35   74 1  
    79   36   75 1  
    80   39   76 1  
    81   39   77 1  
    82   39   78 1  
    83   41   79 1  
    84   41   80 1  
    85   42   81 1  
    86   42   82 1  
@<TRIPOS>SUBSTRUCTURE
     1 G52         1

