### 
### Created by X-TOOL on Mon Sep 10 21:13:12 2018
### 

@<TRIPOS>MOLECULE
4hdp_ligand
   82    86     1     0     0
SMALL
GAST_HUCK


@<TRIPOS>ATOM
      1 C2        -17.2540   24.9080  -20.2510 C.ar      1 G52         0.0908
      2 C3        -16.4880   24.0820  -21.0780 C.ar      1 G52        -0.0313
      3 C4        -15.4070   23.3140  -20.6100 C.ar      1 G52        -0.0440
      4 C5        -15.0140   23.5160  -19.2830 C.ar      1 G52         0.0971
      5 C6        -15.6730   24.4350  -18.5180 C.ar      1 G52        -0.0440
      6 C7        -16.7460   25.1980  -18.9810 C.ar      1 G52        -0.0313
      7 S8        -13.7030   22.5840  -18.5840 S.o2      1 G52         0.0657
      8 O9        -12.8120   22.1600  -19.6690 O.2       1 G52        -0.1515
      9 O10       -13.0730   23.3180  -17.4990 O.2       1 G52        -0.1515
     10 N11       -14.3170   21.2050  -17.9160 N.am      1 G52        -0.2325
     11 C12       -15.3260   21.4500  -16.9080 C.3       1 G52         0.0319
     12 C13       -15.3280   20.3740  -15.8110 C.3       1 G52        -0.0296
     13 C14       -14.0010   20.4110  -15.0660 C.3       1 G52        -0.0612
     14 C15       -16.4290   20.7680  -14.8130 C.3       1 G52        -0.0612
     15 C16       -14.5100   20.0520  -18.7950 C.3       1 G52         0.0578
     16 C17       -13.6010   18.8910  -18.4080 C.3       1 G52         0.0967
     17 O18       -14.0640   17.7250  -19.1040 O.3       1 G52        -0.3877
     18 C19       -12.1180   19.0830  -18.6990 C.3       1 G52         0.0807
     19 N20       -11.3430   18.0370  -18.0500 N.am      1 G52        -0.2550
     20 C21       -10.6090   18.1370  -16.9440 C.2       1 G52         0.3203
     21 O22       -10.5420   19.1240  -16.2070 O.2       1 G52        -0.3775
     22 O23        -9.9550   16.9890  -16.6920 O.3       1 G52        -0.2578
     23 C24        -8.9890   16.9880  -15.6380 C.3       1 G52         0.1192
     24 C25        -9.2460   15.7290  -14.7990 C.3       1 G52         0.0816
     25 O26        -8.5850   14.6310  -15.4580 O.3       1 G52        -0.3479
     26 C27        -7.6520   15.1600  -16.3850 C.3       1 G52         0.1682
     27 O28        -8.0800   14.8920  -17.7670 O.3       1 G52        -0.3222
     28 C29        -7.8270   16.0110  -18.5640 C.3       1 G52         0.1655
     29 C30        -7.3710   17.1620  -17.6640 C.3       1 G52         0.0225
     30 C31        -7.5900   16.6600  -16.2260 C.3       1 G52         0.0504
     31 C32       -11.7730   19.1950  -20.1880 C.3       1 G52         0.0064
     32 C33        -9.4280   18.5000  -20.7730 C.ar      1 G52        -0.0603
     33 C34        -8.0610   18.7240  -20.7950 C.ar      1 G52        -0.0686
     34 C35        -7.5690   20.0060  -20.4830 C.ar      1 G52        -0.0687
     35 C36        -8.4380   21.0050  -20.1140 C.ar      1 G52        -0.0686
     36 C37        -9.7930   20.7630  -20.0420 C.ar      1 G52        -0.0603
     37 C38       -10.2860   19.5030  -20.3560 C.ar      1 G52        -0.0408
     38 O39       -18.2660   25.5430  -20.8520 O.3       1 G52        -0.3212
     39 C40       -18.9600   26.4280  -19.9650 C.3       1 G52         0.0594
     40 O41        -6.7800   15.7690  -19.4990 O.3       1 G52        -0.3509
     41 C42        -5.5630   15.9820  -18.7660 C.3       1 G52         0.0511
     42 C43        -5.8830   17.2890  -18.0450 C.3       1 G52        -0.0214
     43 H1        -16.7393   24.0308  -22.1312 H         1 G52         0.0542
     44 H2        -14.9016   22.5984  -21.2483 H         1 G52         0.0608
     45 H3        -15.3449   24.5800  -17.4951 H         1 G52         0.0608
     46 H4        -17.1718   25.9899  -18.3755 H         1 G52         0.0542
     47 H5        -16.3137   21.4634  -17.3921 H         1 G52         0.0480
     48 H6        -15.1319   22.4281  -16.4436 H         1 G52         0.0480
     49 H7        -15.5103   19.3763  -16.2368 H         1 G52         0.0311
     50 H8        -14.0002   19.6414  -14.2801 H         1 G52         0.0233
     51 H9        -13.8647   21.4021  -14.6087 H         1 G52         0.0233
     52 H10       -13.1792   20.2161  -15.7708 H         1 G52         0.0233
     53 H11       -17.4055   20.7518  -15.3191 H         1 G52         0.0233
     54 H12       -16.2314   21.7799  -14.4297 H         1 G52         0.0233
     55 H13       -16.4379   20.0541  -13.9762 H         1 G52         0.0233
     56 H14       -14.2860   20.3508  -19.8297 H         1 G52         0.0504
     57 H15       -15.5574   19.7229  -18.7269 H         1 G52         0.0504
     58 H16       -13.7068   18.7298  -17.3250 H         1 G52         0.0634
     59 H17       -14.0233   17.8796  -20.0405 H         1 G52         0.2100
     60 H18       -11.8267   20.0390  -18.2394 H         1 G52         0.0604
     61 H19       -11.3641   17.1372  -18.4858 H         1 G52         0.1873
     62 H20        -9.0096   17.9217  -15.0569 H         1 G52         0.0675
     63 H21       -10.3266   15.5337  -14.7349 H         1 G52         0.0590
     64 H22        -8.8367   15.8615  -13.7866 H         1 G52         0.0590
     65 H23        -6.6620   14.7157  -16.2050 H         1 G52         0.0914
     66 H24        -8.7452   16.2894  -19.1019 H         1 G52         0.0913
     67 H25        -7.9178   18.0996  -17.8425 H         1 G52         0.0356
     68 H26        -6.7846   17.0013  -15.5591 H         1 G52         0.0383
     69 H27       -12.3662   20.0036  -20.6399 H         1 G52         0.0449
     70 H28       -12.0073   18.2442  -20.6891 H         1 G52         0.0449
     71 H29        -9.8254   17.5400  -21.0821 H         1 G52         0.0557
     72 H30        -7.3780   17.9216  -21.0495 H         1 G52         0.0599
     73 H31        -6.5046   20.2051  -20.5338 H         1 G52         0.0559
     74 H32        -8.0546   21.9910  -19.8777 H         1 G52         0.0599
     75 H33       -10.4715   21.5532  -19.7414 H         1 G52         0.0557
     76 H34       -19.7792   26.9227  -20.5074 H         1 G52         0.0577
     77 H35       -18.2614   27.1875  -19.5840 H         1 G52         0.0577
     78 H36       -19.3725   25.8536  -19.1224 H         1 G52         0.0577
     79 H37        -4.7000   16.0927  -19.4390 H         1 G52         0.0561
     80 H38        -5.3712   15.1649  -18.0550 H         1 G52         0.0561
     81 H39        -5.2591   17.4004  -17.1460 H         1 G52         0.0292
     82 H40        -5.7238   18.1499  -18.7109 H         1 G52         0.0292
@<TRIPOS>BOND
     1    2    1 ar 
     2    6    1 ar 
     3    1   38 1  
     4    3    2 ar 
     5    4    3 ar 
     6    4    5 ar 
     7    7    4 1  
     8    5    6 ar 
     9    7    8 2  
    10    7    9 2  
    11   10    7 am 
    12   10   11 1  
    13   15   10 1  
    14   11   12 1  
    15   12   13 1  
    16   12   14 1  
    17   16   15 1  
    18   16   17 1  
    19   18   16 1  
    20   18   19 1  
    21   31   18 1  
    22   19   20 am 
    23   20   21 2  
    24   20   22 1  
    25   22   23 1  
    26   23   24 1  
    27   23   30 1  
    28   24   25 1  
    29   26   25 1  
    30   26   27 1  
    31   30   26 1  
    32   28   27 1  
    33   29   28 1  
    34   28   40 1  
    35   30   29 1  
    36   29   42 1  
    37   37   31 1  
    38   32   33 ar 
    39   32   37 ar 
    40   33   34 ar 
    41   34   35 ar 
    42   35   36 ar 
    43   36   37 ar 
    44   38   39 1  
    45   40   41 1  
    46   41   42 1  
    47    2   43 1  
    48    3   44 1  
    49    5   45 1  
    50    6   46 1  
    51   11   47 1  
    52   11   48 1  
    53   12   49 1  
    54   13   50 1  
    55   13   51 1  
    56   13   52 1  
    57   14   53 1  
    58   14   54 1  
    59   14   55 1  
    60   15   56 1  
    61   15   57 1  
    62   16   58 1  
    63   17   59 1  
    64   18   60 1  
    65   19   61 1  
    66   23   62 1  
    67   24   63 1  
    68   24   64 1  
    69   26   65 1  
    70   28   66 1  
    71   29   67 1  
    72   30   68 1  
    73   31   69 1  
    74   31   70 1  
    75   32   71 1  
    76   33   72 1  
    77   34   73 1  
    78   35   74 1  
    79   36   75 1  
    80   39   76 1  
    81   39   77 1  
    82   39   78 1  
    83   41   79 1  
    84   41   80 1  
    85   42   81 1  
    86   42   82 1  
@<TRIPOS>SUBSTRUCTURE
     1 G52         1

