### 
### Created by X-TOOL on Mon Sep 10 21:13:12 2018
### 

@<TRIPOS>MOLECULE
4he9_ligand
   82    86     1     0     0
SMALL
GAST_HUCK


@<TRIPOS>ATOM
      1 C2          8.3080   15.3370   14.9380 C.ar      1 G52         0.0908
      2 C3          9.6530   15.3950   14.5540 C.ar      1 G52        -0.0313
      3 C4         10.4320   16.5000   14.8660 C.ar      1 G52        -0.0440
      4 C5          9.8430   17.5880   15.5070 C.ar      1 G52         0.0971
      5 C6          8.4970   17.5560   15.8200 C.ar      1 G52        -0.0440
      6 C7          7.7060   16.4640   15.4950 C.ar      1 G52        -0.0313
      7 S8         10.8020   18.9720   16.0090 S.o2      1 G52         0.0657
      8 O9         11.8750   19.0450   14.9890 O.2       1 G52        -0.1515
      9 O10         9.9150   20.0830   16.1790 O.2       1 G52        -0.1515
     10 N11        11.5020   18.6420   17.4340 N.am      1 G52        -0.2325
     11 C12        10.5790   18.3540   18.5290 C.3       1 G52         0.0319
     12 C13        11.0160   18.9810   19.8740 C.3       1 G52        -0.0296
     13 C14        11.0730   20.5050   19.7550 C.3       1 G52        -0.0612
     14 C15         9.9660   18.5810   20.9330 C.3       1 G52        -0.0612
     15 C16        12.7840   17.9610   17.4770 C.3       1 G52         0.0578
     16 C17        13.9540   18.8180   17.9070 C.3       1 G52         0.0967
     17 O18        15.0880   18.0310   18.2470 O.3       1 G52        -0.3877
     18 C19        14.3530   19.9380   16.9840 C.3       1 G52         0.0807
     19 N20        15.2330   20.8720   17.6470 N.am      1 G52        -0.2550
     20 C21        14.9560   22.1310   17.9930 C.2       1 G52         0.3203
     21 O22        13.8730   22.7250   17.7450 O.2       1 G52        -0.3775
     22 O23        15.9820   22.7100   18.6510 O.3       1 G52        -0.2578
     23 C24        15.8370   24.1290   18.9750 C.3       1 G52         0.1192
     24 C25        16.4180   24.2980   20.3790 C.3       1 G52         0.0816
     25 O26        17.8260   24.3740   20.1950 O.3       1 G52        -0.3479
     26 C27        18.1400   24.7690   18.9080 C.3       1 G52         0.1682
     27 O28        18.8490   23.7650   18.2340 O.3       1 G52        -0.3222
     28 C29        18.2880   23.4430   16.9810 C.3       1 G52         0.1655
     29 C30        17.1180   24.3830   16.7600 C.3       1 G52         0.0225
     30 C31        16.8510   24.9520   18.1400 C.3       1 G52         0.0504
     31 C32        15.0180   19.4710   15.6940 C.3       1 G52         0.0064
     32 C33        16.5750   21.1730   14.6210 C.ar      1 G52        -0.0603
     33 C34        16.7800   22.2650   13.8220 C.ar      1 G52        -0.0686
     34 C35        15.7180   22.8620   13.1840 C.ar      1 G52        -0.0687
     35 C36        14.4140   22.3640   13.2670 C.ar      1 G52        -0.0686
     36 C37        14.2170   21.2840   14.0870 C.ar      1 G52        -0.0603
     37 C38        15.2730   20.6830   14.7850 C.ar      1 G52        -0.0408
     38 O39         7.6770   14.1580   14.7410 O.3       1 G52        -0.3212
     39 C40         6.2950   14.1360   15.0080 C.3       1 G52         0.0594
     40 O41        19.2580   23.6630   15.9620 O.3       1 G52        -0.3509
     41 C42        19.2020   25.0940   15.8560 C.3       1 G52         0.0511
     42 C43        17.7130   25.4100   15.7750 C.3       1 G52        -0.0214
     43 H1         10.0906   14.5677   14.0070 H         1 G52         0.0542
     44 H2         11.4862   16.5167   14.6141 H         1 G52         0.0608
     45 H3          8.0504   18.4019   16.3300 H         1 G52         0.0608
     46 H4          6.6367   16.4867   15.6714 H         1 G52         0.0542
     47 H5         10.5161   17.2631   18.6557 H         1 G52         0.0480
     48 H6          9.5876   18.7502   18.2642 H         1 G52         0.0480
     49 H7         12.0063   18.5984   20.1618 H         1 G52         0.0311
     50 H8         11.3847   20.9365   20.7176 H         1 G52         0.0233
     51 H9         10.0780   20.8893   19.4860 H         1 G52         0.0233
     52 H10        11.7973   20.7851   18.9759 H         1 G52         0.0233
     53 H11         9.9279   17.4848   21.0157 H         1 G52         0.0233
     54 H12         8.9784   18.9605   20.6318 H         1 G52         0.0233
     55 H13        10.2436   19.0127   21.9059 H         1 G52         0.0233
     56 H14        12.9977   17.5738   16.4698 H         1 G52         0.0504
     57 H15        12.6999   17.1212   18.1824 H         1 G52         0.0504
     58 H16        13.6254   19.3075   18.8356 H         1 G52         0.0634
     59 H17        15.3542   17.5186   17.4926 H         1 G52         0.2100
     60 H18        13.4322   20.4726   16.7078 H         1 G52         0.0604
     61 H19        16.1490   20.5393   17.8711 H         1 G52         0.1873
     62 H20        14.7993   24.4791   18.8717 H         1 G52         0.0675
     63 H21        16.1578   23.4355   21.0102 H         1 G52         0.0590
     64 H22        16.0398   25.2202   20.8442 H         1 G52         0.0590
     65 H23        18.7219   25.7022   18.9316 H         1 G52         0.0914
     66 H24        17.9519   22.3957   16.9656 H         1 G52         0.0913
     67 H25        16.2243   23.8922   16.3472 H         1 G52         0.0356
     68 H26        16.5419   26.0053   18.0694 H         1 G52         0.0383
     69 H27        14.3585   18.7576   15.1783 H         1 G52         0.0449
     70 H28        15.9744   18.9815   15.9302 H         1 G52         0.0449
     71 H29        17.4092   20.6936   15.1204 H         1 G52         0.0557
     72 H30        17.7810   22.6600   13.6918 H         1 G52         0.0599
     73 H31        15.8988   23.7532   12.5939 H         1 G52         0.0559
     74 H32        13.5985   22.8106   12.7097 H         1 G52         0.0599
     75 H33        13.2160   20.8832   14.1989 H         1 G52         0.0557
     76 H34         5.8996   13.1286   14.8113 H         1 G52         0.0577
     77 H35         5.7846   14.8633   14.3595 H         1 G52         0.0577
     78 H36         6.1209   14.3989   16.0618 H         1 G52         0.0577
     79 H37        19.7227   25.4379   14.9502 H         1 G52         0.0561
     80 H38        19.6529   25.5678   16.7404 H         1 G52         0.0561
     81 H39        17.5044   26.4410   16.0968 H         1 G52         0.0292
     82 H40        17.3264   25.2585   14.7564 H         1 G52         0.0292
@<TRIPOS>BOND
     1    2    1 ar 
     2    6    1 ar 
     3    1   38 1  
     4    3    2 ar 
     5    4    3 ar 
     6    4    5 ar 
     7    7    4 1  
     8    5    6 ar 
     9    7    8 2  
    10    7    9 2  
    11   10    7 am 
    12   10   11 1  
    13   15   10 1  
    14   11   12 1  
    15   12   13 1  
    16   12   14 1  
    17   16   15 1  
    18   16   17 1  
    19   18   16 1  
    20   18   19 1  
    21   31   18 1  
    22   19   20 am 
    23   20   21 2  
    24   20   22 1  
    25   22   23 1  
    26   23   24 1  
    27   23   30 1  
    28   24   25 1  
    29   26   25 1  
    30   26   27 1  
    31   30   26 1  
    32   28   27 1  
    33   29   28 1  
    34   28   40 1  
    35   30   29 1  
    36   29   42 1  
    37   37   31 1  
    38   32   33 ar 
    39   32   37 ar 
    40   33   34 ar 
    41   34   35 ar 
    42   35   36 ar 
    43   36   37 ar 
    44   38   39 1  
    45   40   41 1  
    46   41   42 1  
    47    2   43 1  
    48    3   44 1  
    49    5   45 1  
    50    6   46 1  
    51   11   47 1  
    52   11   48 1  
    53   12   49 1  
    54   13   50 1  
    55   13   51 1  
    56   13   52 1  
    57   14   53 1  
    58   14   54 1  
    59   14   55 1  
    60   15   56 1  
    61   15   57 1  
    62   16   58 1  
    63   17   59 1  
    64   18   60 1  
    65   19   61 1  
    66   23   62 1  
    67   24   63 1  
    68   24   64 1  
    69   26   65 1  
    70   28   66 1  
    71   29   67 1  
    72   30   68 1  
    73   31   69 1  
    74   31   70 1  
    75   32   71 1  
    76   33   72 1  
    77   34   73 1  
    78   35   74 1  
    79   36   75 1  
    80   39   76 1  
    81   39   77 1  
    82   39   78 1  
    83   41   79 1  
    84   41   80 1  
    85   42   81 1  
    86   42   82 1  
@<TRIPOS>SUBSTRUCTURE
     1 G52         1

