### 
### Created by X-TOOL on Mon Sep 10 21:13:12 2018
### 

@<TRIPOS>MOLECULE
4heg_ligand
   82    86     1     0     0
SMALL
GAST_HUCK


@<TRIPOS>ATOM
      1 C2        -17.1880  -24.9920   20.0570 C.ar      1 G52         0.0908
      2 C3        -16.4290  -24.1480   20.8690 C.ar      1 G52        -0.0313
      3 C4        -15.3570  -23.4220   20.3750 C.ar      1 G52        -0.0440
      4 C5        -14.9840  -23.5920   19.0640 C.ar      1 G52         0.0971
      5 C6        -15.6740  -24.4960   18.2730 C.ar      1 G52        -0.0440
      6 C7        -16.7490  -25.2360   18.7670 C.ar      1 G52        -0.0313
      7 S8        -13.6540  -22.6550   18.4150 S.o2      1 G52         0.0657
      8 O9        -12.6980  -22.2680   19.5030 O.2       1 G52        -0.1515
      9 O10       -13.0050  -23.3820   17.3170 O.2       1 G52        -0.1515
     10 N11       -14.2430  -21.2570   17.7800 N.am      1 G52        -0.2325
     11 C12       -15.3470  -21.4120   16.8590 C.3       1 G52         0.0319
     12 C13       -15.2960  -20.4400   15.6730 C.3       1 G52        -0.0296
     13 C14       -13.9670  -20.5070   14.9160 C.3       1 G52        -0.0612
     14 C15       -16.3980  -20.8070   14.6510 C.3       1 G52        -0.0612
     15 C16       -14.4210  -20.2080   18.7820 C.3       1 G52         0.0578
     16 C17       -13.5890  -19.0000   18.3810 C.3       1 G52         0.0967
     17 O18       -14.0640  -17.8150   19.0290 O.3       1 G52        -0.3877
     18 C19       -12.1010  -19.2340   18.6100 C.3       1 G52         0.0807
     19 N20       -11.3190  -18.1920   17.9620 N.am      1 G52        -0.2550
     20 C21       -10.5230  -18.2750   16.8970 C.2       1 G52         0.3203
     21 O22       -10.3330  -19.2820   16.1980 O.2       1 G52        -0.3775
     22 O23        -9.8900  -17.1060   16.6150 O.3       1 G52        -0.2578
     23 C24        -8.9320  -17.1460   15.5560 C.3       1 G52         0.1192
     24 C25        -9.1640  -15.8920   14.7100 C.3       1 G52         0.0816
     25 O26        -8.5050  -14.8250   15.3920 O.3       1 G52        -0.3479
     26 C27        -7.4510  -15.3400   16.2080 C.3       1 G52         0.1682
     27 O28        -7.7430  -15.0080   17.5700 O.3       1 G52        -0.3222
     28 C29        -7.7160  -16.1470   18.4040 C.3       1 G52         0.1655
     29 C30        -7.3000  -17.3290   17.5290 C.3       1 G52         0.0225
     30 C31        -7.5230  -16.8530   16.1010 C.3       1 G52         0.0504
     31 C32       -11.7530  -19.2700   20.1010 C.3       1 G52         0.0064
     32 C33        -9.4430  -18.5220   20.7390 C.ar      1 G52        -0.0603
     33 C34        -8.0870  -18.7650   20.8140 C.ar      1 G52        -0.0686
     34 C35        -7.5780  -19.9990   20.4380 C.ar      1 G52        -0.0687
     35 C36        -8.4250  -21.0540   20.1250 C.ar      1 G52        -0.0686
     36 C37        -9.7810  -20.8160   20.0130 C.ar      1 G52        -0.0603
     37 C38       -10.2700  -19.5520   20.2990 C.ar      1 G52        -0.0408
     38 O39       -18.2190  -25.6270   20.6540 O.3       1 G52        -0.3212
     39 C40       -19.0440  -26.3760   19.7690 C.3       1 G52         0.0594
     40 O41        -6.7030  -16.0380   19.4070 O.3       1 G52        -0.3509
     41 C42        -5.4810  -16.2230   18.7000 C.3       1 G52         0.0511
     42 C43        -5.8010  -17.4430   17.8570 C.3       1 G52        -0.0214
     43 H1        -16.6859  -24.0576   21.9182 H         1 G52         0.0542
     44 H2        -14.8205  -22.7299   21.0140 H         1 G52         0.0608
     45 H3        -15.3703  -24.6324   17.2414 H         1 G52         0.0608
     46 H4        -17.2311  -25.9876   18.1523 H         1 G52         0.0542
     47 H5        -16.2849  -21.2423   17.4081 H         1 G52         0.0480
     48 H6        -15.3321  -22.4399   16.4675 H         1 G52         0.0480
     49 H7        -15.4537  -19.4173   16.0460 H         1 G52         0.0311
     50 H8        -13.9851  -19.7928   14.0796 H         1 G52         0.0233
     51 H9        -13.8180  -21.5247   14.5260 H         1 G52         0.0233
     52 H10       -13.1430  -20.2515   15.5984 H         1 G52         0.0233
     53 H11       -17.3808  -20.7746   15.1440 H         1 G52         0.0233
     54 H12       -16.2157  -21.8201   14.2631 H         1 G52         0.0233
     55 H13       -16.3811  -20.0873   13.8193 H         1 G52         0.0233
     56 H14       -14.0896  -20.5753   19.7645 H         1 G52         0.0504
     57 H15       -15.4824  -19.9243   18.8355 H         1 G52         0.0504
     58 H16       -13.7268  -18.8543   17.2995 H         1 G52         0.0634
     59 H17       -14.0079  -17.9263   19.9708 H         1 G52         0.2100
     60 H18       -11.8332  -20.2044   18.1665 H         1 G52         0.0604
     61 H19       -11.3891  -17.2840   18.3750 H         1 G52         0.1873
     62 H20        -8.9887  -18.0854   14.9866 H         1 G52         0.0675
     63 H21       -10.2406  -15.6830   14.6249 H         1 G52         0.0590
     64 H22        -8.7357  -16.0248   13.7056 H         1 G52         0.0590
     65 H23        -6.4697  -14.9521   15.8973 H         1 G52         0.0914
     66 H24        -8.7021  -16.3097   18.8636 H         1 G52         0.0913
     67 H25        -7.8497  -18.2576   17.7423 H         1 G52         0.0356
     68 H26        -6.7565  -17.2664   15.4290 H         1 G52         0.0383
     69 H27       -12.3398  -20.0615   20.5901 H         1 G52         0.0449
     70 H28       -11.9996  -18.2981   20.5533 H         1 G52         0.0449
     71 H29        -9.8527  -17.5570   21.0147 H         1 G52         0.0557
     72 H30        -7.4176  -17.9892   21.1678 H         1 G52         0.0599
     73 H31        -6.5046  -20.1419   20.3878 H         1 G52         0.0559
     74 H32        -8.0275  -22.0506   19.9707 H         1 G52         0.0599
     75 H33       -10.4538  -21.6082   19.7052 H         1 G52         0.0557
     76 H34       -19.8527  -26.8560   20.3396 H         1 G52         0.0577
     77 H35       -18.4399  -27.1476   19.2693 H         1 G52         0.0577
     78 H36       -19.4772  -25.7034   19.0140 H         1 G52         0.0577
     79 H37        -4.6446  -16.4177   19.3874 H         1 G52         0.0561
     80 H38        -5.2442  -15.3515   18.0719 H         1 G52         0.0561
     81 H39        -5.2034  -17.4405   16.9335 H         1 G52         0.0292
     82 H40        -5.5993  -18.3651   18.4219 H         1 G52         0.0292
@<TRIPOS>BOND
     1    2    1 ar 
     2    6    1 ar 
     3    1   38 1  
     4    3    2 ar 
     5    4    3 ar 
     6    4    5 ar 
     7    7    4 1  
     8    5    6 ar 
     9    7    8 2  
    10    7    9 2  
    11   10    7 am 
    12   10   11 1  
    13   15   10 1  
    14   11   12 1  
    15   12   13 1  
    16   12   14 1  
    17   16   15 1  
    18   16   17 1  
    19   18   16 1  
    20   18   19 1  
    21   31   18 1  
    22   19   20 am 
    23   20   21 2  
    24   20   22 1  
    25   22   23 1  
    26   23   24 1  
    27   23   30 1  
    28   24   25 1  
    29   26   25 1  
    30   26   27 1  
    31   30   26 1  
    32   28   27 1  
    33   29   28 1  
    34   28   40 1  
    35   30   29 1  
    36   29   42 1  
    37   37   31 1  
    38   32   33 ar 
    39   32   37 ar 
    40   33   34 ar 
    41   34   35 ar 
    42   35   36 ar 
    43   36   37 ar 
    44   38   39 1  
    45   40   41 1  
    46   41   42 1  
    47    2   43 1  
    48    3   44 1  
    49    5   45 1  
    50    6   46 1  
    51   11   47 1  
    52   11   48 1  
    53   12   49 1  
    54   13   50 1  
    55   13   51 1  
    56   13   52 1  
    57   14   53 1  
    58   14   54 1  
    59   14   55 1  
    60   15   56 1  
    61   15   57 1  
    62   16   58 1  
    63   17   59 1  
    64   18   60 1  
    65   19   61 1  
    66   23   62 1  
    67   24   63 1  
    68   24   64 1  
    69   26   65 1  
    70   28   66 1  
    71   29   67 1  
    72   30   68 1  
    73   31   69 1  
    74   31   70 1  
    75   32   71 1  
    76   33   72 1  
    77   34   73 1  
    78   35   74 1  
    79   36   75 1  
    80   39   76 1  
    81   39   77 1  
    82   39   78 1  
    83   41   79 1  
    84   41   80 1  
    85   42   81 1  
    86   42   82 1  
@<TRIPOS>SUBSTRUCTURE
     1 G52         1

