### 
### Created by X-TOOL on Mon Sep 10 21:13:10 2018
### 

@<TRIPOS>MOLECULE
4hej_ligand
   58    61     1     0     0
SMALL
GAST_HUCK


@<TRIPOS>ATOM
      1 C1         12.0210   -3.6210    1.0730 C.3       1 14D        -0.0437
      2 C2         11.4890   -2.2390    0.9260 C.2       1 14D         0.0224
      3 C3         11.0490   -1.5350    1.9670 C.2       1 14D         0.0503
      4 N1         10.5530   -0.2600    1.8270 N.am      1 14D        -0.1927
      5 C4         10.5260    0.3780    0.5950 C.2       1 14D         0.3248
      6 O1         10.1830    1.5530    0.4900 O.2       1 14D        -0.3843
      7 N2         10.9020   -0.3320   -0.4830 N.am      1 14D        -0.1860
      8 C5         11.4090   -1.5830   -0.4140 C.2       1 14D         0.1930
      9 O2         11.8020   -2.1860   -1.4120 O.2       1 14D        -0.4079
     10 C6         10.0680    0.4530    3.0050 C.3       1 14D         0.1120
     11 C7          9.1670   -0.3900    3.9170 C.3       1 14D        -0.0132
     12 C8          8.6640    0.4130    5.1000 C.3       1 14D        -0.0096
     13 C9          9.8360    0.9590    5.8930 C.3       1 14D        -0.0303
     14 N3         10.6450    1.8310    4.9800 N.4       1 14D         0.2491
     15 C10        11.1830    1.1650    3.7490 C.3       1 14D         0.0000
     16 C11        11.6260    2.7310    5.6730 C.3       1 14D        -0.0003
     17 C12        12.8470    2.0370    6.1960 C.ar      1 14D        -0.0065
     18 C13        12.8810    1.5860    7.5050 C.ar      1 14D        -0.0657
     19 C14        13.9880    0.9260    7.9930 C.ar      1 14D        -0.0760
     20 C15        15.0850    0.7290    7.1740 C.ar      1 14D        -0.0354
     21 C16        15.0440    1.1660    5.8640 C.ar      1 14D         0.1103
     22 C17        13.9390    1.8300    5.3730 C.ar      1 14D        -0.0226
     23 O3         16.1520    0.9850    5.0490 O.3       1 14D        -0.2527
     24 C18        16.2060   -0.1230    4.2200 C.ar      1 14D         0.1441
     25 C19        15.3830   -1.2350    4.3050 C.ar      1 14D         0.0010
     26 C20        15.5570   -2.2880    3.4220 C.ar      1 14D        -0.0382
     27 C21        16.5470   -2.2310    2.4610 C.ar      1 14D        -0.0408
     28 C22        17.3530   -1.1050    2.3780 C.ar      1 14D         0.0396
     29 C23        17.1860   -0.0580    3.2580 C.ar      1 14D         0.0009
     30 C24        18.4270   -1.0130    1.3580 C.3       1 14D         0.3741
     31 F1         17.9990   -1.3290    0.1160 F         1 14D        -0.2206
     32 F2         19.4430   -1.8510    1.6600 F         1 14D        -0.2206
     33 F3         18.9860    0.2180    1.2090 F         1 14D        -0.2206
     34 H1         11.9938   -3.9135    2.1331 H         1 14D         0.0296
     35 H2         13.0587   -3.6550    0.7098 H         1 14D         0.0296
     36 H3         11.4037   -4.3160    0.4850 H         1 14D         0.0296
     37 H4         11.0829   -1.9824    2.9593 H         1 14D         0.1010
     38 H5         10.8011    0.0883   -1.3848 H         1 14D         0.2259
     39 H6          9.4182    1.2509    2.6162 H         1 14D         0.0696
     40 H7          9.7411   -1.2516    4.2885 H         1 14D         0.0298
     41 H8          8.3045   -0.7473    3.3354 H         1 14D         0.0298
     42 H9          8.0562   -0.2353    5.7482 H         1 14D         0.0318
     43 H10         8.0486    1.2494    4.7372 H         1 14D         0.0318
     44 H11        10.4558    0.1290    6.2630 H         1 14D         0.0815
     45 H12         9.4680    1.5499    6.7447 H         1 14D         0.0815
     46 H13         9.9601    2.4729    4.6127 H         1 14D         0.2049
     47 H14        11.6304    1.9249    3.0915 H         1 14D         0.0844
     48 H15        11.9510    0.4328    4.0389 H         1 14D         0.0844
     49 H16        11.1135    3.2092    6.5207 H         1 14D         0.0979
     50 H17        11.9492    3.5017    4.9578 H         1 14D         0.0979
     51 H18        12.0280    1.7539    8.1525 H         1 14D         0.0471
     52 H19        13.9989    0.5628    9.0143 H         1 14D         0.0573
     53 H20        15.9707    0.2352    7.5572 H         1 14D         0.0496
     54 H21        13.9267    2.1869    4.3495 H         1 14D         0.0490
     55 H22        14.6061   -1.2805    5.0596 H         1 14D         0.0803
     56 H23        14.9145   -3.1588    3.4855 H         1 14D         0.0675
     57 H24        16.6931   -3.0593    1.7771 H         1 14D         0.0776
     58 H25        17.8257    0.8147    3.1920 H         1 14D         0.0769
@<TRIPOS>BOND
     1    1    2 1  
     2    2    3 2  
     3    2    8 1  
     4    3    4 1  
     5    4    5 am 
     6    4   10 1  
     7    5    6 2  
     8    5    7 am 
     9    7    8 am 
    10    8    9 2  
    11   10   11 1  
    12   10   15 1  
    13   11   12 1  
    14   12   13 1  
    15   13   14 1  
    16   14   15 1  
    17   14   16 1  
    18   16   17 1  
    19   17   18 ar 
    20   17   22 ar 
    21   18   19 ar 
    22   19   20 ar 
    23   20   21 ar 
    24   21   22 ar 
    25   21   23 1  
    26   23   24 1  
    27   24   25 ar 
    28   24   29 ar 
    29   25   26 ar 
    30   26   27 ar 
    31   27   28 ar 
    32   28   29 ar 
    33   28   30 1  
    34   30   31 1  
    35   30   32 1  
    36   30   33 1  
    37    1   34 1  
    38    1   35 1  
    39    1   36 1  
    40    3   37 1  
    41    7   38 1  
    42   10   39 1  
    43   11   40 1  
    44   11   41 1  
    45   12   42 1  
    46   12   43 1  
    47   13   44 1  
    48   13   45 1  
    49   14   46 1  
    50   15   47 1  
    51   15   48 1  
    52   16   49 1  
    53   16   50 1  
    54   18   51 1  
    55   19   52 1  
    56   20   53 1  
    57   22   54 1  
    58   25   55 1  
    59   26   56 1  
    60   27   57 1  
    61   29   58 1  
@<TRIPOS>SUBSTRUCTURE
     1 14D         1

