### 
### Created by X-TOOL on Mon Sep 10 21:13:09 2018
### 

@<TRIPOS>MOLECULE
4heu_ligand
   56    60     1     0     0
SMALL
GAST_HUCK


@<TRIPOS>ATOM
      1 O2         15.0720   84.5850   33.9290 O.3       1 15J        -0.3947
      2 C24        14.6680   85.9170   33.5850 C.3       1 15J         0.0471
      3 C21        13.4430   86.3640   34.3940 C.3       1 15J        -0.0142
      4 C22        13.7500   86.3400   35.8990 C.3       1 15J        -0.0281
      5 C23        12.5340   86.7960   36.7190 C.3       1 15J         0.0283
      6 C20        13.0880   87.7980   33.9680 C.3       1 15J        -0.0281
      7 C19        11.9320   88.4100   34.7750 C.3       1 15J         0.0283
      8 N2         12.0050   88.1120   36.2330 N.pl3     1 15J        -0.2962
      9 C4         11.4140   89.0080   37.1510 C.ar      1 15J         0.1495
     10 N1         10.1770   89.4790   36.8830 N.ar      1 15J        -0.2958
     11 C3          9.5440   90.3120   37.7000 C.ar      1 15J        -0.0163
     12 C2         10.1440   90.7350   38.8840 C.ar      1 15J        -0.0573
     13 C1         11.4210   90.2730   39.1980 C.ar      1 15J        -0.0211
     14 C5         12.0660   89.3910   38.3280 C.ar      1 15J         0.1599
     15 O1         13.3280   88.9150   38.5750 O.3       1 15J        -0.2623
     16 C6         13.7940   88.7100   39.8450 C.ar      1 15J         0.1038
     17 C11        15.0560   89.1930   40.1940 C.ar      1 15J        -0.0375
     18 C10        15.5620   88.9840   41.4800 C.ar      1 15J        -0.0450
     19 C7         13.0510   87.9940   40.7830 C.ar      1 15J        -0.0375
     20 C8         13.5580   87.7890   42.0650 C.ar      1 15J        -0.0450
     21 C9         14.8140   88.2720   42.4270 C.ar      1 15J         0.0583
     22 N3         15.2300   88.0270   43.6820 N.pl3     1 15J        -0.2327
     23 C12        16.4680   88.1670   44.1810 C.2       1 15J         0.2312
     24 N5         17.6030   88.2900   43.4920 N.pl3     1 15J        -0.2279
     25 C14        18.5950   88.4070   44.3760 C.ar      1 15J         0.0756
     26 C18        19.9740   88.5690   44.2330 C.ar      1 15J        -0.0446
     27 C17        20.7870   88.6600   45.3660 C.ar      1 15J        -0.0786
     28 C16        20.2170   88.5920   46.6420 C.ar      1 15J        -0.0807
     29 C15        18.8370   88.4350   46.7830 C.ar      1 15J        -0.0689
     30 C13        18.0280   88.3430   45.6480 C.ar      1 15J         0.0129
     31 N4         16.7150   88.1920   45.4900 N.2       1 15J        -0.3090
     32 H1         15.8303   84.3416   33.4111 H         1 15J         0.2094
     33 H2         14.4191   85.9489   32.5140 H         1 15J         0.0560
     34 H3         15.5008   86.6062   33.7887 H         1 15J         0.0560
     35 H4         12.5975   85.6923   34.1843 H         1 15J         0.0324
     36 H5         14.5947   87.0141   36.1041 H         1 15J         0.0288
     37 H6         14.0186   85.3151   36.1945 H         1 15J         0.0288
     38 H7         12.8316   86.8979   37.7730 H         1 15J         0.0516
     39 H8         11.7409   86.0386   36.6335 H         1 15J         0.0516
     40 H9         12.8021   87.7848   32.9059 H         1 15J         0.0288
     41 H10        13.9780   88.4308   34.1004 H         1 15J         0.0288
     42 H11        10.9844   88.0105   34.3846 H         1 15J         0.0516
     43 H12        11.9527   89.5016   34.6409 H         1 15J         0.0516
     44 H13         8.5520   90.6660   37.4438 H         1 15J         0.0680
     45 H14         9.6252   91.4136   39.5514 H         1 15J         0.0567
     46 H15        11.9097   90.5957   40.1102 H         1 15J         0.0619
     47 H16        15.6472   89.7333   39.4635 H         1 15J         0.0525
     48 H17        16.5376   89.3745   41.7460 H         1 15J         0.0513
     49 H18        12.0787   87.5967   40.5150 H         1 15J         0.0525
     50 H19        12.9658   87.2452   42.7921 H         1 15J         0.0513
     51 H20        14.5119   87.6914   44.3397 H         1 15J         0.2185
     52 H21        17.6965   88.2939   42.4663 H         1 15J         0.2312
     53 H22        20.4140   88.6242   43.2438 H         1 15J         0.0533
     54 H23        21.8584   88.7832   45.2564 H         1 15J         0.0514
     55 H24        20.8471   88.6612   47.5213 H         1 15J         0.0509
     56 H25        18.3942   88.3846   47.7712 H         1 15J         0.0518
@<TRIPOS>BOND
     1    1    2 1  
     2    2    3 1  
     3    3    4 1  
     4    3    6 1  
     5    4    5 1  
     6    5    8 1  
     7    6    7 1  
     8    7    8 1  
     9    8    9 1  
    10    9   10 ar 
    11    9   14 ar 
    12   10   11 ar 
    13   11   12 ar 
    14   12   13 ar 
    15   13   14 ar 
    16   14   15 1  
    17   15   16 1  
    18   16   17 ar 
    19   16   19 ar 
    20   17   18 ar 
    21   18   21 ar 
    22   19   20 ar 
    23   20   21 ar 
    24   21   22 1  
    25   22   23 1  
    26   23   24 1  
    27   23   31 2  
    28   24   25 1  
    29   25   26 ar 
    30   25   30 ar 
    31   26   27 ar 
    32   27   28 ar 
    33   28   29 ar 
    34   29   30 ar 
    35   30   31 1  
    36    1   32 1  
    37    2   33 1  
    38    2   34 1  
    39    3   35 1  
    40    4   36 1  
    41    4   37 1  
    42    5   38 1  
    43    5   39 1  
    44    6   40 1  
    45    6   41 1  
    46    7   42 1  
    47    7   43 1  
    48   11   44 1  
    49   12   45 1  
    50   13   46 1  
    51   17   47 1  
    52   18   48 1  
    53   19   49 1  
    54   20   50 1  
    55   22   51 1  
    56   24   52 1  
    57   26   53 1  
    58   27   54 1  
    59   28   55 1  
    60   29   56 1  
@<TRIPOS>SUBSTRUCTURE
     1 15J         1

