### 
### Created by X-TOOL on Mon Sep 10 21:13:15 2018
### 

@<TRIPOS>MOLECULE
4hev_ligand
   34    36     1     0     0
SMALL
GAST_HUCK


@<TRIPOS>ATOM
      1 O28        -4.7640   -4.4020   21.8480 O.2       1 AXM        -0.3969
      2 C27        -4.5100   -5.1650   22.7670 C.2       1 AXM         0.1993
      3 N29        -3.9400   -4.7570   23.8960 N.am      1 AXM        -0.1642
      4 O30        -3.8220   -3.3930   24.1520 O.3       1 AXM        -0.2717
      5 C26        -4.8460   -6.6350   22.6570 C.3       1 AXM         0.0446
      6 C5         -3.9580   -7.3250   21.6240 C.3       1 AXM        -0.0117
      7 C4         -2.5790   -6.6760   21.5820 C.3       1 AXM        -0.0424
      8 C3         -1.7140   -7.3700   20.5360 C.3       1 AXM        -0.0399
      9 C9         -3.8030   -8.7920   22.0010 C.3       1 AXM        -0.0424
     10 C1         -2.9420   -9.5080   20.9630 C.3       1 AXM        -0.0399
     11 C8         -3.6020   -9.3930   19.5940 C.3       1 AXM        -0.0473
     12 C2         -1.5700   -8.8430   20.9030 C.3       1 AXM        -0.0473
     13 C6         -4.6320   -7.2370   20.2620 C.3       1 AXM        -0.0424
     14 C7         -3.7680   -7.9250   19.2120 C.3       1 AXM        -0.0399
     15 C10        -2.3980   -7.2530   19.1780 C.3       1 AXM        -0.0473
     16 H1         -3.5981   -5.4247   24.5573 H         1 AXM         0.2216
     17 H2         -3.3965   -3.2652   24.9918 H         1 AXM         0.2490
     18 H3         -5.8983   -6.7416   22.3549 H         1 AXM         0.0507
     19 H4         -4.6955   -7.1124   23.6365 H         1 AXM         0.0507
     20 H5         -2.1022   -6.7671   22.5691 H         1 AXM         0.0275
     21 H6         -2.6836   -5.6123   21.3220 H         1 AXM         0.0275
     22 H7         -0.7216   -6.8970   20.4969 H         1 AXM         0.0301
     23 H8         -4.7953   -9.2651   22.0405 H         1 AXM         0.0275
     24 H9         -3.3219   -8.8661   22.9874 H         1 AXM         0.0275
     25 H10        -2.8325  -10.5676   21.2374 H         1 AXM         0.0301
     26 H11        -4.5905   -9.8745   19.6253 H         1 AXM         0.0271
     27 H12        -2.9732   -9.8950   18.8439 H         1 AXM         0.0271
     28 H13        -1.0825   -8.9266   21.8855 H         1 AXM         0.0271
     29 H14        -0.9544   -9.3480   20.1440 H         1 AXM         0.0271
     30 H15        -4.7661   -6.1800   19.9887 H         1 AXM         0.0275
     31 H16        -5.6136   -7.7313   20.3079 H         1 AXM         0.0275
     32 H17        -4.2459   -7.8478   18.2243 H         1 AXM         0.0301
     33 H18        -1.7740   -7.7409   18.4147 H         1 AXM         0.0271
     34 H19        -2.5222   -6.1897   18.9252 H         1 AXM         0.0271
@<TRIPOS>BOND
     1    1    2 2  
     2    2    3 am 
     3    2    5 1  
     4    3    4 1  
     5    5    6 1  
     6    6    7 1  
     7    6    9 1  
     8    6   13 1  
     9    7    8 1  
    10    8   12 1  
    11    8   15 1  
    12    9   10 1  
    13   10   11 1  
    14   10   12 1  
    15   11   14 1  
    16   13   14 1  
    17   14   15 1  
    18    3   16 1  
    19    4   17 1  
    20    5   18 1  
    21    5   19 1  
    22    7   20 1  
    23    7   21 1  
    24    8   22 1  
    25    9   23 1  
    26    9   24 1  
    27   10   25 1  
    28   11   26 1  
    29   11   27 1  
    30   12   28 1  
    31   12   29 1  
    32   13   30 1  
    33   13   31 1  
    34   14   32 1  
    35   15   33 1  
    36   15   34 1  
@<TRIPOS>SUBSTRUCTURE
     1 AXM         1

