### 
### Created by X-TOOL on Mon Sep 10 21:13:09 2018
### 

@<TRIPOS>MOLECULE
4hf4_ligand
   57    61     1     0     0
SMALL
GAST_HUCK


@<TRIPOS>ATOM
      1 N4         17.7530   88.0950   43.9750 N.2       1 15H        -0.3030
      2 C13        18.8410   88.3170   44.7490 C.ar      1 15H         0.0121
      3 C17        20.1620   88.5320   44.3500 C.ar      1 15H        -0.0628
      4 C16        21.1710   88.7460   45.2900 C.ar      1 15H        -0.0754
      5 C15        20.8700   88.7520   46.6520 C.ar      1 15H        -0.0744
      6 C14        19.5590   88.5400   47.0720 C.ar      1 15H        -0.0529
      7 C12        18.5540   88.3250   46.1280 C.ar      1 15H         0.0498
      8 S1         16.9040   88.0450   46.2850 S.3       1 15H         0.0309
      9 C11        16.6010   87.9290   44.6400 C.2       1 15H         0.2023
     10 N3         15.3920   87.6860   44.1210 N.pl3     1 15H        -0.2377
     11 C8         14.9290   88.0840   42.9270 C.ar      1 15H         0.0606
     12 C9         13.5550   87.9970   42.7000 C.ar      1 15H        -0.0438
     13 C10        13.0130   88.3900   41.4770 C.ar      1 15H        -0.0361
     14 C7         15.7590   88.5670   41.9110 C.ar      1 15H        -0.0438
     15 C6         15.2210   88.9620   40.6870 C.ar      1 15H        -0.0361
     16 C5         13.8450   88.8700   40.4670 C.ar      1 15H         0.1089
     17 O1         13.3140   89.2570   39.2700 O.3       1 15H        -0.2412
     18 C3         13.1090   88.2280   38.3940 C.ar      1 15H         0.2375
     19 N2         13.9580   87.1820   38.3630 N.ar      1 15H        -0.2615
     20 C2         13.7740   86.1800   37.5190 C.ar      1 15H         0.0131
     21 C1         12.6910   86.2030   36.6450 C.ar      1 15H         0.0115
     22 N1         11.8480   87.2220   36.6620 N.ar      1 15H        -0.2721
     23 C4         12.0200   88.2450   37.5160 C.ar      1 15H         0.1817
     24 N5         11.0960   89.3050   37.4830 N.pl3     1 15H        -0.2889
     25 C22        10.1670   89.5360   38.6390 C.3       1 15H         0.0301
     26 C21         9.6980   91.0030   38.7520 C.3       1 15H        -0.0276
     27 C18        11.0350   90.1120   36.2280 C.3       1 15H         0.0301
     28 C19        10.6360   91.5630   36.5080 C.3       1 15H        -0.0276
     29 C20         9.3710   91.6050   37.3710 C.3       1 15H        -0.0116
     30 C23         8.7550   93.0210   37.4210 C.3       1 15H         0.0554
     31 C24         9.3740   93.9210   38.5000 C.3       1 15H        -0.0387
     32 O2          7.3330   92.9180   37.5850 O.3       1 15H        -0.3918
     33 H1         20.4073   88.5327   43.2941 H         1 15H         0.0538
     34 H2         22.1911   88.9079   44.9609 H         1 15H         0.0546
     35 H3         21.6539   88.9211   47.3813 H         1 15H         0.0535
     36 H4         19.3200   88.5420   48.1293 H         1 15H         0.0557
     37 H5         14.7462   87.1327   44.7021 H         1 15H         0.2218
     38 H6         12.9038   87.6209   43.4807 H         1 15H         0.0518
     39 H7         11.9438   88.3222   41.3115 H         1 15H         0.0530
     40 H8         16.8282   88.6348   42.0760 H         1 15H         0.0518
     41 H9         15.8707   89.3405   39.9062 H         1 15H         0.0530
     42 H10        14.4641   85.3441   37.5082 H         1 15H         0.0757
     43 H11        12.5384   85.3853   35.9500 H         1 15H         0.0771
     44 H12        10.6885   89.2622   39.5680 H         1 15H         0.0520
     45 H13         9.2828   88.8941   38.5119 H         1 15H         0.0520
     46 H14        10.4965   91.5975   39.2200 H         1 15H         0.0288
     47 H15         8.7959   91.0415   39.3803 H         1 15H         0.0288
     48 H16        10.2938   89.6627   35.5507 H         1 15H         0.0520
     49 H17        12.0247   90.1006   35.7481 H         1 15H         0.0520
     50 H18        10.4433   92.0775   35.5551 H         1 15H         0.0288
     51 H19        11.4554   92.0695   37.0390 H         1 15H         0.0288
     52 H20         8.6214   90.9523   36.8998 H         1 15H         0.0327
     53 H21         8.9496   93.4996   36.4499 H         1 15H         0.0593
     54 H22         8.8887   94.9079   38.4769 H         1 15H         0.0255
     55 H23        10.4507   94.0373   38.3072 H         1 15H         0.0255
     56 H24         9.2260   93.4627   39.4890 H         1 15H         0.0255
     57 H25         6.9444   93.7823   37.5193 H         1 15H         0.2098
@<TRIPOS>BOND
     1    1    2 1  
     2    1    9 2  
     3    2    3 ar 
     4    2    7 ar 
     5    3    4 ar 
     6    4    5 ar 
     7    5    6 ar 
     8    6    7 ar 
     9    7    8 1  
    10    8    9 1  
    11    9   10 1  
    12   10   11 1  
    13   11   12 ar 
    14   11   14 ar 
    15   12   13 ar 
    16   13   16 ar 
    17   14   15 ar 
    18   15   16 ar 
    19   16   17 1  
    20   17   18 1  
    21   18   19 ar 
    22   18   23 ar 
    23   19   20 ar 
    24   20   21 ar 
    25   21   22 ar 
    26   22   23 ar 
    27   23   24 1  
    28   24   25 1  
    29   24   27 1  
    30   25   26 1  
    31   26   29 1  
    32   27   28 1  
    33   28   29 1  
    34   29   30 1  
    35   30   31 1  
    36   30   32 1  
    37    3   33 1  
    38    4   34 1  
    39    5   35 1  
    40    6   36 1  
    41   10   37 1  
    42   12   38 1  
    43   13   39 1  
    44   14   40 1  
    45   15   41 1  
    46   20   42 1  
    47   21   43 1  
    48   25   44 1  
    49   25   45 1  
    50   26   46 1  
    51   26   47 1  
    52   27   48 1  
    53   27   49 1  
    54   28   50 1  
    55   28   51 1  
    56   29   52 1  
    57   30   53 1  
    58   31   54 1  
    59   31   55 1  
    60   31   56 1  
    61   32   57 1  
@<TRIPOS>SUBSTRUCTURE
     1 15H         1

