### 
### Created by X-TOOL on Mon Sep 10 21:13:13 2018
### 

@<TRIPOS>MOLECULE
4hfp_ligand
   71    73     1     0     0
SMALL
GAST_HUCK


@<TRIPOS>ATOM
      1 S           2.6270   13.7560    0.1060 S.o2      1 15U         0.0651
      2 O1          1.7960   12.5870    0.1880 O.2       1 15U        -0.1523
      3 O2          2.5190   14.4990    1.3360 O.2       1 15U        -0.1523
      4 C1          2.8590   12.5350   -4.2320 C.3       1 15U         0.0265
      5 C2          3.2060   13.6560   -5.2110 C.3       1 15U        -0.0168
      6 C3          2.1800   14.7790   -5.0950 C.3       1 15U        -0.0183
      7 C4          2.0180   15.1820   -3.6410 C.ar      1 15U        -0.0225
      8 C5          1.5040   16.4350   -3.3080 C.ar      1 15U        -0.0717
      9 C6          1.3570   16.8100   -1.9700 C.ar      1 15U        -0.0801
     10 C7          1.7090   15.9640   -0.9140 C.ar      1 15U        -0.0540
     11 C8          2.2270   14.6900   -1.1370 C.ar      1 15U         0.1188
     12 C9          2.4100   14.2440   -2.5480 C.ar      1 15U         0.0670
     13 C10         3.3040   13.1300   -6.6400 C.3       1 15U        -0.0591
     14 N           2.9100   13.0240   -2.8610 N.pl3     1 15U        -0.3240
     15 N1          4.1460   13.2890   -0.0920 N.am      1 15U        -0.2273
     16 CA          5.2210   14.2650   -0.0310 C.3       1 15U         0.1265
     17 C           5.7820   14.5690   -1.4020 C.2       1 15U         0.2020
     18 O           5.7190   13.7090   -2.2640 O.2       1 15U        -0.3947
     19 CB          6.2860   13.7810    0.9590 C.3       1 15U        -0.0128
     20 CG          7.1590   12.6580    0.4110 C.3       1 15U        -0.0160
     21 CD          8.4110   12.4950    1.2560 C.3       1 15U         0.0627
     22 NE          8.7070   11.0930    1.4730 N.pl3     1 15U        -0.2723
     23 CZ          9.5120   10.3780    0.6840 C.cat     1 15U         0.2882
     24 NH1         9.6370    9.0720    0.9240 N.pl3     1 15U        -0.2849
     25 NH2        10.1490   10.9120   -0.2740 N.pl3     1 15U        -0.2849
     26 N2          6.3330   15.7650   -1.6510 N.am      1 15U        -0.2559
     27 C11         6.4210   16.7960   -0.5970 C.3       1 15U         0.0973
     28 C21         5.8550   18.1290   -1.1100 C.3       1 15U        -0.0151
     29 C31         6.3960   18.5200   -2.4840 C.3       1 15U        -0.0384
     30 C41         6.1450   17.3690   -3.4520 C.3       1 15U        -0.0296
     31 C51         6.9180   16.1530   -2.9460 C.3       1 15U         0.0363
     32 C61         7.8280   16.9050   -0.0600 C.2       1 15U         0.0603
     33 O11         8.6020   15.9360   -0.2160 O.co2     1 15U        -0.5666
     34 O21         8.1780   17.9510    0.5300 O.co2     1 15U        -0.5666
     35 C71         5.8050   19.8330   -2.9860 C.3       1 15U        -0.0622
     36 H1          3.5810   11.7137   -4.3508 H         1 15U         0.0512
     37 H2          1.8453   12.1663   -4.4477 H         1 15U         0.0512
     38 H3          4.1900   14.0619   -4.9334 H         1 15U         0.0336
     39 H4          1.2128   14.4314   -5.4871 H         1 15U         0.0402
     40 H5          2.5216   15.6469   -5.6782 H         1 15U         0.0402
     41 H6          1.2161   17.1239   -4.0939 H         1 15U         0.0519
     42 H7          0.9560   17.7912   -1.7428 H         1 15U         0.0488
     43 H8          1.5754   16.3084    0.1051 H         1 15U         0.0545
     44 H9          4.0514   12.3241   -6.6836 H         1 15U         0.0234
     45 H10         3.6063   13.9470   -7.3116 H         1 15U         0.0234
     46 H11         2.3250   12.7396   -6.9550 H         1 15U         0.0234
     47 H12         3.3289   12.4385   -2.1244 H         1 15U         0.1734
     48 H13         4.3549   12.3252   -0.2577 H         1 15U         0.1704
     49 H14         4.8028   15.2032    0.3626 H         1 15U         0.0753
     50 H15         5.7796   13.4177    1.8654 H         1 15U         0.0309
     51 H16         6.9340   14.6316    1.2169 H         1 15U         0.0309
     52 H17         7.4489   12.8968   -0.6229 H         1 15U         0.0301
     53 H18         6.5889   11.7174    0.4240 H         1 15U         0.0301
     54 H19         8.2561   12.9854    2.2283 H         1 15U         0.0689
     55 H20         9.2593   12.9666    0.7384 H         1 15U         0.0689
     56 H21         8.2726   10.6227    2.2799 H         1 15U         0.2642
     57 H22        10.2514    8.4959    0.3311 H         1 15U         0.2615
     58 H23         9.1192    8.6395    1.7023 H         1 15U         0.2615
     59 H24        10.0516   11.9207   -0.4583 H         1 15U         0.2615
     60 H25        10.7637   10.3370   -0.8677 H         1 15U         0.2615
     61 H26         5.7828   16.4732    0.2387 H         1 15U         0.0728
     62 H27         6.1173   18.9202   -0.3923 H         1 15U         0.0308
     63 H28         4.7604   18.0423   -1.1764 H         1 15U         0.0308
     64 H29         7.4833   18.6614   -2.3954 H         1 15U         0.0301
     65 H30         6.4963   17.6431   -4.4577 H         1 15U         0.0287
     66 H31         5.0699   17.1395   -3.4890 H         1 15U         0.0287
     67 H32         6.8259   15.3242   -3.6633 H         1 15U         0.0524
     68 H33         7.9797   16.4099   -2.8168 H         1 15U         0.0524
     69 H34         6.0110   20.6303   -2.2567 H         1 15U         0.0232
     70 H35         4.7177   19.7219   -3.1105 H         1 15U         0.0232
     71 H36         6.2600   20.0940   -3.9529 H         1 15U         0.0232
@<TRIPOS>BOND
     1    1    2 2  
     2    1    3 2  
     3   11    1 1  
     4    1   15 am 
     5    5    4 1  
     6    4   14 1  
     7    6    5 1  
     8    5   13 1  
     9    7    6 1  
    10    8    7 ar 
    11    7   12 ar 
    12    9    8 ar 
    13   10    9 ar 
    14   10   11 ar 
    15   11   12 ar 
    16   12   14 1  
    17   15   16 1  
    18   16   17 1  
    19   16   19 1  
    20   17   18 2  
    21   17   26 am 
    22   19   20 1  
    23   20   21 1  
    24   21   22 1  
    25   22   23 ar 
    26   23   24 ar 
    27   23   25 ar 
    28   26   27 1  
    29   26   31 1  
    30   27   28 1  
    31   27   32 1  
    32   28   29 1  
    33   29   30 1  
    34   29   35 1  
    35   30   31 1  
    36   32   33 ar 
    37   32   34 ar 
    38    4   36 1  
    39    4   37 1  
    40    5   38 1  
    41    6   39 1  
    42    6   40 1  
    43    8   41 1  
    44    9   42 1  
    45   10   43 1  
    46   13   44 1  
    47   13   45 1  
    48   13   46 1  
    49   14   47 1  
    50   15   48 1  
    51   16   49 1  
    52   19   50 1  
    53   19   51 1  
    54   20   52 1  
    55   20   53 1  
    56   21   54 1  
    57   21   55 1  
    58   22   56 1  
    59   24   57 1  
    60   24   58 1  
    61   25   59 1  
    62   25   60 1  
    63   27   61 1  
    64   28   62 1  
    65   28   63 1  
    66   29   64 1  
    67   30   65 1  
    68   30   66 1  
    69   31   67 1  
    70   31   68 1  
    71   35   69 1  
    72   35   70 1  
    73   35   71 1  
@<TRIPOS>SUBSTRUCTURE
     1 15U         1

