### 
### Created by X-TOOL on Mon Sep 10 21:13:13 2018
### 

@<TRIPOS>MOLECULE
4hg7_ligand
   70    74     1     0     0
SMALL
GAST_HUCK


@<TRIPOS>ATOM
      1 O3        -23.6670    5.8390  -16.5680 O.2       1 NUT        -0.3853
      2 C25       -23.0150    6.5380  -15.7570 C.2       1 NUT         0.3083
      3 N2        -21.6950    6.4020  -15.7100 N.am      1 NUT        -0.2313
      4 C29       -21.0060    5.5640  -16.6970 C.3       1 NUT         0.1240
      5 C28       -19.6240    6.0370  -17.0660 C.2       1 NUT         0.1986
      6 O2        -19.0270    5.4380  -17.9570 O.2       1 NUT        -0.3949
      7 N3        -19.0960    7.0880  -16.4230 N.am      1 NUT        -0.2834
      8 C27       -19.7650    7.7770  -15.3160 C.3       1 NUT         0.0513
      9 C26       -20.8510    6.9550  -14.6470 C.3       1 NUT         0.0577
     10 N1        -23.7280    7.3870  -14.9700 N.am      1 NUT        -0.1619
     11 C10       -25.0320    7.1730  -14.7100 C.2       1 NUT         0.1329
     12 C9        -25.7160    5.8490  -14.5590 C.ar      1 NUT         0.0616
     13 C3        -27.0030    5.6430  -15.0330 C.ar      1 NUT        -0.0548
     14 C2        -27.6360    4.3900  -14.8720 C.ar      1 NUT        -0.0340
     15 C5        -25.0210    4.7420  -13.8780 C.ar      1 NUT         0.1089
     16 O1        -23.7510    4.9500  -13.4150 O.3       1 NUT        -0.3097
     17 C6        -23.0770    3.9270  -12.6400 C.3       1 NUT         0.0782
     18 C8        -22.4450    2.9000  -13.5860 C.3       1 NUT        -0.0341
     19 C7        -22.0630    4.5960  -11.7180 C.3       1 NUT        -0.0341
     20 C4        -25.6780    3.5120  -13.7320 C.ar      1 NUT         0.0050
     21 C1        -26.9730    3.3480  -14.2070 C.ar      1 NUT         0.0914
     22 O         -27.5570    2.1270  -14.0220 O.3       1 NUT        -0.3182
     23 C         -28.8630    1.8220  -14.5400 C.3       1 NUT         0.0612
     24 C18       -23.3300    8.7740  -14.7400 C.3       1 NUT         0.1245
     25 C19       -22.8970    9.2330  -13.3740 C.ar      1 NUT        -0.0081
     26 C24       -22.1980   10.4510  -13.3260 C.ar      1 NUT        -0.0568
     27 C23       -21.8670   10.9940  -12.0870 C.ar      1 NUT        -0.0545
     28 C22       -22.2600   10.3210  -10.9420 C.ar      1 NUT         0.0330
     29 CL1       -21.9280   11.0790   -9.3760 Cl        1 NUT        -0.0771
     30 C21       -22.9880    9.1230  -10.9420 C.ar      1 NUT        -0.0545
     31 C20       -23.3000    8.5790  -12.1900 C.ar      1 NUT        -0.0568
     32 C11       -24.7920    9.3670  -15.0380 C.3       1 NUT         0.0592
     33 N         -25.7070    8.2510  -14.7090 N.2       1 NUT        -0.3569
     34 C12       -25.1940   10.6170  -14.3010 C.ar      1 NUT        -0.0316
     35 C17       -24.9800   11.8740  -14.8650 C.ar      1 NUT        -0.0590
     36 C16       -25.3550   13.0350  -14.1450 C.ar      1 NUT        -0.0546
     37 C15       -25.9350   12.9210  -12.8640 C.ar      1 NUT         0.0330
     38 CL        -26.4170   14.3600  -11.9150 Cl        1 NUT        -0.0771
     39 C14       -26.1560   11.6770  -12.2540 C.ar      1 NUT        -0.0546
     40 C13       -25.7910   10.5280  -13.0190 C.ar      1 NUT        -0.0590
     41 H1        -21.6160    5.5397  -17.6121 H         1 NUT         0.0763
     42 H2        -20.9221    4.5475  -16.2852 H         1 NUT         0.0763
     43 H3        -18.1985    7.4193  -16.7140 H         1 NUT         0.1852
     44 H4        -20.2197    8.6994  -15.7063 H         1 NUT         0.0540
     45 H5        -19.0086    8.0327  -14.5594 H         1 NUT         0.0540
     46 H6        -20.3999    6.1400  -14.0620 H         1 NUT         0.0542
     47 H7        -21.4518    7.5940  -13.9831 H         1 NUT         0.0542
     48 H8        -27.5278    6.4501  -15.5312 H         1 NUT         0.0638
     49 H9        -28.6350    4.2339  -15.2628 H         1 NUT         0.0483
     50 H10       -23.8178    3.4057  -12.0159 H         1 NUT         0.0650
     51 H11       -21.9340    2.1244  -12.9966 H         1 NUT         0.0259
     52 H12       -21.7171    3.4028  -14.2397 H         1 NUT         0.0259
     53 H13       -23.2303    2.4356  -14.2005 H         1 NUT         0.0259
     54 H14       -21.5449    3.8284  -11.1244 H         1 NUT         0.0259
     55 H15       -22.5837    5.2916  -11.0435 H         1 NUT         0.0259
     56 H16       -21.3289    5.1504  -12.3211 H         1 NUT         0.0259
     57 H17       -25.1729    2.6850  -13.2461 H         1 NUT         0.0483
     58 H18       -29.1310    0.7890  -14.2735 H         1 NUT         0.0582
     59 H19       -28.8573    1.9285  -15.6348 H         1 NUT         0.0582
     60 H20       -29.5999    2.5150  -14.1079 H         1 NUT         0.0582
     61 H21       -22.5686    9.0901  -15.4683 H         1 NUT         0.0833
     62 H22       -21.9201   10.9612  -14.2412 H         1 NUT         0.0558
     63 H23       -21.3135   11.9237  -12.0201 H         1 NUT         0.0606
     64 H24       -23.2935    8.6428  -10.0194 H         1 NUT         0.0606
     65 H25       -23.8546    7.6495  -12.2495 H         1 NUT         0.0558
     66 H26       -24.8582    9.5932  -16.1125 H         1 NUT         0.0550
     67 H27       -24.5300   11.9623  -15.8472 H         1 NUT         0.0557
     68 H28       -25.1956   14.0150  -14.5801 H         1 NUT         0.0606
     69 H29       -26.5793   11.5931  -11.2596 H         1 NUT         0.0606
     70 H30       -25.9786    9.5455  -12.6012 H         1 NUT         0.0557
@<TRIPOS>BOND
     1    1    2 2  
     2    2    3 am 
     3    2   10 am 
     4    3    4 1  
     5    3    9 1  
     6    4    5 1  
     7    5    6 2  
     8    5    7 am 
     9    7    8 1  
    10    8    9 1  
    11   10   11 1  
    12   10   24 1  
    13   11   12 1  
    14   11   33 2  
    15   12   13 ar 
    16   12   15 ar 
    17   13   14 ar 
    18   14   21 ar 
    19   15   16 1  
    20   15   20 ar 
    21   16   17 1  
    22   17   18 1  
    23   17   19 1  
    24   20   21 ar 
    25   21   22 1  
    26   22   23 1  
    27   24   25 1  
    28   24   32 1  
    29   25   26 ar 
    30   25   31 ar 
    31   26   27 ar 
    32   27   28 ar 
    33   28   29 1  
    34   28   30 ar 
    35   30   31 ar 
    36   32   33 1  
    37   32   34 1  
    38   34   35 ar 
    39   34   40 ar 
    40   35   36 ar 
    41   36   37 ar 
    42   37   38 1  
    43   37   39 ar 
    44   39   40 ar 
    45    4   41 1  
    46    4   42 1  
    47    7   43 1  
    48    8   44 1  
    49    8   45 1  
    50    9   46 1  
    51    9   47 1  
    52   13   48 1  
    53   14   49 1  
    54   17   50 1  
    55   18   51 1  
    56   18   52 1  
    57   18   53 1  
    58   19   54 1  
    59   19   55 1  
    60   19   56 1  
    61   20   57 1  
    62   23   58 1  
    63   23   59 1  
    64   23   60 1  
    65   24   61 1  
    66   26   62 1  
    67   27   63 1  
    68   30   64 1  
    69   31   65 1  
    70   32   66 1  
    71   35   67 1  
    72   36   68 1  
    73   39   69 1  
    74   40   70 1  
@<TRIPOS>SUBSTRUCTURE
     1 NUT         1

