### 
### Created by X-TOOL on Mon Sep 10 21:13:12 2018
### 

@<TRIPOS>MOLECULE
4hgl_ligand
   45    49     1     0     0
SMALL
GAST_HUCK


@<TRIPOS>ATOM
      1 C1         36.7820  -15.1190   28.3330 C.ar      1 0YO         0.1098
      2 C2         37.1110  -13.0370   29.2410 C.ar      1 0YO         0.0480
      3 C3         37.5800  -12.5030   27.9730 C.ar      1 0YO         0.1449
      4 C7         36.4720  -17.4800   27.5100 C.ar      1 0YO        -0.0218
      5 C8         35.9350  -18.7630   27.7280 C.ar      1 0YO         0.0098
      6 C9         35.1930  -19.0000   29.0830 C.ar      1 0YO         0.0480
      7 C10        34.6450  -20.2200   29.3340 C.ar      1 0YO        -0.0385
      8 C11        34.7490  -21.3670   28.3460 C.ar      1 0YO        -0.0552
      9 C12        35.4860  -21.1510   27.0590 C.ar      1 0YO        -0.0552
     10 C13        36.0810  -19.7990   26.7530 C.ar      1 0YO        -0.0450
     11 C14        38.1000  -13.0730   25.4250 C.2       1 0YO         0.0781
     12 C15        38.5610  -11.8900   24.9850 C.2       1 0YO        -0.0547
     13 C16        38.5160  -13.4630   23.4580 C.2       1 0YO         0.0729
     14 C19        39.2930  -13.2200   21.0360 C.3       1 0YO         0.0437
     15 C20        38.6990  -14.1720   22.1290 C.3       1 0YO         0.0320
     16 C21        37.6200  -10.3410   28.8580 C.3       1 0YO         0.0625
     17 C17        38.8380  -12.1340   23.6810 C.2       1 0YO         0.0424
     18 C18        39.3220  -11.3200   22.6690 C.2       1 0YO         0.1757
     19 O1         39.5790  -10.1260   22.8500 O.2       1 0YO        -0.4039
     20 N5         39.4900  -11.8730   21.4920 N.am      1 0YO        -0.2897
     21 N4         38.0440  -14.0790   24.5320 N.pl3     1 0YO        -0.2694
     22 C4         37.6240  -13.4180   26.8400 C.ar      1 0YO         0.1043
     23 N2         37.1990  -14.7820   27.0450 N.ar      1 0YO        -0.2756
     24 N1         36.7320  -14.2280   29.4580 N.ar      1 0YO        -0.2807
     25 C5         36.3550  -16.4610   28.5310 C.ar      1 0YO         0.0417
     26 N3         35.1390  -17.9680   30.0350 N.ar      1 0YO        -0.2929
     27 C6         35.6960  -16.7520   29.7840 C.ar      1 0YO         0.0229
     28 O2         37.9540  -11.2280   27.9380 O.3       1 0YO        -0.3084
     29 H          37.0822  -12.3486   30.0856 H         1 0YO         0.0817
     30 H          36.9767  -17.2538   26.5707 H         1 0YO         0.0801
     31 H          34.1152  -20.3781   30.2734 H         1 0YO         0.0646
     32 H          34.2950  -22.3326   28.5687 H         1 0YO         0.0657
     33 H          35.5918  -21.9686   26.3460 H         1 0YO         0.0643
     34 H          36.6070  -19.6170   25.8158 H         1 0YO         0.0660
     35 H          38.6826  -10.9606   25.5413 H         1 0YO         0.0389
     36 H          38.5810  -13.1849   20.2114 H         1 0YO         0.0547
     37 H          40.2688  -13.6153   20.7538 H         1 0YO         0.0547
     38 H          37.7227  -14.5165   21.7881 H         1 0YO         0.0509
     39 H          39.3935  -14.9992   22.2757 H         1 0YO         0.0509
     40 H          36.5341  -10.2578   28.9034 H         1 0YO         0.0583
     41 H          38.0018  -10.6630   29.8268 H         1 0YO         0.0583
     42 H          38.0494   -9.3729   28.6003 H         1 0YO         0.0583
     43 H          39.8198  -11.2311   20.7712 H         1 0YO         0.1835
     44 H          37.7280  -15.0417   24.6490 H         1 0YO         0.2348
     45 H          35.6438  -15.9767   30.5484 H         1 0YO         0.0887
@<TRIPOS>BOND
     1    1   23 ar 
     2   24    1 ar 
     3    1   25 1  
     4    3    2 ar 
     5    2   24 ar 
     6   22    3 ar 
     7    3   28 1  
     8    4    5 ar 
     9   25    4 ar 
    10    5    6 ar 
    11    5   10 ar 
    12    6    7 ar 
    13    6   26 ar 
    14    7    8 ar 
    15    9    8 ar 
    16   10    9 ar 
    17   12   11 2  
    18   11   21 1  
    19   11   22 1  
    20   17   12 1  
    21   13   15 1  
    22   13   17 2  
    23   13   21 1  
    24   15   14 1  
    25   14   20 1  
    26   28   16 1  
    27   17   18 1  
    28   18   19 2  
    29   18   20 am 
    30   22   23 ar 
    31   25   27 ar 
    32   26   27 ar 
    33    2   29 1  
    34    4   30 1  
    35    7   31 1  
    36    8   32 1  
    37    9   33 1  
    38   10   34 1  
    39   12   35 1  
    40   14   36 1  
    41   14   37 1  
    42   15   38 1  
    43   15   39 1  
    44   16   40 1  
    45   16   41 1  
    46   16   42 1  
    47   20   43 1  
    48   21   44 1  
    49   27   45 1  
@<TRIPOS>SUBSTRUCTURE
     1 0YO         1

