### 
### Created by X-TOOL on Mon Sep 10 21:13:11 2018
### 

@<TRIPOS>MOLECULE
4hgs_ligand
   45    48     1     0     0
SMALL
GAST_HUCK


@<TRIPOS>ATOM
      1 C1         34.1660  -21.0210   28.1160 C.ar      1 15G         0.1531
      2 C2         35.4500  -20.9500   27.4130 C.ar      1 15G        -0.0385
      3 C3         36.1820  -19.6970   27.5760 C.ar      1 15G        -0.0386
      4 C7         37.6410  -10.3210   27.9430 C.3       1 15G         0.0596
      5 C8         38.3890  -12.2310   24.7490 C.2       1 15G        -0.0610
      6 C9         38.5870  -12.5050   23.3940 C.2       1 15G         0.0373
      7 C10        39.1700  -11.6900   22.4480 C.2       1 15G         0.1742
      8 C11        38.3700  -13.2660   20.7700 C.3       1 15G         0.0432
      9 C12        38.1230  -14.3950   21.7660 C.3       1 15G         0.0301
     10 C13        38.0790  -13.7710   23.1420 C.2       1 15G         0.0689
     11 C14        37.7630  -13.3850   25.2070 C.2       1 15G         0.0594
     12 C15        37.3400  -13.6150   26.6320 C.ar      1 15G         0.0334
     13 C16        36.6440  -14.8680   26.9530 C.ar      1 15G        -0.0374
     14 C19        36.2970  -15.0460   28.3180 C.ar      1 15G         0.0385
     15 C20        35.5510  -16.2660   28.6430 C.3       1 15G         0.1116
     16 O1         39.6840  -10.6100   22.7060 O.2       1 15G        -0.4043
     17 N2         39.1570  -12.1270   21.2490 N.am      1 15G        -0.2900
     18 N3         37.5720  -14.3120   24.2540 N.pl3     1 15G        -0.2731
     19 C17        37.6100  -12.6880   27.7260 C.ar      1 15G         0.1147
     20 C18        37.2010  -13.0030   29.1040 C.ar      1 15G         0.0238
     21 N1         36.5670  -14.1620   29.3620 N.ar      1 15G        -0.3159
     22 O2         38.2750  -11.4370   27.6040 O.3       1 15G        -0.3187
     23 O3         36.3100  -17.4170   28.5540 O.3       1 15G        -0.3086
     24 C4         35.6000  -18.6190   28.4090 C.ar      1 15G         0.0881
     25 C5         34.3130  -18.7310   29.1000 C.ar      1 15G        -0.0012
     26 C6         33.6150  -19.9420   28.9340 C.ar      1 15G         0.1569
     27 F1         33.4620  -22.1380   28.0060 F         1 15G        -0.1937
     28 F2         32.4690  -20.1030   29.4970 F         1 15G        -0.1871
     29 H1         35.8296  -21.7700   26.8141 H         1 15G         0.0566
     30 H2         37.1419  -19.5570   27.0922 H         1 15G         0.0499
     31 H3         38.3055   -9.4590   27.7837 H         1 15G         0.0578
     32 H4         37.3528  -10.3707   29.0034 H         1 15G         0.0578
     33 H5         36.7395  -10.2086   27.3228 H         1 15G         0.0578
     34 H6         38.6580  -11.3360   25.3080 H         1 15G         0.0347
     35 H7         37.3897  -12.8829   20.4504 H         1 15G         0.0546
     36 H8         38.8963  -13.6943   19.9043 H         1 15G         0.0546
     37 H9         38.9382  -15.1315   21.7115 H         1 15G         0.0501
     38 H10        37.1659  -14.8903   21.5454 H         1 15G         0.0501
     39 H11        36.4105  -15.6087   26.1967 H         1 15G         0.0565
     40 H12        34.7046  -16.3525   27.9458 H         1 15G         0.0782
     41 H13        35.1713  -16.1782   29.6716 H         1 15G         0.0782
     42 H14        39.7313  -11.6529   20.5816 H         1 15G         0.1834
     43 H15        37.1313  -15.2372   24.3575 H         1 15G         0.2338
     44 H16        37.4092  -12.3053   29.9071 H         1 15G         0.0692
     45 H17        33.9191  -17.9239   29.7070 H         1 15G         0.0518
@<TRIPOS>BOND
     1    2    1 ar 
     2    1   26 ar 
     3    1   27 1  
     4    3    2 ar 
     5   24    3 ar 
     6   22    4 1  
     7    5    6 1  
     8   11    5 2  
     9    6    7 1  
    10   10    6 2  
    11    7   16 2  
    12    7   17 am 
    13    9    8 1  
    14    8   17 1  
    15   10    9 1  
    16   18   10 1  
    17   12   11 1  
    18   11   18 1  
    19   13   12 ar 
    20   12   19 ar 
    21   14   13 ar 
    22   15   14 1  
    23   14   21 ar 
    24   23   15 1  
    25   20   19 ar 
    26   19   22 1  
    27   21   20 ar 
    28   23   24 1  
    29   24   25 ar 
    30   25   26 ar 
    31   26   28 1  
    32    2   29 1  
    33    3   30 1  
    34    4   31 1  
    35    4   32 1  
    36    4   33 1  
    37    5   34 1  
    38    8   35 1  
    39    8   36 1  
    40    9   37 1  
    41    9   38 1  
    42   13   39 1  
    43   15   40 1  
    44   15   41 1  
    45   17   42 1  
    46   18   43 1  
    47   20   44 1  
    48   25   45 1  
@<TRIPOS>SUBSTRUCTURE
     1 15G         1

