### 
### Created by X-TOOL on Mon Sep 10 21:13:11 2018
### 

@<TRIPOS>MOLECULE
4hgt_ligand
   45    48     1     0     0
SMALL
GAST_HUCK


@<TRIPOS>ATOM
      1 C1         -0.9820    8.1040   12.8520 C.ar      1 15G         0.1531
      2 C2         -0.7780    6.8250   12.2190 C.ar      1 15G        -0.0385
      3 C3         -0.2370    5.8090   13.0790 C.ar      1 15G        -0.0386
      4 C7          4.1620   -0.3890   18.6340 C.3       1 15G         0.0596
      5 C8          4.4810    3.5220   20.3760 C.2       1 15G        -0.0610
      6 C9          4.4740    4.4930   21.3860 C.2       1 15G         0.0373
      7 C10         5.2770    4.5580   22.5200 C.2       1 15G         0.1742
      8 C11         3.6680    6.2930   23.3900 C.3       1 15G         0.0432
      9 C12         3.1720    6.6180   21.9760 C.3       1 15G         0.0301
     10 C13         3.4990    5.4470   21.0870 C.2       1 15G         0.0689
     11 C14         3.4670    3.9620   19.4830 C.2       1 15G         0.0594
     12 C15         3.0220    3.2370   18.2230 C.ar      1 15G         0.0334
     13 C16         2.2450    4.0070   17.2670 C.ar      1 15G        -0.0374
     14 C19         1.8020    3.2910   16.0940 C.ar      1 15G         0.0385
     15 C20         0.9770    3.9590   15.0410 C.3       1 15G         0.1116
     16 O1          6.2290    3.7960   22.6910 O.2       1 15G        -0.4043
     17 N2          4.9390    5.5250   23.3950 N.am      1 15G        -0.2900
     18 N3          2.8810    5.1360   19.9220 N.pl3     1 15G        -0.2731
     19 C17         3.2810    1.8240   17.8960 C.ar      1 15G         0.1147
     20 C18         2.7880    1.2040   16.6740 C.ar      1 15G         0.0238
     21 N1          2.0630    1.9850   15.8310 N.ar      1 15G        -0.3159
     22 O2          4.0220    1.0410   18.7930 O.3       1 15G        -0.3187
     23 O3          0.6120    5.2680   15.4450 O.3       1 15G        -0.3086
     24 C4          0.0650    6.1110   14.4730 C.ar      1 15G         0.0881
     25 C5         -0.1470    7.3810   15.0680 C.ar      1 15G        -0.0012
     26 C6         -0.6760    8.3670   14.2250 C.ar      1 15G         0.1569
     27 F1         -1.4920    9.1720   12.1990 F         1 15G        -0.1937
     28 F2         -0.8840    9.5770   14.7340 F         1 15G        -0.1871
     29 H          -1.0154    6.6431   11.1708 H         1 15G         0.0566
     30 H          -0.0517    4.8087   12.6877 H         1 15G         0.0499
     31 H           3.1769   -0.8547   18.6631 H         1 15G         0.0578
     32 H           4.6379   -0.6020   17.6768 H         1 15G         0.0578
     33 H           4.7764   -0.7848   19.4427 H         1 15G         0.0578
     34 H           5.1142    2.6385   20.2945 H         1 15G         0.0347
     35 H           2.9081    5.6818   23.8768 H         1 15G         0.0546
     36 H           3.8476    7.2369   23.9047 H         1 15G         0.0546
     37 H           3.6583    7.5200   21.6045 H         1 15G         0.0501
     38 H           2.0964    6.7945   21.9857 H         1 15G         0.0501
     39 H           2.0110    5.0597   17.4254 H         1 15G         0.0565
     40 H           0.0710    3.3747   14.8801 H         1 15G         0.0782
     41 H           1.5622    4.0239   14.1237 H         1 15G         0.0782
     42 H           5.6153    5.7493   24.1248 H         1 15G         0.1834
     43 H           2.1362    5.6601   19.4626 H         1 15G         0.2338
     44 H           2.9919    0.1579   16.4453 H         1 15G         0.0692
     45 H           0.0868    7.5773   16.1144 H         1 15G         0.0518
@<TRIPOS>BOND
     1    2    1 ar 
     2    1   26 ar 
     3    1   27 1  
     4    3    2 ar 
     5   24    3 ar 
     6   22    4 1  
     7    5    6 1  
     8   11    5 2  
     9    6    7 1  
    10   10    6 2  
    11    7   16 2  
    12    7   17 am 
    13    9    8 1  
    14    8   17 1  
    15   10    9 1  
    16   18   10 1  
    17   12   11 1  
    18   11   18 1  
    19   13   12 ar 
    20   12   19 ar 
    21   14   13 ar 
    22   15   14 1  
    23   14   21 ar 
    24   23   15 1  
    25   20   19 ar 
    26   19   22 1  
    27   21   20 ar 
    28   23   24 1  
    29   24   25 ar 
    30   25   26 ar 
    31   26   28 1  
    32    2   29 1  
    33    3   30 1  
    34    4   31 1  
    35    4   32 1  
    36    4   33 1  
    37    5   34 1  
    38    8   35 1  
    39    8   36 1  
    40    9   37 1  
    41    9   38 1  
    42   13   39 1  
    43   15   40 1  
    44   15   41 1  
    45   17   42 1  
    46   18   43 1  
    47   20   44 1  
    48   25   45 1  
@<TRIPOS>SUBSTRUCTURE
     1 15G         1

