### 
### Created by X-TOOL on Mon Sep 10 21:13:15 2018
### 

@<TRIPOS>MOLECULE
4hhy_ligand
   73    79     1     0     0
SMALL
GAST_HUCK


@<TRIPOS>ATOM
      1 OAA       -35.3240  -53.6710   -7.5800 O.2       1 15R        -0.3886
      2 CBA       -36.1040  -53.6110   -6.3990 C.2       1 15R         0.1987
      3 NAY       -36.4110  -52.2410   -5.9880 N.am      1 15R        -0.2832
      4 CAV       -37.1200  -52.1450   -4.7150 C.3       1 15R         0.0630
      5 CBO       -38.4410  -53.0180   -4.6640 C.3       1 15R         0.0997
      6 CBJ       -38.2330  -54.3530   -5.4430 C.ar      1 15R         0.0068
      7 CBG       -37.3460  -54.4170   -6.4990 C.ar      1 15R         0.0471
      8 CAJ       -36.8920  -55.7890   -6.7480 C.ar      1 15R        -0.0554
      9 CAH       -37.9270  -56.8170   -6.7660 C.ar      1 15R        -0.0698
     10 CAI       -39.0850  -56.6280   -5.9760 C.ar      1 15R        -0.0624
     11 CBF       -39.3240  -55.2670   -5.5050 C.ar      1 15R        -0.0309
     12 CAP       -40.4200  -55.2510   -4.4620 C.3       1 15R         0.0002
     13 CAS       -40.5170  -53.9700   -3.6990 C.3       1 15R         0.0450
     14 NBQ       -39.2270  -53.2910   -3.4140 N.am      1 15R        -0.2551
     15 CBC       -38.9320  -53.0140   -2.0530 C.2       1 15R         0.1839
     16 OAC       -39.7770  -53.3630   -1.2610 O.2       1 15R        -0.3964
     17 CBN       -37.7420  -52.3350   -1.3850 C.3       1 15R         0.0526
     18 CAR       -36.5930  -53.2230   -1.1110 C.3       1 15R        -0.0127
     19 CAU       -35.5340  -52.5220   -0.3320 C.3       1 15R         0.0356
     20 CAQ       -38.2470  -51.7830   -0.0950 C.3       1 15R        -0.0127
     21 CAT       -37.2470  -50.7850    0.2830 C.3       1 15R         0.0356
     22 NBP       -35.9630  -51.4140    0.5660 N.am      1 15R        -0.2728
     23 CBB       -35.1570  -51.0000    1.5950 C.2       1 15R         0.2052
     24 OAB       -34.1480  -51.5730    1.7050 O.2       1 15R        -0.3868
     25 CBH       -35.4870  -49.9090    2.5090 C.ar      1 15R         0.0771
     26 CAO       -34.5950  -48.8550    2.6270 C.ar      1 15R        -0.0404
     27 CBE       -36.6520  -49.8450    3.2550 C.ar      1 15R         0.1461
     28 FAE       -37.5520  -50.7700    3.2050 F         1 15R        -0.1830
     29 CAL       -36.8940  -48.7420    4.0870 C.ar      1 15R        -0.0285
     30 CAK       -35.9920  -47.7130    4.1990 C.ar      1 15R        -0.0558
     31 CBD       -34.8290  -47.7670    3.4670 C.ar      1 15R        -0.0303
     32 CAW       -33.8390  -46.6950    3.5330 C.3       1 15R         0.0254
     33 CBI       -33.2340  -46.6040    4.8880 C.2       1 15R         0.0655
     34 NAX       -33.4220  -47.5960    5.7340 N.2       1 15R        -0.1830
     35 NAZ       -32.9320  -47.6030    6.9790 N.am      1 15R        -0.1719
     36 CBK       -32.2040  -46.5540    7.4340 C.2       1 15R         0.2361
     37 OAD       -31.7020  -46.5690    8.7220 O.2       1 15R        -0.3937
     38 CBM       -31.9230  -45.3870    6.5980 C.ar      1 15R         0.0610
     39 CBL       -32.4400  -45.4010    5.2980 C.ar      1 15R         0.0126
     40 CAM       -32.1940  -44.2710    4.4390 C.ar      1 15R        -0.0505
     41 CAF       -31.4340  -43.1790    4.9010 C.ar      1 15R        -0.0598
     42 CAG       -30.9070  -43.1780    6.2270 C.ar      1 15R        -0.0589
     43 CAN       -31.1450  -44.2590    7.0710 C.ar      1 15R        -0.0440
     44 H1        -36.1576  -51.4405   -6.5311 H         1 15R         0.1845
     45 H2        -37.3907  -51.0925   -4.5450 H         1 15R         0.0565
     46 H3        -36.4466  -52.4843   -3.9142 H         1 15R         0.0565
     47 H4        -39.1438  -52.4274   -5.2700 H         1 15R         0.0741
     48 H5        -35.8466  -56.0259   -6.9095 H         1 15R         0.0592
     49 H6        -37.8109  -57.7078   -7.3726 H         1 15R         0.0554
     50 H7        -39.7551  -57.4452   -5.7347 H         1 15R         0.0572
     51 H8        -40.2288  -56.0651   -3.7474 H         1 15R         0.0431
     52 H9        -41.3810  -55.4253   -4.9680 H         1 15R         0.0431
     53 H10       -41.0052  -54.1856   -2.7371 H         1 15R         0.0545
     54 H11       -41.1426  -53.2768   -4.2804 H         1 15R         0.0545
     55 H12       -37.3951  -51.5158   -2.0320 H         1 15R         0.0539
     56 H13       -36.1677  -53.5624   -2.0670 H         1 15R         0.0312
     57 H14       -36.9429  -54.0929   -0.5359 H         1 15R         0.0312
     58 H15       -34.8168  -52.1031   -1.0531 H         1 15R         0.0523
     59 H16       -35.0298  -53.2752    0.2913 H         1 15R         0.0523
     60 H17       -38.3171  -52.5733    0.6669 H         1 15R         0.0312
     61 H18       -39.2334  -51.3153   -0.2301 H         1 15R         0.0312
     62 H19       -37.5922  -50.2520    1.1812 H         1 15R         0.0523
     63 H20       -37.1227  -50.0693   -0.5431 H         1 15R         0.0523
     64 H21       -33.6811  -48.8772    2.0444 H         1 15R         0.0600
     65 H22       -37.8160  -48.7010    4.6556 H         1 15R         0.0599
     66 H23       -36.1931  -46.8724    4.8532 H         1 15R         0.0586
     67 H24       -34.3285  -45.7394    3.2938 H         1 15R         0.0573
     68 H25       -33.0450  -46.8942    2.7983 H         1 15R         0.0573
     69 H26       -33.1037  -48.3860    7.5768 H         1 15R         0.2568
     70 H27       -32.5958  -44.2612    3.4322 H         1 15R         0.0617
     71 H28       -31.2485  -42.3353    4.2462 H         1 15R         0.0642
     72 H29       -30.3214  -42.3356    6.5770 H         1 15R         0.0609
     73 H30       -30.7493  -44.2573    8.0802 H         1 15R         0.0659
@<TRIPOS>BOND
     1    1    2 2  
     2    2    3 am 
     3    2    7 1  
     4    3    4 1  
     5    4    5 1  
     6    5    6 1  
     7    5   14 1  
     8    6    7 ar 
     9    6   11 ar 
    10    7    8 ar 
    11    8    9 ar 
    12    9   10 ar 
    13   10   11 ar 
    14   11   12 1  
    15   12   13 1  
    16   13   14 1  
    17   14   15 am 
    18   15   16 2  
    19   15   17 1  
    20   17   18 1  
    21   17   20 1  
    22   18   19 1  
    23   19   22 1  
    24   20   21 1  
    25   21   22 1  
    26   22   23 am 
    27   23   24 2  
    28   23   25 1  
    29   25   26 ar 
    30   25   27 ar 
    31   26   31 ar 
    32   27   28 1  
    33   27   29 ar 
    34   29   30 ar 
    35   30   31 ar 
    36   31   32 1  
    37   32   33 1  
    38   33   34 2  
    39   33   39 1  
    40   34   35 1  
    41   35   36 am 
    42   36   37 2  
    43   36   38 1  
    44   38   39 ar 
    45   38   43 ar 
    46   39   40 ar 
    47   40   41 ar 
    48   41   42 ar 
    49   42   43 ar 
    50    3   44 1  
    51    4   45 1  
    52    4   46 1  
    53    5   47 1  
    54    8   48 1  
    55    9   49 1  
    56   10   50 1  
    57   12   51 1  
    58   12   52 1  
    59   13   53 1  
    60   13   54 1  
    61   17   55 1  
    62   18   56 1  
    63   18   57 1  
    64   19   58 1  
    65   19   59 1  
    66   20   60 1  
    67   20   61 1  
    68   21   62 1  
    69   21   63 1  
    70   26   64 1  
    71   29   65 1  
    72   30   66 1  
    73   32   67 1  
    74   32   68 1  
    75   35   69 1  
    76   40   70 1  
    77   41   71 1  
    78   42   72 1  
    79   43   73 1  
@<TRIPOS>SUBSTRUCTURE
     1 15R         1

