### 
### Created by X-TOOL on Mon Sep 10 21:13:15 2018
### 

@<TRIPOS>MOLECULE
4hhz_ligand
   70    74     1     0     0
SMALL
GAST_HUCK


@<TRIPOS>ATOM
      1 OAC       -34.9940   53.5700  -63.3930 O.3       1 15S        -0.3421
      2 CAX       -35.4420   53.4960  -64.6590 C.3       1 15S         0.1116
      3 NAU       -35.5980   52.0180  -65.0170 N.4       1 15S         0.2652
      4 CAS       -36.2780   51.8500  -66.2980 C.3       1 15S         0.0219
      5 CBG       -37.6960   52.4870  -66.2440 C.3       1 15S         0.0513
      6 CBE       -37.7110   53.9110  -65.7010 C.ar      1 15S         0.0212
      7 CBD       -36.6490   54.3570  -64.9250 C.ar      1 15S         0.0335
      8 CAI       -36.6970   55.7420  -64.4020 C.ar      1 15S        -0.0656
      9 CAG       -37.7860   56.5620  -64.6590 C.ar      1 15S        -0.0817
     10 CAH       -38.8680   56.0880  -65.4270 C.ar      1 15S        -0.0733
     11 CBC       -38.8050   54.7110  -65.9500 C.ar      1 15S        -0.0367
     12 CAP       -39.9360   54.2050  -66.7560 C.3       1 15S         0.0174
     13 CAR       -39.5170   53.3210  -67.8590 C.3       1 15S        -0.0200
     14 NBI       -38.5820   52.2510  -67.4910 N.4       1 15S         0.2688
     15 CAT       -39.0830   50.9360  -67.7440 C.3       1 15S         0.0599
     16 CAW       -38.8220   50.3780  -69.1310 C.2       1 15S         0.2238
     17 OAB       -38.8270   49.1730  -69.3270 O.2       1 15S        -0.3910
     18 N         -38.5750   51.3370  -70.1850 N.am      1 15S        -0.2615
     19 CA        -38.3670   50.9460  -71.5320 C.3       1 15S         0.1283
     20 CB        -39.0370   51.9220  -72.3390 C.3       1 15S        -0.0244
     21 C         -36.8840   51.0110  -71.9150 C.2       1 15S         0.2038
     22 O         -36.4010   52.0790  -71.9620 O.2       1 15S        -0.3943
     23 NBH       -36.1160   49.8080  -72.2550 N.am      1 15S        -0.2710
     24 CAQ       -34.6900   49.9260  -72.6350 C.3       1 15S         0.0359
     25 CAO       -34.2450   48.9980  -73.7070 C.3       1 15S        -0.0204
     26 CAN       -36.6540   48.4790  -72.2260 C.3       1 15S         0.0359
     27 CAF       -36.1850   47.6100  -73.3550 C.3       1 15S        -0.0204
     28 CAY       -35.4110   48.3980  -74.3680 C.3       1 15S        -0.0056
     29 CBB       -35.0380   47.6390  -75.6660 C.ar      1 15S        -0.0437
     30 CAL       -33.8140   47.8800  -76.3360 C.ar      1 15S        -0.0617
     31 CAJ       -33.5050   47.2120  -77.5040 C.ar      1 15S        -0.0349
     32 CBA       -34.4040   46.2870  -78.0230 C.ar      1 15S         0.1248
     33 FAE       -34.1300   45.6540  -79.1210 F         1 15S        -0.1893
     34 CAK       -35.6020   46.0570  -77.3820 C.ar      1 15S        -0.0349
     35 CAM       -35.9160   46.7500  -76.1900 C.ar      1 15S        -0.0617
     36 H1        -34.8893   54.4819  -63.1481 H         1 15S         0.2183
     37 H2        -34.6467   53.8950  -65.3058 H         1 15S         0.1336
     38 H3        -36.1362   51.5611  -64.2975 H         1 15S         0.2058
     39 H4        -34.6845   51.5957  -65.0726 H         1 15S         0.2058
     40 H5        -36.3705   50.7770  -66.5218 H         1 15S         0.0892
     41 H6        -35.6900   52.3400  -67.0880 H         1 15S         0.0892
     42 H7        -38.2064   51.9077  -65.4605 H         1 15S         0.1039
     43 H8        -35.8706   56.1196  -63.8109 H         1 15S         0.0484
     44 H9        -37.8046   57.5725  -64.2670 H         1 15S         0.0525
     45 H10       -39.7254   56.7200  -65.6283 H         1 15S         0.0482
     46 H11       -40.4729   55.0650  -67.1827 H         1 15S         0.0462
     47 H12       -40.6115   53.6422  -66.0950 H         1 15S         0.0462
     48 H13       -39.0346   53.9431  -68.6273 H         1 15S         0.0837
     49 H14       -40.4192   52.8528  -68.2795 H         1 15S         0.0837
     50 H15       -37.8911   52.3347  -68.2202 H         1 15S         0.2072
     51 H16       -40.1718   50.9555  -67.5889 H         1 15S         0.1063
     52 H17       -38.6209   50.2541  -67.0149 H         1 15S         0.1063
     53 H18       -38.5500   52.3101  -69.9558 H         1 15S         0.1884
     54 H19       -38.7651   49.9354  -71.7059 H         1 15S         0.0797
     55 H20       -38.9093   51.6690  -73.4019 H         1 15S         0.0277
     56 H21       -38.6076   52.9159  -72.1446 H         1 15S         0.0277
     57 H22       -40.1085   51.9304  -72.0903 H         1 15S         0.0277
     58 H23       -34.0813   49.7298  -71.7400 H         1 15S         0.0524
     59 H24       -34.5133   50.9553  -72.9802 H         1 15S         0.0524
     60 H25       -33.6266   48.2022  -73.2663 H         1 15S         0.0308
     61 H26       -33.6527   49.5547  -74.4481 H         1 15S         0.0308
     62 H27       -37.7508   48.5479  -72.2743 H         1 15S         0.0524
     63 H28       -36.3577   48.0057  -71.2783 H         1 15S         0.0524
     64 H29       -37.0596   47.1581  -73.8457 H         1 15S         0.0308
     65 H30       -35.5401   46.8158  -72.9510 H         1 15S         0.0308
     66 H31       -36.0636   49.2251  -74.6843 H         1 15S         0.0455
     67 H32       -33.1116   48.5972  -75.9271 H         1 15S         0.0547
     68 H33       -32.5680   47.4073  -78.0129 H         1 15S         0.0587
     69 H34       -36.3060   45.3425  -77.7929 H         1 15S         0.0587
     70 H35       -36.8626   46.5693  -75.6937 H         1 15S         0.0547
@<TRIPOS>BOND
     1    1    2 1  
     2    2    3 1  
     3    2    7 1  
     4    3    4 1  
     5    4    5 1  
     6    5    6 1  
     7    5   14 1  
     8    6    7 ar 
     9    6   11 ar 
    10    7    8 ar 
    11    8    9 ar 
    12    9   10 ar 
    13   10   11 ar 
    14   11   12 1  
    15   12   13 1  
    16   13   14 1  
    17   14   15 1  
    18   15   16 1  
    19   16   17 2  
    20   16   18 am 
    21   18   19 1  
    22   19   20 1  
    23   19   21 1  
    24   21   22 2  
    25   21   23 am 
    26   23   24 1  
    27   23   26 1  
    28   24   25 1  
    29   25   28 1  
    30   26   27 1  
    31   27   28 1  
    32   28   29 1  
    33   29   30 ar 
    34   29   35 ar 
    35   30   31 ar 
    36   31   32 ar 
    37   32   33 1  
    38   32   34 ar 
    39   34   35 ar 
    40    1   36 1  
    41    2   37 1  
    42    3   38 1  
    43    3   39 1  
    44    4   40 1  
    45    4   41 1  
    46    5   42 1  
    47    8   43 1  
    48    9   44 1  
    49   10   45 1  
    50   12   46 1  
    51   12   47 1  
    52   13   48 1  
    53   13   49 1  
    54   14   50 1  
    55   15   51 1  
    56   15   52 1  
    57   18   53 1  
    58   19   54 1  
    59   20   55 1  
    60   20   56 1  
    61   20   57 1  
    62   24   58 1  
    63   24   59 1  
    64   25   60 1  
    65   25   61 1  
    66   26   62 1  
    67   26   63 1  
    68   27   64 1  
    69   27   65 1  
    70   28   66 1  
    71   30   67 1  
    72   31   68 1  
    73   34   69 1  
    74   35   70 1  
@<TRIPOS>SUBSTRUCTURE
     1 15S         1

