### 
### Created by X-TOOL on Mon Sep 10 21:13:12 2018
### 

@<TRIPOS>MOLECULE
4hiq_ligand
   37    38     1     0     0
SMALL
GAST_HUCK


@<TRIPOS>ATOM
      1 OAC        -0.5890    0.0640   -0.4960 O.co2     1 16V        -0.5618
      2 CAO         0.5680   -0.3980   -0.3480 C.2       1 16V         0.0577
      3 OAD         1.0590   -0.4220    0.8060 O.co2     1 16V        -0.5618
      4 CAS         1.2980   -0.8480   -1.4620 C.ar      1 16V        -0.0026
      5 CAH         0.7420   -0.6870   -2.7280 C.ar      1 16V        -0.0206
      6 CAG         2.5640   -1.4490   -1.3600 C.ar      1 16V        -0.0605
      7 CAF         3.2410   -1.9000   -2.4930 C.ar      1 16V        -0.0330
      8 CAR         2.6430   -1.7580   -3.7450 C.ar      1 16V         0.1626
      9 FAE         3.3390   -2.1880   -4.8290 F         1 16V        -0.1877
     10 CAT         1.3930   -1.1400   -3.8690 C.ar      1 16V         0.1281
     11 OAN         0.8870   -1.0260   -5.1350 O.3       1 16V        -0.3171
     12 CAJ         0.2230    0.2290   -5.2970 C.3       1 16V         0.0704
     13 CAI         0.2220    0.7450   -6.7170 C.3       1 16V        -0.0226
     14 CAK        -0.5960   -0.1460   -7.6320 C.3       1 16V        -0.0368
     15 CAU        -0.3070   -0.0440   -9.2050 C.2       1 16V        -0.0319
     16 CAP         0.0010   -1.1180   -9.9840 C.2       1 16V         0.0547
     17 CAA         0.1130   -2.6000   -9.5620 C.3       1 16V        -0.0087
     18 NAL         0.1870   -0.7170  -11.2410 N.pl3     1 16V        -0.2367
     19 NAM         0.0090    0.6190  -11.2790 N.2       1 16V        -0.2491
     20 CAQ        -0.2960    1.0370  -10.0450 C.2       1 16V        -0.0055
     21 CAB        -0.5750    2.5170   -9.7330 C.3       1 16V        -0.0320
     22 H1         -0.2202   -0.1974   -2.8259 H         1 16V         0.0562
     23 H2          3.0222   -1.5641   -0.3844 H         1 16V         0.0548
     24 H3          4.2204   -2.3555   -2.4016 H         1 16V         0.0582
     25 H4          0.7259    0.9712   -4.6597 H         1 16V         0.0613
     26 H5         -0.8210    0.1127   -4.9706 H         1 16V         0.0613
     27 H6          1.2579    0.7802   -7.0852 H         1 16V         0.0302
     28 H7         -0.2060    1.7582   -6.7288 H         1 16V         0.0302
     29 H8         -1.6560    0.1016   -7.4738 H         1 16V         0.0323
     30 H9         -0.4136   -1.1876   -7.3291 H         1 16V         0.0323
     31 H10         0.3786   -3.2113  -10.4371 H         1 16V         0.0412
     32 H11        -0.8514   -2.9397   -9.1565 H         1 16V         0.0412
     33 H12         0.8916   -2.7042   -8.7920 H         1 16V         0.0412
     34 H13         0.4245   -1.3203  -12.0413 H         1 16V         0.2446
     35 H14        -0.4765    3.1107  -10.6538 H         1 16V         0.0367
     36 H15         0.1476    2.8768   -8.9858 H         1 16V         0.0367
     37 H16        -1.5956    2.6221   -9.3364 H         1 16V         0.0367
@<TRIPOS>BOND
     1    1    2 ar 
     2    2    3 ar 
     3    2    4 1  
     4    4    5 ar 
     5    4    6 ar 
     6    5   10 ar 
     7    6    7 ar 
     8    7    8 ar 
     9    8    9 1  
    10    8   10 ar 
    11   10   11 1  
    12   11   12 1  
    13   12   13 1  
    14   13   14 1  
    15   14   15 1  
    16   15   16 2  
    17   15   20 1  
    18   16   17 1  
    19   16   18 1  
    20   18   19 1  
    21   19   20 2  
    22   20   21 1  
    23    5   22 1  
    24    6   23 1  
    25    7   24 1  
    26   12   25 1  
    27   12   26 1  
    28   13   27 1  
    29   13   28 1  
    30   14   29 1  
    31   14   30 1  
    32   17   31 1  
    33   17   32 1  
    34   17   33 1  
    35   18   34 1  
    36   21   35 1  
    37   21   36 1  
    38   21   37 1  
@<TRIPOS>SUBSTRUCTURE
     1 16V         1

