### 
### Created by X-TOOL on Mon Sep 10 21:13:12 2018
### 

@<TRIPOS>MOLECULE
4his_ligand
   26    28     1     0     0
SMALL
GAST_HUCK


@<TRIPOS>ATOM
      1 OAA        -0.4960    0.7860    0.4060 O.co2     1 3MI        -0.5621
      2 OAB        -2.0390    1.9230   -0.5970 O.co2     1 3MI        -0.5621
      3 CAE         0.2140   -0.4800   -1.8940 C.ar      1 3MI        -0.0602
      4 CAF         0.6470   -1.0250   -3.0910 C.ar      1 3MI        -0.0541
      5 CAG         0.0020    0.0130  -10.4790 C.ar      1 3MI        -0.0294
      6 CAH         0.3700   -1.1200   -8.3480 C.ar      1 3MI        -0.0282
      7 CAI        -0.3830    1.1500   -8.3570 C.ar      1 3MI        -0.0282
      8 CAJ        -1.0050    1.1780   -3.1230 C.ar      1 3MI        -0.0130
      9 NAK         0.5550   -0.8230   -5.4960 N.2       1 3MI        -0.2845
     10 OAL        -0.7240    0.9400   -5.5870 O.3       1 3MI        -0.2196
     11 CAM        -1.0610    1.1380   -0.6590 C.2       1 3MI         0.0578
     12 CAN         0.3620   -1.1180   -9.7460 C.ar      1 3MI         0.0465
     13 CAO        -0.3610    1.1410   -9.7500 C.ar      1 3MI         0.0465
     14 CAP        -0.6360    0.6190   -1.8930 C.ar      1 3MI         0.0002
     15 CAQ        -0.0010    0.0220   -7.6450 C.ar      1 3MI         0.0487
     16 CAR        -0.0340    0.0410   -6.3130 C.2       1 3MI         0.2051
     17 CAS         0.2670   -0.4700   -4.2400 C.ar      1 3MI         0.0523
     18 CAT        -0.5390    0.6130   -4.2570 C.ar      1 3MI         0.1479
     19 CLC         0.7960   -2.5700  -10.6060 Cl        1 3MI        -0.0695
     20 CLD        -0.7890    2.5770  -10.6070 Cl        1 3MI        -0.0695
     21 H1          0.5393   -0.9122   -0.9546 H         1 3MI         0.0565
     22 H2          1.2907   -1.8972   -3.0926 H         1 3MI         0.0568
     23 H3          0.0049    0.0130  -11.5630 H         1 3MI         0.0665
     24 H4          0.6660   -2.0135   -7.8103 H         1 3MI         0.0677
     25 H5         -0.6997    2.0413   -7.8276 H         1 3MI         0.0677
     26 H6         -1.6518    2.0469   -3.1636 H         1 3MI         0.0601
@<TRIPOS>BOND
     1   11    1 ar 
     2   11    2 ar 
     3    4    3 ar 
     4   14    3 ar 
     5   17    4 ar 
     6   12    5 ar 
     7   13    5 ar 
     8    6   12 ar 
     9   15    6 ar 
    10    7   13 ar 
    11   15    7 ar 
    12    8   14 ar 
    13   18    8 ar 
    14   16    9 2  
    15    9   17 1  
    16   16   10 1  
    17   10   18 1  
    18   14   11 1  
    19   12   19 1  
    20   13   20 1  
    21   15   16 1  
    22   17   18 ar 
    23    3   21 1  
    24    4   22 1  
    25    5   23 1  
    26    6   24 1  
    27    7   25 1  
    28    8   26 1  
@<TRIPOS>SUBSTRUCTURE
     1 3MI         1

