### 
### Created by X-TOOL on Mon Sep 10 21:13:15 2018
### 

@<TRIPOS>MOLECULE
4hj2_ligand
   71    71     1     0     0
SMALL
GAST_HUCK


@<TRIPOS>ATOM
      1 O37        20.2430   -9.3460   14.8090 O.co2     1 LZ6        -0.5643
      2 C35        20.9510   -8.3690   15.1360 C.2       1 LZ6         0.0846
      3 O36        20.5780   -7.1780   15.2000 O.co2     1 LZ6        -0.5643
      4 C34        22.4090   -8.6620   15.5000 C.3       1 LZ6         0.0304
      5 N38        23.2480   -7.5140   15.1270 N.4       1 LZ6         0.2328
      6 C33        22.5270   -8.9150   17.0040 C.3       1 LZ6         0.0193
      7 C32        21.7180  -10.1420   17.4290 C.3       1 LZ6         0.0441
      8 C30        21.9160  -10.4330   18.9190 C.2       1 LZ6         0.1785
      9 O31        22.6010   -9.6940   19.6240 O.2       1 LZ6        -0.3969
     10 N29        21.3050  -11.5220   19.3750 N.am      1 LZ6        -0.2648
     11 C21        21.4220  -11.9130   20.7870 C.3       1 LZ6         0.1397
     12 C22        21.8320  -13.3830   20.8930 C.2       1 LZ6         0.2040
     13 O28        21.2070  -14.2550   20.2880 O.2       1 LZ6        -0.3944
     14 N23        22.8730  -13.6170   21.6850 N.am      1 LZ6        -0.2722
     15 C24        23.4040  -14.9710   21.9030 C.3       1 LZ6         0.0833
     16 C25        24.8550  -15.0430   21.4230 C.2       1 LZ6         0.0570
     17 O27        25.4750  -16.1040   21.6540 O.co2     1 LZ6        -0.5669
     18 O26        25.3080  -14.0370   20.8350 O.co2     1 LZ6        -0.5669
     19 C20        20.0780  -11.7240   21.4920 C.3       1 LZ6         0.0341
     20 S13        19.4430  -10.0090   21.4320 S.3       1 LZ6        -0.1541
     21 C12        18.3020  -10.1450   22.8530 C.3       1 LZ6         0.0133
     22 C11        19.0720  -10.2350   24.1720 C.3       1 LZ6         0.0345
     23 N7         19.7490   -8.9510   24.3910 N.pl3     1 LZ6        -0.3106
     24 C8         21.1630   -8.7720   24.0240 C.3       1 LZ6         0.0389
     25 C9         22.0660   -9.5010   25.0210 C.3       1 LZ6         0.0420
     26 CL10       21.8450  -11.0150   24.9820 Cl        1 LZ6        -0.1234
     27 C1         19.0390   -7.9450   24.8940 C.ar      1 LZ6         0.0335
     28 C6         17.6980   -8.1610   25.1850 C.ar      1 LZ6        -0.0506
     29 C5         16.9150   -7.1250   25.6790 C.ar      1 LZ6        -0.0716
     30 C4         17.4790   -5.8710   25.8810 C.ar      1 LZ6        -0.0557
     31 C3         18.8230   -5.6540   25.5950 C.ar      1 LZ6        -0.0716
     32 C2         19.6060   -6.6920   25.1000 C.ar      1 LZ6        -0.0506
     33 C14        16.5880   -4.7400   26.3940 C.3       1 LZ6        -0.0237
     34 C15        17.0720   -4.1870   27.7370 C.3       1 LZ6        -0.0334
     35 C16        16.0120   -3.2660   28.3460 C.3       1 LZ6         0.0018
     36 C17        15.6090   -2.1410   27.3920 C.2       1 LZ6         0.0349
     37 O18        15.1870   -2.4710   26.2620 O.co2     1 LZ6        -0.5690
     38 O19        15.7120   -0.9690   27.8170 O.co2     1 LZ6        -0.5690
     39 H1         22.7481   -9.5544   14.9536 H         1 LZ6         0.1026
     40 H2         24.2078   -7.7073   15.3668 H         1 LZ6         0.2010
     41 H3         22.9361   -6.6943   15.6239 H         1 LZ6         0.2010
     42 H4         23.1755   -7.3532   14.1346 H         1 LZ6         0.2010
     43 H5         22.1521   -8.0341   17.5456 H         1 LZ6         0.0363
     44 H6         23.5848   -9.0785   17.2575 H         1 LZ6         0.0363
     45 H7         22.0492  -11.0128   16.8442 H         1 LZ6         0.0505
     46 H8         20.6512   -9.9552   17.2365 H         1 LZ6         0.0505
     47 H9         20.7598  -12.0813   18.7505 H         1 LZ6         0.1883
     48 H10        22.1826  -11.2853   21.2743 H         1 LZ6         0.0808
     49 H11        23.3102  -12.8463   22.1485 H         1 LZ6         0.1873
     50 H12        22.7972  -15.6960   21.3408 H         1 LZ6         0.0689
     51 H13        23.3620  -15.2113   22.9756 H         1 LZ6         0.0689
     52 H14        20.1968  -12.0124   22.5468 H         1 LZ6         0.0424
     53 H15        19.3397  -12.3835   21.0124 H         1 LZ6         0.0424
     54 H16        17.6865  -11.0489   22.7341 H         1 LZ6         0.0395
     55 H17        17.6510   -9.2586   22.8770 H         1 LZ6         0.0395
     56 H18        19.8152  -11.0440   24.1159 H         1 LZ6         0.0519
     57 H19        18.3743  -10.4348   24.9986 H         1 LZ6         0.0519
     58 H20        21.4068   -7.6994   24.0305 H         1 LZ6         0.0522
     59 H21        21.3310   -9.1801   23.0164 H         1 LZ6         0.0522
     60 H22        21.8467   -9.1347   26.0347 H         1 LZ6         0.0449
     61 H23        23.1162   -9.2875   24.7732 H         1 LZ6         0.0449
     62 H24        17.2613   -9.1404   25.0263 H         1 LZ6         0.0499
     63 H25        15.8686   -7.2941   25.9059 H         1 LZ6         0.0525
     64 H26        19.2604   -4.6756   25.7579 H         1 LZ6         0.0525
     65 H27        20.6533   -6.5248   24.8759 H         1 LZ6         0.0499
     66 H28        15.5643   -5.1233   26.5169 H         1 LZ6         0.0402
     67 H29        16.5883   -3.9255   25.6547 H         1 LZ6         0.0402
     68 H30        18.0007   -3.6183   27.5817 H         1 LZ6         0.0302
     69 H31        17.2648   -5.0231   28.4253 H         1 LZ6         0.0302
     70 H32        16.4158   -2.8215   29.2676 H         1 LZ6         0.0432
     71 H33        15.1200   -3.8629   28.5870 H         1 LZ6         0.0432
@<TRIPOS>BOND
     1    1    2 ar 
     2    2    3 ar 
     3    2    4 1  
     4    4    5 1  
     5    4    6 1  
     6    6    7 1  
     7    7    8 1  
     8    8    9 2  
     9    8   10 am 
    10   10   11 1  
    11   11   12 1  
    12   11   19 1  
    13   12   13 2  
    14   12   14 am 
    15   14   15 1  
    16   15   16 1  
    17   16   17 ar 
    18   16   18 ar 
    19   19   20 1  
    20   20   21 1  
    21   21   22 1  
    22   22   23 1  
    23   23   24 1  
    24   23   27 1  
    25   24   25 1  
    26   25   26 1  
    27   27   28 ar 
    28   27   32 ar 
    29   28   29 ar 
    30   29   30 ar 
    31   30   31 ar 
    32   30   33 1  
    33   31   32 ar 
    34   33   34 1  
    35   34   35 1  
    36   35   36 1  
    37   36   37 ar 
    38   36   38 ar 
    39    4   39 1  
    40    5   40 1  
    41    5   41 1  
    42    5   42 1  
    43    6   43 1  
    44    6   44 1  
    45    7   45 1  
    46    7   46 1  
    47   10   47 1  
    48   11   48 1  
    49   14   49 1  
    50   15   50 1  
    51   15   51 1  
    52   19   52 1  
    53   19   53 1  
    54   21   54 1  
    55   21   55 1  
    56   22   56 1  
    57   22   57 1  
    58   24   58 1  
    59   24   59 1  
    60   25   60 1  
    61   25   61 1  
    62   28   62 1  
    63   29   63 1  
    64   31   64 1  
    65   32   65 1  
    66   33   66 1  
    67   33   67 1  
    68   34   68 1  
    69   34   69 1  
    70   35   70 1  
    71   35   71 1  
@<TRIPOS>SUBSTRUCTURE
     1 LZ6         1

