### 
### Created by X-TOOL on Mon Sep 10 21:13:10 2018
### 

@<TRIPOS>MOLECULE
4hki_ligand
   27    29     1     0     0
SMALL
GAST_HUCK


@<TRIPOS>ATOM
      1 O1          5.9850  -12.6210   12.4720 O.3       1 FLN        -0.2356
      2 C8A         5.8560  -12.9760   13.7780 C.ar      1 FLN         0.1453
      3 C4A         6.5320  -12.2360   14.7390 C.ar      1 FLN         0.0599
      4 C4          7.3810  -11.1660   14.3570 C.2       1 FLN         0.1132
      5 C3          7.4610  -10.8340   13.0050 C.2       1 FLN         0.0124
      6 C2          6.7310  -11.5630   12.0710 C.2       1 FLN         0.1446
      7 C1'         6.6270  -11.3080   10.6920 C.ar      1 FLN         0.0310
      8 C2'         7.2470  -10.2220   10.0600 C.ar      1 FLN        -0.0447
      9 C3'         7.0800   -9.9680    8.7010 C.ar      1 FLN        -0.0569
     10 C4'         6.2880  -10.7750    7.9380 C.ar      1 FLN        -0.0581
     11 C5'         5.6630  -11.8760    8.5330 C.ar      1 FLN        -0.0569
     12 C6'         5.8070  -12.1360    9.9000 C.ar      1 FLN        -0.0447
     13 O4          8.1300  -10.5810   15.1690 O.2       1 FLN        -0.4145
     14 C5          6.3380  -12.5760   16.0760 C.ar      1 FLN        -0.0506
     15 C6          5.5120  -13.6420   16.4150 C.ar      1 FLN        -0.0656
     16 C7          4.8410  -14.3910   15.4440 C.ar      1 FLN        -0.0640
     17 C8          5.0200  -14.0230   14.1000 C.ar      1 FLN        -0.0194
     18 H1          8.0921  -10.0076   12.6814 H         1 FLN         0.0427
     19 H2          7.8748   -9.5604   10.6458 H         1 FLN         0.0662
     20 H3          7.5832   -9.1225    8.2460 H         1 FLN         0.0628
     21 H4          6.1448  -10.5658    6.8841 H         1 FLN         0.0648
     22 H5          5.0574  -12.5383    7.9251 H         1 FLN         0.0628
     23 H6          5.2877  -12.9745   10.3499 H         1 FLN         0.0662
     24 H7          6.8328  -12.0074   16.8550 H         1 FLN         0.0640
     25 H8          5.3850  -13.8991   17.4604 H         1 FLN         0.0551
     26 H9          4.2056  -15.2254   15.7181 H         1 FLN         0.0628
     27 H10         4.5005  -14.5626   13.3164 H         1 FLN         0.0575
@<TRIPOS>BOND
     1    1    2 1  
     2    1    6 1  
     3    2    3 ar 
     4    2   17 ar 
     5    3    4 1  
     6    3   14 ar 
     7    4    5 1  
     8    4   13 2  
     9    5    6 2  
    10    6    7 1  
    11    7    8 ar 
    12    7   12 ar 
    13    8    9 ar 
    14    9   10 ar 
    15   10   11 ar 
    16   11   12 ar 
    17   14   15 ar 
    18   15   16 ar 
    19   16   17 ar 
    20    5   18 1  
    21    8   19 1  
    22    9   20 1  
    23   10   21 1  
    24   11   22 1  
    25   12   23 1  
    26   14   24 1  
    27   15   25 1  
    28   16   26 1  
    29   17   27 1  
@<TRIPOS>SUBSTRUCTURE
     1 FLN         1

