### 
### Created by X-TOOL on Mon Sep 10 21:13:09 2018
### 

@<TRIPOS>MOLECULE
4hkk_ligand
   30    32     1     0     0
SMALL
GAST_HUCK


@<TRIPOS>ATOM
      1 CAG        -7.0580   -9.3390   -9.7710 C.ar      1 AGI        -0.0519
      2 CAE        -6.9530   -9.1500   -8.3850 C.ar      1 AGI        -0.0265
      3 CAM        -6.2000  -10.0460   -7.6180 C.ar      1 AGI         0.0943
      4 OAB        -6.1030   -9.9020   -6.2730 O.3       1 AGI        -0.3288
      5 CAF        -5.5350  -11.1270   -8.2210 C.ar      1 AGI        -0.0265
      6 CAH        -5.6410  -11.3130   -9.6020 C.ar      1 AGI        -0.0519
      7 CAP        -6.3980  -10.4230  -10.3870 C.ar      1 AGI         0.0209
      8 CAQ        -6.4270  -10.6520  -11.7700 C.2       1 AGI         0.1357
      9 OAL        -5.6400  -11.7080  -12.1420 O.3       1 AGI        -0.2431
     10 CAJ        -7.2370   -9.9840  -12.6950 C.2       1 AGI         0.0025
     11 CAR        -7.1200  -10.3310  -14.0490 C.2       1 AGI         0.0968
     12 OAA        -7.8990   -9.8160  -14.8700 O.2       1 AGI        -0.4276
     13 CAT        -6.2430  -11.3960  -14.4140 C.ar      1 AGI         0.0767
     14 CAS        -5.5180  -12.0960  -13.4400 C.ar      1 AGI         0.1290
     15 CAK        -4.6580  -13.1570  -13.7580 C.ar      1 AGI        -0.0033
     16 CAN        -4.4970  -13.5480  -15.0940 C.ar      1 AGI         0.0775
     17 OAC        -3.6320  -14.5730  -15.3950 O.3       1 AGI        -0.3351
     18 CAI        -5.1870  -12.8700  -16.1010 C.ar      1 AGI        -0.0086
     19 CAO        -6.0540  -11.8060  -15.7360 C.ar      1 AGI         0.0935
     20 OAD        -6.7310  -11.1080  -16.6850 O.3       1 AGI        -0.3326
     21 H1         -7.6463   -8.6521  -10.3687 H         1 AGI         0.0640
     22 H2         -7.4530   -8.3135   -7.9102 H         1 AGI         0.0561
     23 H3         -5.5567  -10.5945   -5.9201 H         1 AGI         0.2508
     24 H4         -4.9453  -11.8103   -7.6206 H         1 AGI         0.0561
     25 H5         -5.1363  -12.1492  -10.0723 H         1 AGI         0.0640
     26 H6         -7.9387   -9.2161  -12.3726 H         1 AGI         0.0374
     27 H7         -4.1189  -13.6736  -12.9721 H         1 AGI         0.0401
     28 H8         -3.6316  -14.7202  -16.3335 H         1 AGI         0.2494
     29 H9         -5.0633  -13.1503  -17.1408 H         1 AGI         0.0403
     30 H10        -7.2596  -10.4383  -16.2672 H         1 AGI         0.2503
@<TRIPOS>BOND
     1    1    2 ar 
     2    1    7 ar 
     3    2    3 ar 
     4    3    4 1  
     5    3    5 ar 
     6    5    6 ar 
     7    6    7 ar 
     8    7    8 1  
     9    8    9 1  
    10    8   10 2  
    11    9   14 1  
    12   10   11 1  
    13   11   12 2  
    14   11   13 1  
    15   13   14 ar 
    16   13   19 ar 
    17   14   15 ar 
    18   15   16 ar 
    19   16   17 1  
    20   16   18 ar 
    21   18   19 ar 
    22   19   20 1  
    23    1   21 1  
    24    2   22 1  
    25    4   23 1  
    26    5   24 1  
    27    6   25 1  
    28   10   26 1  
    29   15   27 1  
    30   17   28 1  
    31   18   29 1  
    32   20   30 1  
@<TRIPOS>SUBSTRUCTURE
     1 AGI         1

