### 
### Created by X-TOOL on Mon Sep 10 21:13:10 2018
### 

@<TRIPOS>MOLECULE
4hkn_ligand
   31    33     1     0     0
SMALL
GAST_HUCK


@<TRIPOS>ATOM
      1 C1          5.8540  -12.4080  -13.5900 C.ar      1 LU2        -0.0033
      2 O1          7.4850  -12.7250  -15.3320 O.3       1 LU2        -0.3351
      3 C2          6.1760  -12.5890  -14.9460 C.ar      1 LU2         0.0775
      4 O2          2.7860  -12.4550  -16.4290 O.3       1 LU2        -0.3326
      5 C3          5.1510  -12.5980  -15.9040 C.ar      1 LU2        -0.0086
      6 O3          1.1740  -12.2320  -14.6120 O.2       1 LU2        -0.4275
      7 C4          3.8090  -12.4430  -15.5190 C.ar      1 LU2         0.0935
      8 O4          4.2010  -12.0450  -11.9070 O.3       1 LU2        -0.2433
      9 C5          3.4610  -12.2680  -14.1730 C.ar      1 LU2         0.0767
     10 O5          0.6040  -10.2820   -7.4460 O.3       1 LU2        -0.3356
     11 C6          4.5060  -12.2540  -13.2300 C.ar      1 LU2         0.1290
     12 O6          2.7160  -10.9920   -5.9240 O.3       1 LU2        -0.3321
     13 C7          2.1100  -12.1240  -13.7860 C.2       1 LU2         0.0969
     14 C8          1.8480  -11.9440  -12.4220 C.2       1 LU2         0.0024
     15 C9          2.9020  -11.8840  -11.4890 C.2       1 LU2         0.1329
     16 C10         2.7970  -11.6760  -10.1050 C.ar      1 LU2         0.0117
     17 C11         1.6810  -11.0820   -9.4840 C.ar      1 LU2        -0.0240
     18 C12         1.6770  -10.8570   -8.0910 C.ar      1 LU2         0.1223
     19 C13         2.7700  -11.2360   -7.2910 C.ar      1 LU2         0.1233
     20 C14         3.8760  -11.8210   -7.9090 C.ar      1 LU2        -0.0339
     21 C15         3.8920  -12.0300   -9.2950 C.ar      1 LU2        -0.0626
     22 H1          6.6324  -12.3877  -12.8359 H         1 LU2         0.0401
     23 H2          7.5260  -12.8381  -16.2744 H         1 LU2         0.2494
     24 H3          1.9594  -12.3362  -15.9761 H         1 LU2         0.2503
     25 H4          5.3972  -12.7259  -16.9519 H         1 LU2         0.0403
     26 H5          0.7925  -10.2160   -6.5173 H         1 LU2         0.2443
     27 H6          3.5176  -11.2987   -5.5168 H         1 LU2         0.2472
     28 H7          0.8188  -11.8494  -12.0790 H         1 LU2         0.0375
     29 H8          0.8211  -10.7963  -10.0790 H         1 LU2         0.0550
     30 H9          4.7309  -12.1166   -7.3116 H         1 LU2         0.0530
     31 H10         4.7680  -12.4745   -9.7534 H         1 LU2         0.0553
@<TRIPOS>BOND
     1    1    3 ar 
     2   11    1 ar 
     3    3    2 1  
     4    3    5 ar 
     5    7    4 1  
     6    7    5 ar 
     7   13    6 2  
     8    9    7 ar 
     9    8   11 1  
    10   15    8 1  
    11   11    9 ar 
    12   13    9 1  
    13   18   10 1  
    14   19   12 1  
    15   14   13 1  
    16   15   14 2  
    17   16   15 1  
    18   17   16 ar 
    19   16   21 ar 
    20   18   17 ar 
    21   18   19 ar 
    22   19   20 ar 
    23   20   21 ar 
    24    1   22 1  
    25    2   23 1  
    26    4   24 1  
    27    5   25 1  
    28   10   26 1  
    29   12   27 1  
    30   14   28 1  
    31   17   29 1  
    32   20   30 1  
    33   21   31 1  
@<TRIPOS>SUBSTRUCTURE
     1 LU2         1

