### 
### Created by X-TOOL on Mon Sep 10 21:13:11 2018
### 

@<TRIPOS>MOLECULE
4hl5_ligand
   32    34     1     0     0
SMALL
GAST_HUCK


@<TRIPOS>ATOM
      1 CAS        -1.3560  -10.2720  -23.3710 C.3       1 15W         0.0611
      2 OAR        -2.5270  -10.9710  -22.9720 O.3       1 15W        -0.3169
      3 CAP        -2.5690  -11.1920  -21.6200 C.ar      1 15W         0.0975
      4 CAO        -1.4410  -11.1330  -20.7880 C.ar      1 15W        -0.0262
      5 CAN        -1.5660  -11.3770  -19.4140 C.ar      1 15W        -0.0518
      6 CAL        -3.7930  -11.5130  -21.0460 C.ar      1 15W        -0.0262
      7 CAM        -3.9160  -11.7560  -19.6890 C.ar      1 15W        -0.0518
      8 CAK        -2.8130  -11.6960  -18.8430 C.ar      1 15W         0.0210
      9 CAI        -2.9890  -11.9440  -17.4710 C.2       1 15W         0.1362
     10 OAJ        -4.2830  -11.9770  -17.0510 O.3       1 15W        -0.2405
     11 CAF        -4.5920  -12.2110  -15.7420 C.ar      1 15W         0.1363
     12 CAA        -5.9220  -12.2480  -15.3560 C.ar      1 15W         0.0079
     13 CAB        -6.2590  -12.4840  -14.0220 C.ar      1 15W         0.0865
     14 OAT        -7.5720  -12.4930  -13.6520 O.3       1 15W        -0.3322
     15 CAC        -5.2500  -12.6960  -13.0830 C.ar      1 15W        -0.0361
     16 CAD        -3.9160  -12.6540  -13.4730 C.ar      1 15W        -0.0582
     17 CAE        -3.5610  -12.4090  -14.8050 C.ar      1 15W         0.0480
     18 CAG        -2.2140  -12.3830  -15.2130 C.2       1 15W         0.1015
     19 OAQ        -1.2650  -12.5430  -14.4250 O.2       1 15W        -0.4219
     20 CAH        -1.9480  -12.1250  -16.5550 C.2       1 15W         0.0045
     21 H1         -1.3723  -10.1213  -24.4605 H         1 15W         0.0581
     22 H2         -0.4671  -10.8583  -23.0952 H         1 15W         0.0581
     23 H3         -1.3221   -9.2952  -22.8663 H         1 15W         0.0581
     24 H4         -0.4702  -10.8980  -21.2092 H         1 15W         0.0561
     25 H5         -0.6885  -11.3193  -18.7802 H         1 15W         0.0641
     26 H6         -4.6728  -11.5746  -21.6762 H         1 15W         0.0561
     27 H7         -4.8895  -11.9975  -19.2778 H         1 15W         0.0641
     28 H8         -6.7030  -12.0933  -16.0917 H         1 15W         0.0490
     29 H9         -7.6361  -12.6658  -12.7200 H         1 15W         0.2497
     30 H10        -5.5058  -12.8937  -12.0483 H         1 15W         0.0487
     31 H11        -3.1388  -12.8134  -12.7343 H         1 15W         0.0617
     32 H12        -0.9156  -12.0633  -16.8959 H         1 15W         0.0376
@<TRIPOS>BOND
     1    1    2 1  
     2    2    3 1  
     3    3    4 ar 
     4    3    6 ar 
     5    4    5 ar 
     6    5    8 ar 
     7    6    7 ar 
     8    7    8 ar 
     9    8    9 1  
    10    9   10 1  
    11    9   20 2  
    12   10   11 1  
    13   11   12 ar 
    14   11   17 ar 
    15   12   13 ar 
    16   13   14 1  
    17   13   15 ar 
    18   15   16 ar 
    19   16   17 ar 
    20   17   18 1  
    21   18   19 2  
    22   18   20 1  
    23    1   21 1  
    24    1   22 1  
    25    1   23 1  
    26    4   24 1  
    27    5   25 1  
    28    6   26 1  
    29    7   27 1  
    30   12   28 1  
    31   14   29 1  
    32   15   30 1  
    33   16   31 1  
    34   20   32 1  
@<TRIPOS>SUBSTRUCTURE
     1 15W         1

