### 
### Created by X-TOOL on Mon Sep 10 21:13:14 2018
### 

@<TRIPOS>MOLECULE
4hla_ligand
   75    78     1     0     0
SMALL
GAST_HUCK


@<TRIPOS>ATOM
      1 N1          9.9800  -15.7090    8.5230 N.pl3     1 017        -0.3369
      2 C2          9.7270  -15.5410    7.2020 C.ar      1 017         0.0353
      3 C3         10.1240  -14.3820    6.5370 C.ar      1 017        -0.0429
      4 C4          9.8470  -14.2310    5.1810 C.ar      1 017        -0.0471
      5 C5          9.1850  -15.2410    4.4820 C.ar      1 017         0.0949
      6 C6          8.7820  -16.3820    5.1610 C.ar      1 017        -0.0471
      7 C7          9.0550  -16.5360    6.5110 C.ar      1 017        -0.0429
      8 S8          8.8290  -15.1140    2.9270 S.o2      1 017         0.0648
      9 O9          7.6470  -15.8910    2.7030 O.2       1 017        -0.1518
     10 O10         8.5500  -13.7600    2.6110 O.2       1 017        -0.1518
     11 N11         9.9900  -15.6100    1.9070 N.am      1 017        -0.2327
     12 C12        11.3040  -15.0760    2.3000 C.3       1 017         0.0319
     13 C13        11.9840  -14.2730    1.1890 C.3       1 017        -0.0296
     14 C14        12.4000  -15.1560    0.0280 C.3       1 017        -0.0612
     15 C15        11.1400  -13.1050    0.6910 C.3       1 017        -0.0612
     16 C16        10.0260  -17.0800    1.8030 C.3       1 017         0.0578
     17 C17         9.8480  -17.4520    0.3370 C.3       1 017         0.0967
     18 O18        10.1070  -18.8400    0.1300 O.3       1 017        -0.3877
     19 C19         8.4440  -17.0820   -0.1260 C.3       1 017         0.0807
     20 N20         8.4600  -17.3080   -1.5530 N.am      1 017        -0.2550
     21 C21         8.3640  -16.3270   -2.4420 C.2       1 017         0.3203
     22 O22         8.2620  -15.1490   -2.1570 O.2       1 017        -0.3775
     23 O23         8.4060  -16.7450   -3.8280 O.3       1 017        -0.2578
     24 C24         7.9770  -15.8390   -4.8240 C.3       1 017         0.1189
     25 C25         8.9530  -16.0840   -5.9560 C.3       1 017         0.0815
     26 O26         8.4510  -17.2590   -6.5990 O.3       1 017        -0.3480
     27 C27         7.0310  -17.3530   -6.4180 C.3       1 017         0.1648
     28 O28         6.6590  -18.6310   -5.8900 O.3       1 017        -0.3509
     29 C29         5.9780  -18.5190   -4.6420 C.3       1 017         0.0512
     30 C30         5.7640  -17.0350   -4.3950 C.3       1 017        -0.0191
     31 C31         6.6560  -16.3170   -5.3830 C.3       1 017         0.0449
     32 C32         7.4140  -18.0610    0.4180 C.3       1 017         0.0064
     33 C33         5.4280  -16.6240   -0.0670 C.ar      1 017        -0.0603
     34 C34         4.2110  -16.3950   -0.6960 C.ar      1 017        -0.0686
     35 C35         3.6630  -17.3560   -1.5340 C.ar      1 017        -0.0687
     36 C36         4.3370  -18.5580   -1.7310 C.ar      1 017        -0.0686
     37 C37         5.5540  -18.7970   -1.1040 C.ar      1 017        -0.0603
     38 C38         6.0980  -17.8230   -0.2720 C.ar      1 017        -0.0408
     39 H1         10.4788  -14.9772    9.0490 H         1 017         0.1719
     40 H2          9.6735  -16.5684    9.0008 H         1 017         0.1719
     41 H3         10.6474  -13.5997    7.0747 H         1 017         0.0515
     42 H4         10.1468  -13.3253    4.6663 H         1 017         0.0602
     43 H5          8.2478  -17.1614    4.6298 H         1 017         0.0602
     44 H6          8.7422  -17.4365    7.0270 H         1 017         0.0515
     45 H7         11.9567  -15.9185    2.5723 H         1 017         0.0480
     46 H8         11.1683  -14.4202    3.1727 H         1 017         0.0480
     47 H9         12.9013  -13.8469    1.6214 H         1 017         0.0311
     48 H10        12.8830  -14.5410   -0.7456 H         1 017         0.0233
     49 H11        11.5117  -15.6472   -0.3958 H         1 017         0.0233
     50 H12        13.1070  -15.9201    0.3834 H         1 017         0.0233
     51 H13        10.8466  -12.4749    1.5436 H         1 017         0.0233
     52 H14        10.2383  -13.4904    0.1925 H         1 017         0.0233
     53 H15        11.7261  -12.5070   -0.0223 H         1 017         0.0233
     54 H16         9.2121  -17.5167    2.4005 H         1 017         0.0504
     55 H17        10.9925  -17.4567    2.1691 H         1 017         0.0504
     56 H18        10.5719  -16.8756   -0.2577 H         1 017         0.0634
     57 H19         9.5032  -19.3550    0.6522 H         1 017         0.2100
     58 H20         8.1917  -16.0445    0.1383 H         1 017         0.0604
     59 H21         8.5474  -18.2468   -1.8863 H         1 017         0.1873
     60 H22         7.9441  -14.7966   -4.4743 H         1 017         0.0675
     61 H23         9.9677  -16.2546   -5.5671 H         1 017         0.0590
     62 H24         8.9655  -15.2326   -6.6524 H         1 017         0.0590
     63 H25         6.5116  -17.1690   -7.3700 H         1 017         0.0913
     64 H26         6.5882  -18.9535   -3.8365 H         1 017         0.0561
     65 H27         5.0099  -19.0391   -4.6900 H         1 017         0.0561
     66 H28         6.0468  -16.7740   -3.3645 H         1 017         0.0293
     67 H29         4.7109  -16.7668   -4.5654 H         1 017         0.0293
     68 H30         6.1108  -15.4719   -5.8286 H         1 017         0.0380
     69 H31         7.2955  -17.9076    1.5008 H         1 017         0.0449
     70 H32         7.7486  -19.0915    0.2281 H         1 017         0.0449
     71 H33         5.8541  -15.8681    0.5828 H         1 017         0.0557
     72 H34         3.6865  -15.4607   -0.5315 H         1 017         0.0599
     73 H35         2.7175  -17.1721   -2.0313 H         1 017         0.0559
     74 H36         3.9088  -19.3141   -2.3791 H         1 017         0.0599
     75 H37         6.0752  -19.7343   -1.2617 H         1 017         0.0557
@<TRIPOS>BOND
     1    2    1 1  
     2    3    2 ar 
     3    7    2 ar 
     4    4    3 ar 
     5    5    4 ar 
     6    5    6 ar 
     7    8    5 1  
     8    6    7 ar 
     9    8    9 2  
    10    8   10 2  
    11   11    8 am 
    12   11   12 1  
    13   16   11 1  
    14   12   13 1  
    15   13   14 1  
    16   13   15 1  
    17   17   16 1  
    18   17   18 1  
    19   19   17 1  
    20   19   20 1  
    21   32   19 1  
    22   20   21 am 
    23   21   22 2  
    24   21   23 1  
    25   23   24 1  
    26   24   25 1  
    27   24   31 1  
    28   25   26 1  
    29   27   26 1  
    30   27   28 1  
    31   31   27 1  
    32   29   28 1  
    33   30   29 1  
    34   31   30 1  
    35   38   32 1  
    36   33   34 ar 
    37   33   38 ar 
    38   34   35 ar 
    39   35   36 ar 
    40   36   37 ar 
    41   37   38 ar 
    42    1   39 1  
    43    1   40 1  
    44    3   41 1  
    45    4   42 1  
    46    6   43 1  
    47    7   44 1  
    48   12   45 1  
    49   12   46 1  
    50   13   47 1  
    51   14   48 1  
    52   14   49 1  
    53   14   50 1  
    54   15   51 1  
    55   15   52 1  
    56   15   53 1  
    57   16   54 1  
    58   16   55 1  
    59   17   56 1  
    60   18   57 1  
    61   19   58 1  
    62   20   59 1  
    63   24   60 1  
    64   25   61 1  
    65   25   62 1  
    66   27   63 1  
    67   29   64 1  
    68   29   65 1  
    69   30   66 1  
    70   30   67 1  
    71   31   68 1  
    72   32   69 1  
    73   32   70 1  
    74   33   71 1  
    75   34   72 1  
    76   35   73 1  
    77   36   74 1  
    78   37   75 1  
@<TRIPOS>SUBSTRUCTURE
     1 017         1

