### 
### Created by X-TOOL on Mon Sep 10 21:13:09 2018
### 

@<TRIPOS>MOLECULE
4hlc_ligand
   59    62     1     0     0
SMALL
GAST_HUCK


@<TRIPOS>ATOM
      1 C4          5.6760   -1.9040   50.4660 C.ar      1 T05        -0.0761
      2 C13         3.9370    1.5660   55.0600 C.ar      1 T05        -0.0534
      3 C3          6.6510   -1.7730   49.5040 C.ar      1 T05        -0.0709
      4 C5          5.5880   -0.9510   51.4660 C.ar      1 T05        -0.0351
      5 C12         2.9670    2.2780   54.4000 C.ar      1 T05        -0.0419
      6 C7          7.4510    0.2420   50.5210 C.ar      1 T05        -0.0276
      7 C10         4.2920    2.2130   52.3850 C.ar      1 T05         0.0021
      8 C14         5.0780    1.1530   54.4010 C.ar      1 T05         0.0435
      9 C2          7.5370   -0.7140   49.5280 C.ar      1 T05        -0.0539
     10 C6          6.4660    0.1190   51.4780 C.ar      1 T05         0.1106
     11 C9          5.2520    1.4800   53.0600 C.ar      1 T05         0.1329
     12 C11         3.1350    2.5830   53.0620 C.ar      1 T05         0.1035
     13 C28         1.1120   -1.1820   49.0400 C.2       1 T05         0.0502
     14 C29         1.5150   -1.9180   47.9900 C.2       1 T05         0.0224
     15 C30         1.3540   -1.3300   46.6290 C.2       1 T05         0.1930
     16 C33         0.4230    0.6940   47.6770 C.2       1 T05         0.3247
     17 C15         6.0670    0.3970   55.1860 C.2       1 T05         0.0589
     18 C23        -1.2790    0.8880   52.1760 C.3       1 T05        -0.0331
     19 C24        -0.8370    0.0290   50.9910 C.3       1 T05        -0.0200
     20 C22        -0.0560    1.5280   52.8110 C.3       1 T05         0.0298
     21 C26         1.2740    1.3890   50.7630 C.3       1 T05         0.0594
     22 C25         0.0800    0.8240   50.0540 C.3       1 T05         0.0893
     23 C1          8.5850   -0.5690   48.4910 C.3       1 T05        -0.0335
     24 C35         2.1180   -3.2740   48.1080 C.3       1 T05        -0.0437
     25 N32         0.8110   -0.0550   46.5980 N.am      1 T05        -0.1860
     26 N27         0.5430    0.0730   48.9060 N.am      1 T05        -0.1963
     27 N21         0.7130    2.2900   51.7820 N.am      1 T05        -0.2311
     28 O31         1.6740   -1.9360   45.6100 O.2       1 T05        -0.4079
     29 O34         0.0040    1.8360   47.5450 O.2       1 T05        -0.3843
     30 O16         6.4870    0.9520   56.2350 O.co2     1 T05        -0.5641
     31 O19         1.1320    4.3030   53.2540 O.2       1 T05        -0.1499
     32 O20         2.4440    4.0990   51.0830 O.2       1 T05        -0.1499
     33 O17         6.3900   -0.7530   54.7820 O.co2     1 T05        -0.5641
     34 O8          6.4440    1.1180   52.4530 O.3       1 T05        -0.2562
     35 S18         1.8220    3.5040   52.2530 S.o2      1 T05         0.0695
     36 H1          4.9873   -2.7408   50.4411 H         1 T05         0.0574
     37 H2          3.8062    1.3255   56.1089 H         1 T05         0.0625
     38 H3          6.7248   -2.5126   48.7150 H         1 T05         0.0470
     39 H4          4.8329   -1.0425   52.2383 H         1 T05         0.0497
     40 H5          2.0745    2.5993   54.9246 H         1 T05         0.0555
     41 H6          8.1453    1.0740   50.5476 H         1 T05         0.0489
     42 H7          4.4390    2.4935   51.3483 H         1 T05         0.0580
     43 H8          1.2388   -1.5913   50.0412 H         1 T05         0.1010
     44 H9         -1.7911    0.2571   52.9174 H         1 T05         0.0282
     45 H10        -1.9654    1.6731   51.8259 H         1 T05         0.0282
     46 H11        -1.7258   -0.2995   50.4324 H         1 T05         0.0295
     47 H12        -0.2937   -0.8508   51.3662 H         1 T05         0.0295
     48 H13         0.5856    0.7433   53.2383 H         1 T05         0.0478
     49 H14        -0.3765    2.2143   53.6086 H         1 T05         0.0478
     50 H15         1.9131    1.9463   50.0624 H         1 T05         0.0507
     51 H16         1.8600    0.5868   51.2352 H         1 T05         0.0507
     52 H17        -0.5143    1.6688   49.6757 H         1 T05         0.0658
     53 H18         8.5170   -1.4067   47.7813 H         1 T05         0.0389
     54 H19         9.5761   -0.5724   48.9682 H         1 T05         0.0389
     55 H20         8.4401    0.3796   47.9533 H         1 T05         0.0389
     56 H21         2.1669   -3.5625   49.1684 H         1 T05         0.0296
     57 H22         3.1330   -3.2621   47.6841 H         1 T05         0.0296
     58 H23         1.4997   -3.9993   47.5588 H         1 T05         0.0296
     59 H24         0.6903    0.3601   45.6962 H         1 T05         0.2259
@<TRIPOS>BOND
     1    1    3 ar 
     2    4    1 ar 
     3    5    2 ar 
     4    2    8 ar 
     5    9    3 ar 
     6   10    4 ar 
     7   12    5 ar 
     8    6    9 ar 
     9   10    6 ar 
    10    7   11 ar 
    11   12    7 ar 
    12   11    8 ar 
    13    8   17 1  
    14    9   23 1  
    15   34   10 1  
    16   11   34 1  
    17   35   12 1  
    18   13   14 2  
    19   26   13 1  
    20   14   15 1  
    21   14   24 1  
    22   25   15 am 
    23   15   28 2  
    24   16   25 am 
    25   26   16 am 
    26   16   29 2  
    27   17   30 ar 
    28   17   33 ar 
    29   18   19 1  
    30   20   18 1  
    31   22   19 1  
    32   27   20 1  
    33   21   22 1  
    34   27   21 1  
    35   22   26 1  
    36   27   35 am 
    37   35   31 2  
    38   35   32 2  
    39    1   36 1  
    40    2   37 1  
    41    3   38 1  
    42    4   39 1  
    43    5   40 1  
    44    6   41 1  
    45    7   42 1  
    46   13   43 1  
    47   18   44 1  
    48   18   45 1  
    49   19   46 1  
    50   19   47 1  
    51   20   48 1  
    52   20   49 1  
    53   21   50 1  
    54   21   51 1  
    55   22   52 1  
    56   23   53 1  
    57   23   54 1  
    58   23   55 1  
    59   24   56 1  
    60   24   57 1  
    61   24   58 1  
    62   25   59 1  
@<TRIPOS>SUBSTRUCTURE
     1 T05         1

