### 
### Created by X-TOOL on Mon Sep 10 21:13:09 2018
### 

@<TRIPOS>MOLECULE
4hlf_ligand
   30    32     1     0     0
SMALL
GAST_HUCK


@<TRIPOS>ATOM
      1 CAM        -6.9070  -38.8830    9.8070 C.ar      1 15Z        -0.0239
      2 CAL        -6.7300  -39.0590    8.4340 C.ar      1 15Z         0.1223
      3 OAT        -7.1710  -40.1360    7.7560 O.3       1 15Z        -0.3356
      4 CAP        -6.1090  -38.1010    7.6750 C.ar      1 15Z         0.1233
      5 OAS        -6.0220  -38.3290    6.3400 O.3       1 15Z        -0.3320
      6 CAO        -5.6250  -36.9470    8.2690 C.ar      1 15Z        -0.0339
      7 CAN        -5.7870  -36.7540    9.6320 C.ar      1 15Z        -0.0626
      8 CAK        -6.4360  -37.7130   10.4300 C.ar      1 15Z         0.0118
      9 CAJ        -6.5570  -37.4520   11.8150 C.2       1 15Z         0.1334
     10 OAG        -5.8080  -36.3960   12.2310 O.3       1 15Z        -0.2408
     11 CAF        -5.7490  -36.0410   13.5310 C.ar      1 15Z         0.1363
     12 CAA        -4.8800  -35.0180   13.8610 C.ar      1 15Z         0.0079
     13 CAB        -4.7670  -34.6110   15.1820 C.ar      1 15Z         0.0865
     14 OAR        -3.8990  -33.5680   15.4850 O.3       1 15Z        -0.3322
     15 CAC        -5.5150  -35.2960   16.1480 C.ar      1 15Z        -0.0361
     16 CAD        -6.3960  -36.3550   15.8040 C.ar      1 15Z        -0.0582
     17 CAE        -6.5310  -36.7260   14.4620 C.ar      1 15Z         0.0481
     18 CAH        -7.3910  -37.7810   14.0410 C.2       1 15Z         0.1016
     19 OAQ        -8.2180  -38.3160   14.8100 O.2       1 15Z        -0.4219
     20 CAI        -7.4140  -38.1120   12.6970 C.2       1 15Z         0.0043
     21 H1         -7.4065  -39.6465   10.3924 H         1 15Z         0.0550
     22 H2         -6.7659  -40.9191    8.1096 H         1 15Z         0.2443
     23 H3         -6.8957  -38.4148    5.9769 H         1 15Z         0.2472
     24 H4         -5.1211  -36.1972    7.6698 H         1 15Z         0.0531
     25 H5         -5.4069  -35.8483   10.0907 H         1 15Z         0.0553
     26 H6         -4.2893  -34.5359   13.0905 H         1 15Z         0.0490
     27 H7         -3.9238  -33.3982   16.4193 H         1 15Z         0.2497
     28 H8         -5.4184  -35.0092   17.1889 H         1 15Z         0.0487
     29 H9         -6.9585  -36.8709   16.5737 H         1 15Z         0.0617
     30 H10        -8.0942  -38.8799   12.3315 H         1 15Z         0.0376
@<TRIPOS>BOND
     1    1    2 ar 
     2    1    8 ar 
     3    2    3 1  
     4    2    4 ar 
     5    4    5 1  
     6    4    6 ar 
     7    6    7 ar 
     8    7    8 ar 
     9    8    9 1  
    10    9   10 1  
    11    9   20 2  
    12   10   11 1  
    13   11   12 ar 
    14   11   17 ar 
    15   12   13 ar 
    16   13   14 1  
    17   13   15 ar 
    18   15   16 ar 
    19   16   17 ar 
    20   17   18 1  
    21   18   19 2  
    22   18   20 1  
    23    1   21 1  
    24    3   22 1  
    25    5   23 1  
    26    6   24 1  
    27    7   25 1  
    28   12   26 1  
    29   14   27 1  
    30   15   28 1  
    31   16   29 1  
    32   20   30 1  
@<TRIPOS>SUBSTRUCTURE
     1 15Z         1

