### 
### Created by X-TOOL on Mon Sep 10 21:13:10 2018
### 

@<TRIPOS>MOLECULE
4hlg_ligand
   28    30     1     0     0
SMALL
GAST_HUCK


@<TRIPOS>ATOM
      1 CAM        -7.2850  -37.9970    9.6740 C.ar      1 20B        -0.0170
      2 CAL        -7.0470  -38.1460    8.2950 C.ar      1 20B         0.0920
      3 OAR        -7.4830  -39.2500    7.6450 O.3       1 20B        -0.3324
      4 CAP        -6.3830  -37.1540    7.5620 C.ar      1 20B        -0.0294
      5 CAO        -5.9360  -36.0310    8.2470 C.ar      1 20B        -0.0653
      6 CAN        -6.1520  -35.8820    9.6180 C.ar      1 20B        -0.0556
      7 CAK        -6.8340  -36.8520   10.3670 C.ar      1 20B         0.0220
      8 CAI        -7.0000  -36.6590   11.7790 C.2       1 20B         0.1420
      9 OAJ        -6.2170  -35.6660   12.2990 O.3       1 20B        -0.2358
     10 CAF        -6.1240  -35.4160   13.6210 C.ar      1 20B         0.1452
     11 CAA        -5.2380  -34.4300   14.0510 C.ar      1 20B        -0.0194
     12 CAB        -5.1070  -34.1880   15.4260 C.ar      1 20B        -0.0640
     13 CAC        -5.8720  -34.9580   16.3200 C.ar      1 20B        -0.0656
     14 CAD        -6.7580  -35.9420   15.8590 C.ar      1 20B        -0.0506
     15 CAE        -6.9060  -36.1600   14.5000 C.ar      1 20B         0.0599
     16 CAG        -7.7760  -37.1540   14.0210 C.2       1 20B         0.1133
     17 OAQ        -8.5470  -37.7450   14.7970 O.2       1 20B        -0.4145
     18 CAH        -7.7830  -37.4230   12.6530 C.2       1 20B         0.0122
     19 H1         -7.8213  -38.7709   10.2111 H         1 20B         0.0580
     20 H2         -7.2416  -39.1923    6.7280 H         1 20B         0.2480
     21 H3         -6.2231  -37.2591    6.4950 H         1 20B         0.0576
     22 H4         -5.4084  -35.2542    7.7054 H         1 20B         0.0600
     23 H5         -5.7829  -34.9932   10.1169 H         1 20B         0.0571
     24 H6         -4.6592  -33.8591   13.3339 H         1 20B         0.0575
     25 H7         -4.4307  -33.4239   15.7918 H         1 20B         0.0628
     26 H8         -5.7748  -34.7875   17.3861 H         1 20B         0.0551
     27 H9         -7.3276  -36.5326   16.5674 H         1 20B         0.0640
     28 H10        -8.4001  -38.2308   12.2625 H         1 20B         0.0428
@<TRIPOS>BOND
     1    1    2 ar 
     2    1    7 ar 
     3    2    3 1  
     4    2    4 ar 
     5    4    5 ar 
     6    5    6 ar 
     7    6    7 ar 
     8    7    8 1  
     9    8    9 1  
    10    8   18 2  
    11    9   10 1  
    12   10   11 ar 
    13   10   15 ar 
    14   11   12 ar 
    15   12   13 ar 
    16   13   14 ar 
    17   14   15 ar 
    18   15   16 1  
    19   16   17 2  
    20   16   18 1  
    21    1   19 1  
    22    3   20 1  
    23    4   21 1  
    24    5   22 1  
    25    6   23 1  
    26   11   24 1  
    27   12   25 1  
    28   13   26 1  
    29   14   27 1  
    30   18   28 1  
@<TRIPOS>SUBSTRUCTURE
     1 20B         1

