### 
### Created by X-TOOL on Mon Sep 10 21:13:09 2018
### 

@<TRIPOS>MOLECULE
4hlh_ligand
   27    29     1     0     0
SMALL
GAST_HUCK


@<TRIPOS>ATOM
      1 CAJ       -38.0730  -10.9370   12.8940 C.2       1 20D         0.0102
      2 CAG       -38.0850  -11.2500   14.2410 C.2       1 20D         0.1115
      3 OAK       -37.3290  -10.6490   14.9940 O.2       1 20D        -0.4156
      4 CAF       -38.9210  -12.2690   14.6820 C.ar      1 20D         0.0595
      5 CAA       -39.0470  -12.5270   16.0430 C.ar      1 20D        -0.0507
      6 CAB       -39.8860  -13.5690   16.4600 C.ar      1 20D        -0.0657
      7 CAC       -40.5860  -14.3350   15.5180 C.ar      1 20D        -0.0640
      8 CAD       -40.4670  -14.0500   14.1630 C.ar      1 20D        -0.0194
      9 CAE       -39.6300  -13.0400   13.7540 C.ar      1 20D         0.1451
     10 OAH       -39.5520  -12.7430   12.4250 O.3       1 20D        -0.2363
     11 CAI       -38.8630  -11.6410   12.0160 C.2       1 20D         0.1418
     12 CAL       -38.8780  -11.3880   10.6240 C.ar      1 20D         0.0274
     13 CAM       -38.2700  -10.2690   10.0420 C.ar      1 20D        -0.0460
     14 CAN       -38.3180  -10.0710    8.6560 C.ar      1 20D        -0.0225
     15 CAO       -38.9720  -10.9940    7.8520 C.ar      1 20D         0.1377
     16 FAR       -39.0330  -10.8350    6.5030 F         1 20D        -0.1791
     17 CAP       -39.5920  -12.0940    8.4130 C.ar      1 20D        -0.0225
     18 CAQ       -39.5500  -12.2910    9.7940 C.ar      1 20D        -0.0460
     19 H1        -37.4372  -10.1321   12.5283 H         1 20D         0.0409
     20 H2        -38.5051  -11.9318   16.7691 H         1 20D         0.0640
     21 H3        -39.9942  -13.7838   17.5170 H         1 20D         0.0551
     22 H4        -41.2206  -15.1502   15.8464 H         1 20D         0.0628
     23 H5        -41.0306  -14.6206   13.4338 H         1 20D         0.0575
     24 H6        -37.7574   -9.5492   10.6698 H         1 20D         0.0654
     25 H7        -37.8465   -9.2009    8.2136 H         1 20D         0.0617
     26 H8        -40.1114  -12.8044    7.7801 H         1 20D         0.0617
     27 H9        -40.0435  -13.1531   10.2279 H         1 20D         0.0654
@<TRIPOS>BOND
     1    1    2 1  
     2    1   11 2  
     3    2    3 2  
     4    2    4 1  
     5    4    5 ar 
     6    4    9 ar 
     7    5    6 ar 
     8    6    7 ar 
     9    7    8 ar 
    10    8    9 ar 
    11    9   10 1  
    12   10   11 1  
    13   11   12 1  
    14   12   13 ar 
    15   12   18 ar 
    16   13   14 ar 
    17   14   15 ar 
    18   15   16 1  
    19   15   17 ar 
    20   17   18 ar 
    21    1   19 1  
    22    5   20 1  
    23    6   21 1  
    24    7   22 1  
    25    8   23 1  
    26   13   24 1  
    27   14   25 1  
    28   17   26 1  
    29   18   27 1  
@<TRIPOS>SUBSTRUCTURE
     1 20D         1

