### 
### Created by X-TOOL on Mon Sep 10 21:13:09 2018
### 

@<TRIPOS>MOLECULE
4hlk_ligand
   30    32     1     0     0
SMALL
GAST_HUCK


@<TRIPOS>ATOM
      1 CAB       -39.2680  -10.6260   12.9580 C.2       1 431         0.0087
      2 CAD       -39.3080  -10.9050   14.3180 C.2       1 431         0.1105
      3 OAH       -38.4830  -10.3380   15.0630 O.2       1 431        -0.4164
      4 CAE       -40.1750  -11.9270   14.7710 C.ar      1 431         0.0592
      5 CAN       -40.3000  -12.2260   16.1230 C.ar      1 431        -0.0507
      6 CAQ       -41.1590  -13.2490   16.5520 C.ar      1 431        -0.0657
      7 CAR       -41.8940  -14.0100   15.6270 C.ar      1 431        -0.0640
      8 CAO       -41.7750  -13.6970   14.2750 C.ar      1 431        -0.0194
      9 CAF       -40.9260  -12.6760   13.8610 C.ar      1 431         0.1450
     10 OAC       -40.8450  -12.3810   12.5150 O.3       1 431        -0.2367
     11 CAA       -40.0570  -11.3510   12.0550 C.2       1 431         0.1400
     12 CAG       -40.1190  -11.1140   10.6550 C.ar      1 431         0.0249
     13 CAI       -39.4090  -10.0940    9.9830 C.ar      1 431        -0.0504
     14 CAK       -39.5250   -9.9090    8.6000 C.ar      1 431        -0.0545
     15 CAM       -40.3470  -10.7280    7.8240 C.ar      1 431        -0.0409
     16 CAP       -40.4720  -10.5690    6.4140 C.3       1 431        -0.0286
     17 CAL       -41.0520  -11.7450    8.4840 C.ar      1 431        -0.0545
     18 CAJ       -40.9360  -11.9380    9.8660 C.ar      1 431        -0.0504
     19 H1        -38.6163   -9.8352   12.5894 H         1 431         0.0397
     20 H2        -39.7285  -11.6635   16.8524 H         1 431         0.0640
     21 H3        -41.2571  -13.4553   17.6117 H         1 431         0.0551
     22 H4        -42.5362  -14.8187   15.9568 H         1 431         0.0628
     23 H5        -42.3475  -14.2525   13.5410 H         1 431         0.0575
     24 H6        -38.7589   -9.4390   10.5517 H         1 431         0.0649
     25 H7        -38.9650   -9.1134    8.1220 H         1 431         0.0572
     26 H8        -41.1700  -11.3227    6.0205 H         1 431         0.0403
     27 H9        -39.4872  -10.6992    5.9416 H         1 431         0.0403
     28 H10       -40.8554   -9.5624    6.1911 H         1 431         0.0403
     29 H11       -41.7017  -12.3967    7.9110 H         1 431         0.0572
     30 H12       -41.4898  -12.7421   10.3370 H         1 431         0.0649
@<TRIPOS>BOND
     1    1    2 1  
     2    1   11 2  
     3    2    3 2  
     4    2    4 1  
     5    4    5 ar 
     6    4    9 ar 
     7    5    6 ar 
     8    6    7 ar 
     9    7    8 ar 
    10    8    9 ar 
    11    9   10 1  
    12   10   11 1  
    13   11   12 1  
    14   12   13 ar 
    15   12   18 ar 
    16   13   14 ar 
    17   14   15 ar 
    18   15   16 1  
    19   15   17 ar 
    20   17   18 ar 
    21    1   19 1  
    22    5   20 1  
    23    6   21 1  
    24    7   22 1  
    25    8   23 1  
    26   13   24 1  
    27   14   25 1  
    28   16   26 1  
    29   16   27 1  
    30   16   28 1  
    31   17   29 1  
    32   18   30 1  
@<TRIPOS>SUBSTRUCTURE
     1 431         1

