### 
### Created by X-TOOL on Mon Sep 10 21:13:09 2018
### 

@<TRIPOS>MOLECULE
4hlm_ligand
   29    31     1     0     0
SMALL
GAST_HUCK


@<TRIPOS>ATOM
      1 CAM        -7.3660   37.8310   -9.6990 C.ar      1 16S        -0.0239
      2 CAL        -7.1950   37.9870   -8.3110 C.ar      1 16S         0.1224
      3 OAR        -7.6480   39.0670   -7.6210 O.3       1 16S        -0.3356
      4 CAP        -6.5440   37.0140   -7.5500 C.ar      1 16S         0.1234
      5 OAS        -6.4320   37.2290   -6.2110 O.3       1 16S        -0.3320
      6 CAO        -6.0450   35.8760   -8.1610 C.ar      1 16S        -0.0338
      7 CAN        -6.2040   35.7200   -9.5410 C.ar      1 16S        -0.0625
      8 CAK        -6.8690   36.6720  -10.3360 C.ar      1 16S         0.0120
      9 CAJ        -6.9700   36.4390  -11.7320 C.2       1 16S         0.1342
     10 OAG        -6.2050   35.4000  -12.1940 O.3       1 16S        -0.2377
     11 CAF        -6.1170   35.1230  -13.5390 C.ar      1 16S         0.1448
     12 CAA        -5.2520   34.1240  -13.9610 C.ar      1 16S        -0.0195
     13 CAB        -5.1370   33.8620  -15.3260 C.ar      1 16S        -0.0641
     14 CAC        -5.8740   34.6120  -16.2500 C.ar      1 16S        -0.0657
     15 CAD        -6.7560   35.6150  -15.8080 C.ar      1 16S        -0.0508
     16 CAE        -6.8850   35.8560  -14.4420 C.ar      1 16S         0.0588
     17 CAH        -7.7400   36.8600  -13.9810 C.2       1 16S         0.1088
     18 OAQ        -8.4960   37.4310  -14.7600 O.2       1 16S        -0.4175
     19 CAI        -7.7730   37.1640  -12.6190 C.2       1 16S         0.0062
     20 H1         -7.8755   38.5947  -10.2754 H         1 16S         0.0551
     21 H2         -7.4272   38.9698   -6.7022 H         1 16S         0.2443
     22 H3         -5.9462   38.0313   -6.0598 H         1 16S         0.2472
     23 H4         -5.5379   35.1164   -7.5771 H         1 16S         0.0531
     24 H5         -5.8003   34.8333  -10.0162 H         1 16S         0.0554
     25 H6         -4.6744   33.5558  -13.2409 H         1 16S         0.0575
     26 H7         -4.4756   33.0760  -15.6721 H         1 16S         0.0628
     27 H8         -5.7646   34.4191  -17.3111 H         1 16S         0.0550
     28 H9         -7.3292   36.1942  -16.5229 H         1 16S         0.0640
     29 H10        -8.4188   37.9593  -12.2498 H         1 16S         0.0380
@<TRIPOS>BOND
     1    1    2 ar 
     2    1    8 ar 
     3    2    3 1  
     4    2    4 ar 
     5    4    5 1  
     6    4    6 ar 
     7    6    7 ar 
     8    7    8 ar 
     9    8    9 1  
    10    9   10 1  
    11    9   19 2  
    12   10   11 1  
    13   11   12 ar 
    14   11   16 ar 
    15   12   13 ar 
    16   13   14 ar 
    17   14   15 ar 
    18   15   16 ar 
    19   16   17 1  
    20   17   18 2  
    21   17   19 1  
    22    1   20 1  
    23    3   21 1  
    24    5   22 1  
    25    6   23 1  
    26    7   24 1  
    27   12   25 1  
    28   13   26 1  
    29   14   27 1  
    30   15   28 1  
    31   19   29 1  
@<TRIPOS>SUBSTRUCTURE
     1 16S         1

