### 
### Created by X-TOOL on Mon Sep 10 21:13:13 2018
### 

@<TRIPOS>MOLECULE
4hlw_ligand
   33    35     1     0     0
SMALL
GAST_HUCK


@<TRIPOS>ATOM
      1 C19        20.0700   16.7180   31.7920 C.ar      1 17W        -0.0331
      2 C18        20.8680   16.2350   32.8180 C.ar      1 17W        -0.0706
      3 C17        20.8400   14.8750   33.1200 C.ar      1 17W        -0.0729
      4 C16        20.0240   13.9970   32.4070 C.ar      1 17W        -0.0706
      5 C15        19.2220   14.4850   31.3820 C.ar      1 17W        -0.0331
      6 C14        19.2500   15.8460   31.0750 C.ar      1 17W         0.0911
      7 O13        18.4700   16.3530   30.0680 O.3       1 17W        -0.3170
      8 C12        17.8260   15.5260   29.1040 C.3       1 17W         0.0823
      9 C11        17.3420   16.4560   27.9980 C.3       1 17W         0.0442
     10 S10        15.5860   16.4150   27.8900 S.3       1 17W        -0.0336
     11 C8         14.8680   18.0200   27.9790 C.2       1 17W         0.1852
     12 N9         15.2470   18.9460   28.8900 N.pl3     1 17W        -0.2372
     13 C2         14.4600   20.0280   28.6410 C.ar      1 17W         0.0791
     14 N7         13.8760   18.3960   27.1540 N.2       1 17W        -0.3081
     15 C3         13.5680   19.6630   27.5050 C.ar      1 17W         0.0215
     16 C4         12.6460   20.6030   27.0390 C.ar      1 17W        -0.0655
     17 C5         12.5730   21.8600   27.6360 C.ar      1 17W        -0.0786
     18 C6         13.4100   22.2020   28.6990 C.ar      1 17W        -0.0766
     19 C1         14.3470   21.2990   29.2020 C.ar      1 17W        -0.0422
     20 H1         20.0832   17.7738   31.5468 H         1 17W         0.0542
     21 H2         21.5065   16.9079   33.3789 H         1 17W         0.0589
     22 H3         21.4621   14.4935   33.9216 H         1 17W         0.0523
     23 H4         20.0153   12.9408   32.6506 H         1 17W         0.0589
     24 H5         18.5792   13.8130   30.8249 H         1 17W         0.0542
     25 H6         16.9738   15.0014   29.5606 H         1 17W         0.0624
     26 H7         18.5356   14.7895   28.6990 H         1 17W         0.0624
     27 H8         17.7721   16.1332   27.0384 H         1 17W         0.0438
     28 H9         17.6680   17.4831   28.2190 H         1 17W         0.0438
     29 H10        15.9732   18.8523   29.6144 H         1 17W         0.2330
     30 H11        11.9881   20.3550   26.2140 H         1 17W         0.0535
     31 H12        11.8545   22.5838   27.2688 H         1 17W         0.0516
     32 H13        13.3306   23.1880   29.1423 H         1 17W         0.0528
     33 H14        14.9869   21.5857   30.0287 H         1 17W         0.0541
@<TRIPOS>BOND
     1    1    2 ar 
     2    1    6 ar 
     3    2    3 ar 
     4    3    4 ar 
     5    4    5 ar 
     6    5    6 ar 
     7    6    7 1  
     8    7    8 1  
     9    8    9 1  
    10    9   10 1  
    11   10   11 1  
    12   11   12 1  
    13   11   14 2  
    14   12   13 1  
    15   13   15 ar 
    16   13   19 ar 
    17   14   15 1  
    18   15   16 ar 
    19   16   17 ar 
    20   17   18 ar 
    21   18   19 ar 
    22    1   20 1  
    23    2   21 1  
    24    3   22 1  
    25    4   23 1  
    26    5   24 1  
    27    8   25 1  
    28    8   26 1  
    29    9   27 1  
    30    9   28 1  
    31   12   29 1  
    32   16   30 1  
    33   17   31 1  
    34   18   32 1  
    35   19   33 1  
@<TRIPOS>SUBSTRUCTURE
     1 17W         1

