### 
### Created by X-TOOL on Mon Sep 10 21:13:11 2018
### 

@<TRIPOS>MOLECULE
4hmh_ligand
   29    31     1     0     0
SMALL
GAST_HUCK


@<TRIPOS>ATOM
      1 CAK         1.4690  -11.1140   -9.4960 C.ar      1 F94        -0.0170
      2 CAL         1.4570  -10.9010   -8.0950 C.ar      1 F94         0.0920
      3 OAS         0.3700  -10.3460   -7.4910 O.3       1 F94        -0.3324
      4 CAM         2.5530  -11.2260   -7.3060 C.ar      1 F94        -0.0294
      5 CAI         3.6620  -11.7690   -7.9260 C.ar      1 F94        -0.0653
      6 CAJ         3.6920  -11.9820   -9.3070 C.ar      1 F94        -0.0557
      7 CAH         2.5950  -11.6580  -10.1080 C.ar      1 F94         0.0218
      8 CAF         2.6810  -11.8700  -11.4910 C.2       1 F94         0.1412
      9 OAA         3.9380  -12.0840  -11.9380 O.3       1 F94        -0.2389
     10 CAB         4.2240  -12.2130  -13.2450 C.ar      1 F94         0.1367
     11 CAN         5.5650  -12.3090  -13.6290 C.ar      1 F94         0.0080
     12 CAO         5.8820  -12.4190  -14.9760 C.ar      1 F94         0.0865
     13 OAR         7.1800  -12.4750  -15.3690 O.3       1 F94        -0.3322
     14 CAP         4.8470  -12.4320  -15.9150 C.ar      1 F94        -0.0360
     15 CAQ         3.5200  -12.3520  -15.5080 C.ar      1 F94        -0.0580
     16 CAC         3.1860  -12.2620  -14.1560 C.ar      1 F94         0.0492
     17 CAD         1.8580  -12.1610  -13.7290 C.2       1 F94         0.1060
     18 OAG         0.8940  -12.2240  -14.5080 O.2       1 F94        -0.4190
     19 CAE         1.6200  -11.9370  -12.3830 C.2       1 F94         0.0103
     20 H1          0.6014  -10.8533  -10.0912 H         1 F94         0.0580
     21 H2          0.2151   -9.4815   -7.8528 H         1 F94         0.2480
     22 H3          2.5387  -11.0585   -6.2351 H         1 F94         0.0576
     23 H4          4.5267  -12.0353   -7.3290 H         1 F94         0.0600
     24 H5          4.5799  -12.4049   -9.7630 H         1 F94         0.0570
     25 H6          6.3500  -12.2976  -12.8816 H         1 F94         0.0490
     26 H7          7.2203  -12.5487  -16.3153 H         1 F94         0.2497
     27 H8          5.0811  -12.5052  -16.9709 H         1 F94         0.0488
     28 H9          2.7323  -12.3597  -16.2527 H         1 F94         0.0617
     29 H10         0.5992  -11.8133  -12.0243 H         1 F94         0.0425
@<TRIPOS>BOND
     1    1    2 ar 
     2    1    7 ar 
     3    2    3 1  
     4    2    4 ar 
     5    4    5 ar 
     6    5    6 ar 
     7    6    7 ar 
     8    7    8 1  
     9    8    9 1  
    10    8   19 2  
    11    9   10 1  
    12   10   11 ar 
    13   10   16 ar 
    14   11   12 ar 
    15   12   13 1  
    16   12   14 ar 
    17   14   15 ar 
    18   15   16 ar 
    19   16   17 1  
    20   17   18 2  
    21   17   19 1  
    22    1   20 1  
    23    3   21 1  
    24    4   22 1  
    25    5   23 1  
    26    6   24 1  
    27   11   25 1  
    28   13   26 1  
    29   14   27 1  
    30   15   28 1  
    31   19   29 1  
@<TRIPOS>SUBSTRUCTURE
     1 F94         1

