### 
### Created by X-TOOL on Mon Sep 10 21:13:15 2018
### 

@<TRIPOS>MOLECULE
4hmk_ligand
   22    21     1     0     0
SMALL
GAST_HUCK


@<TRIPOS>ATOM
      1 N         -17.8630   12.9670   -5.7630 N.4       1 LEU         0.2327
      2 CA        -17.7760   13.5810   -7.0880 C.3       1 LEU         0.0286
      3 C         -17.0450   14.9180   -7.0700 C.2       1 LEU         0.0844
      4 O         -16.7280   15.5480   -8.0910 O.co2     1 LEU        -0.5643
      5 CB        -19.1650   13.9140   -7.5990 C.3       1 LEU         0.0047
      6 CG        -20.0500   12.7350   -7.8860 C.3       1 LEU        -0.0400
      7 CD1       -21.2400   13.2130   -8.6330 C.3       1 LEU        -0.0624
      8 CD2       -19.2800   11.7100   -8.6860 C.3       1 LEU        -0.0624
      9 OXT       -16.8680   15.5040   -6.0400 O.co2     1 LEU        -0.5643
     10 H1        -18.3535   12.0890   -5.8311 H         1 LEU         0.2010
     11 H2        -18.3611   13.5827   -5.1394 H         1 LEU         0.2010
     12 H3        -16.9343   12.8061   -5.4056 H         1 LEU         0.2010
     13 H4        -17.2694   12.8841   -7.7719 H         1 LEU         0.1024
     14 H5        -19.0544   14.4889   -8.5303 H         1 LEU         0.0341
     15 H6        -19.6645   14.5357   -6.8414 H         1 LEU         0.0341
     16 H7        -20.3755   12.2797   -6.9391 H         1 LEU         0.0298
     17 H8        -21.9013   12.3618   -8.8527 H         1 LEU         0.0232
     18 H9        -20.9181   13.6800   -9.5755 H         1 LEU         0.0232
     19 H10       -21.7827   13.9514   -8.0245 H         1 LEU         0.0232
     20 H11       -18.4059   11.3751   -8.1082 H         1 LEU         0.0232
     21 H12       -18.9438   12.1601   -9.6317 H         1 LEU         0.0232
     22 H13       -19.9297   10.8486   -8.9004 H         1 LEU         0.0232
@<TRIPOS>BOND
     1    1    2 1  
     2    2    3 1  
     3    2    5 1  
     4    3    4 ar 
     5    3    9 ar 
     6    5    6 1  
     7    6    7 1  
     8    6    8 1  
     9    1   10 1  
    10    1   11 1  
    11    1   12 1  
    12    2   13 1  
    13    5   14 1  
    14    5   15 1  
    15    6   16 1  
    16    7   17 1  
    17    7   18 1  
    18    7   19 1  
    19    8   20 1  
    20    8   21 1  
    21    8   22 1  
@<TRIPOS>SUBSTRUCTURE
     1 LEU         1

