### 
### Created by X-TOOL on Mon Sep 10 21:13:13 2018
### 

@<TRIPOS>MOLECULE
4hnc_ligand
   28    29     1     0     0
SMALL
GAST_HUCK


@<TRIPOS>ATOM
      1 O01        18.1370   21.6670   63.0190 O.co2     1 0UT        -0.5667
      2 C02        19.2540   22.2380   63.1670 C.2       1 0UT         0.0260
      3 O03        19.3010   23.5110   63.4160 O.co2     1 0UT        -0.5667
      4 C04        20.4990   21.3910   63.0270 C.3       1 0UT         0.1046
      5 O05        20.1520   20.2390   62.2960 O.3       1 0UT        -0.4372
      6 C07        21.5970   22.1240   62.2900 C.ar      1 0UT        -0.0372
      7 C1         21.9050   19.9190   64.5300 C.ar      1 0UT        -0.0473
      8 C2         22.3530   19.5150   65.7900 C.ar      1 0UT        -0.0391
      9 C3         21.8770   20.1330   66.9530 C.ar      1 0UT        -0.0398
     10 C4         20.9660   21.1730   66.8420 C.ar      1 0UT        -0.0391
     11 C5         20.5290   21.5800   65.5650 C.ar      1 0UT        -0.0473
     12 C06        20.9830   20.9620   64.3920 C.ar      1 0UT        -0.0372
     13 C6         21.9050   23.4670   62.5310 C.ar      1 0UT        -0.0473
     14 C7         22.9250   24.1060   61.8380 C.ar      1 0UT        -0.0391
     15 C8         23.6430   23.4080   60.8850 C.ar      1 0UT        -0.0398
     16 C9         23.3570   22.0800   60.6320 C.ar      1 0UT        -0.0391
     17 C10        22.3430   21.4430   61.3380 C.ar      1 0UT        -0.0473
     18 H1         19.8271   20.4941   61.4405 H         1 0UT         0.1884
     19 H2         22.2778   19.4162   63.6450 H         1 0UT         0.0795
     20 H3         23.0782   18.7131   65.8685 H         1 0UT         0.0681
     21 H4         22.2164   19.8026   67.9281 H         1 0UT         0.0805
     22 H5         20.5928   21.6692   67.7306 H         1 0UT         0.0681
     23 H6         19.8199   22.3962   65.4880 H         1 0UT         0.0795
     24 H7         21.3376   24.0188   63.2717 H         1 0UT         0.0795
     25 H8         23.1565   25.1450   62.0430 H         1 0UT         0.0681
     26 H9         24.4336   23.9044   60.3340 H         1 0UT         0.0805
     27 H10        23.9224   21.5358   59.8842 H         1 0UT         0.0681
     28 H11        22.1316   20.3980   61.1420 H         1 0UT         0.0795
@<TRIPOS>BOND
     1    2    1 ar 
     2    2    3 ar 
     3    4    2 1  
     4    4    5 1  
     5    4    6 1  
     6   12    4 1  
     7    6   13 ar 
     8    6   17 ar 
     9    7    8 ar 
    10    7   12 ar 
    11    8    9 ar 
    12    9   10 ar 
    13   10   11 ar 
    14   11   12 ar 
    15   13   14 ar 
    16   14   15 ar 
    17   15   16 ar 
    18   16   17 ar 
    19    5   18 1  
    20    7   19 1  
    21    8   20 1  
    22    9   21 1  
    23   10   22 1  
    24   11   23 1  
    25   13   24 1  
    26   14   25 1  
    27   15   26 1  
    28   16   27 1  
    29   17   28 1  
@<TRIPOS>SUBSTRUCTURE
     1 0UT         1

