### 
### Created by X-TOOL on Mon Sep 10 21:13:11 2018
### 

@<TRIPOS>MOLECULE
4hnf_ligand
   43    46     1     0     0
SMALL
GAST_HUCK


@<TRIPOS>ATOM
      1 C1         23.6650   -8.0350   24.7180 C.ar      1 16W        -0.0191
      2 C2         24.8510   -7.5520   24.0560 C.ar      1 16W         0.0942
      3 C3         25.8740   -8.4980   23.5850 C.ar      1 16W        -0.0328
      4 C7         26.7530   -1.3490   21.7220 C.ar      1 16W         0.0558
      5 C8         25.5780   -1.9430   23.7210 C.ar      1 16W         0.1580
      6 C9         25.1320   -3.2210   23.1900 C.ar      1 16W         0.0868
      7 C10        25.5540   -3.4640   21.8660 C.ar      1 16W         0.1271
      8 C11        24.3800   -3.8970   24.2120 C.2       1 16W         0.0731
      9 C12        23.8500   -5.2820   24.1650 C.3       1 16W         0.1135
     10 C13        24.1390    0.5900   27.7680 C.3       1 16W         0.0504
     11 C14        26.4890   -0.0570   27.9570 C.3       1 16W         0.0504
     12 C15        26.2930   -1.1910   26.9510 C.3       1 16W         0.0013
     13 C16        25.2110   -0.8610   25.9190 C.3       1 16W         0.0811
     14 N2         26.3700   -1.0190   23.0150 N.ar      1 16W        -0.2692
     15 N4         26.3420   -2.5500   21.1780 N.ar      1 16W        -0.2661
     16 N5         25.0490   -1.9670   24.9620 N.pl3     1 16W        -0.1918
     17 N1         24.3710   -3.0620   25.2490 N.2       1 16W        -0.2107
     18 N3         25.1770   -4.5500   21.1680 N.pl3     1 16W        -0.3122
     19 O2         25.0090   -6.1730   23.8840 O.3       1 16W        -0.3054
     20 O1         25.2100    0.1700   28.6060 O.3       1 16W        -0.3796
     21 C17        23.9100   -0.4670   26.6360 C.3       1 16W         0.0013
     22 C4         25.7380   -9.9120   23.7640 C.ar      1 16W        -0.0701
     23 C5         24.5480  -10.3710   24.4330 C.ar      1 16W        -0.0590
     24 C6         23.5490   -9.4310   24.8880 C.ar      1 16W         0.0318
     25 CL1        22.1420   -9.9180   25.6700 Cl        1 16W        -0.0736
     26 H          22.8923   -7.3523   25.0715 H         1 16W         0.0547
     27 H          26.7619   -8.1112   23.0849 H         1 16W         0.0544
     28 H          27.3728   -0.6660   21.1411 H         1 16W         0.1029
     29 H          23.0875   -5.3805   23.3923 H         1 16W         0.0778
     30 H          23.3745   -5.5486   25.1089 H         1 16W         0.0778
     31 H          24.3867    1.5521   27.3196 H         1 16W         0.0561
     32 H          23.2306    0.6854   28.3627 H         1 16W         0.0561
     33 H          26.8287    0.8478   27.4529 H         1 16W         0.0561
     34 H          27.2492   -0.3235   28.6913 H         1 16W         0.0561
     35 H          25.9828   -2.0817   27.4974 H         1 16W         0.0317
     36 H          27.2336   -1.3438   26.4219 H         1 16W         0.0317
     37 H          25.5142    0.0009   25.3246 H         1 16W         0.0652
     38 H          24.5597   -5.2412   21.5941 H         1 16W         0.1845
     39 H          25.5084   -4.6825   20.2125 H         1 16W         0.1845
     40 H          23.2414   -0.0257   25.8969 H         1 16W         0.0317
     41 H          23.4965   -1.3647   27.0955 H         1 16W         0.0317
     42 H          26.4989  -10.6080   23.4108 H         1 16W         0.0589
     43 H          24.3994  -11.4382   24.5978 H         1 16W         0.0529
@<TRIPOS>BOND
     1    2    1 ar 
     2    1   24 ar 
     3    2    3 ar 
     4   19    2 1  
     5    3   22 ar 
     6   14    4 ar 
     7    4   15 ar 
     8    5    6 ar 
     9    5   14 ar 
    10   16    5 1  
    11    6    7 ar 
    12    6    8 1  
    13    7   15 ar 
    14    7   18 1  
    15    8    9 1  
    16    8   17 2  
    17    9   19 1  
    18   20   10 1  
    19   10   21 1  
    20   12   11 1  
    21   11   20 1  
    22   13   12 1  
    23   13   16 1  
    24   13   21 1  
    25   16   17 1  
    26   22   23 ar 
    27   23   24 ar 
    28   24   25 1  
    29    1   26 1  
    30    3   27 1  
    31    4   28 1  
    32    9   29 1  
    33    9   30 1  
    34   10   31 1  
    35   10   32 1  
    36   11   33 1  
    37   11   34 1  
    38   12   35 1  
    39   12   36 1  
    40   13   37 1  
    41   18   38 1  
    42   18   39 1  
    43   21   40 1  
    44   21   41 1  
    45   22   42 1  
    46   23   43 1  
@<TRIPOS>SUBSTRUCTURE
     1 16W         1

