### 
### Created by X-TOOL on Mon Sep 10 21:13:11 2018
### 

@<TRIPOS>MOLECULE
4hni_ligand
   43    46     1     0     0
SMALL
GAST_HUCK


@<TRIPOS>ATOM
      1 C1        -24.2520  -11.7370  -30.9200 C.ar      1 16W        -0.0191
      2 C2        -23.8020  -12.4060  -29.7660 C.ar      1 16W         0.0942
      3 C3        -22.5180  -12.0460  -29.1520 C.ar      1 16W        -0.0328
      4 C7        -27.3490  -16.5450  -25.4750 C.ar      1 16W         0.0558
      5 C8        -27.2870  -16.3570  -27.8910 C.ar      1 16W         0.1580
      6 C9        -26.7670  -15.0120  -27.8400 C.ar      1 16W         0.0868
      7 C10       -26.5700  -14.4970  -26.5430 C.ar      1 16W         0.1271
      8 C11       -26.6120  -14.6040  -29.1940 C.2       1 16W         0.0731
      9 C12       -26.0760  -13.3550  -29.6910 C.3       1 16W         0.1135
     10 C13       -29.7740  -18.8020  -31.1800 C.3       1 16W         0.0504
     11 C14       -27.4900  -19.8010  -31.2580 C.3       1 16W         0.0504
     12 C15       -26.9340  -18.5460  -30.6780 C.3       1 16W         0.0013
     13 C16       -27.9020  -17.8340  -29.7360 C.3       1 16W         0.0811
     14 N2        -27.5650  -17.0960  -26.7250 N.ar      1 16W        -0.2692
     15 N4        -26.8570  -15.2560  -25.4200 N.ar      1 16W        -0.2661
     16 N5        -27.3910  -16.5940  -29.2010 N.pl3     1 16W        -0.1918
     17 N1        -27.0100  -15.6030  -29.9410 N.2       1 16W        -0.2107
     18 N3        -26.1330  -13.2400  -26.3320 N.pl3     1 16W        -0.3122
     19 O2        -24.6850  -13.3780  -29.2840 O.3       1 16W        -0.3054
     20 O1        -28.7200  -19.4870  -31.9110 O.3       1 16W        -0.3796
     21 C17       -29.2350  -17.5840  -30.4430 C.3       1 16W         0.0013
     22 C4        -21.6890  -10.9800  -29.7340 C.ar      1 16W        -0.0701
     23 C5        -22.1750  -10.3000  -30.9230 C.ar      1 16W        -0.0590
     24 C6        -23.4530  -10.7400  -31.4370 C.ar      1 16W         0.0318
     25 CL1       -24.3660  -10.2070  -32.7160 Cl        1 16W        -0.0736
     26 H         -25.2005  -11.9987  -31.3890 H         1 16W         0.0547
     27 H         -22.1774  -12.5717  -28.2600 H         1 16W         0.0544
     28 H         -27.5596  -17.1081  -24.5658 H         1 16W         0.1029
     29 H         -26.6073  -12.4913  -29.2912 H         1 16W         0.0778
     30 H         -26.1870  -13.2606  -30.7712 H         1 16W         0.0778
     31 H         -30.1937  -19.4924  -30.4484 H         1 16W         0.0561
     32 H         -30.5303  -18.4703  -31.8914 H         1 16W         0.0561
     33 H         -27.6620  -20.5332  -30.4690 H         1 16W         0.0561
     34 H         -26.7855  -20.2266  -31.9726 H         1 16W         0.0561
     35 H         -26.7205  -17.8680  -31.5044 H         1 16W         0.0317
     36 H         -26.0498  -18.8143  -30.0999 H         1 16W         0.0317
     37 H         -28.0416  -18.5012  -28.8854 H         1 16W         0.0652
     38 H         -25.9340  -12.6295  -27.1245 H         1 16W         0.1845
     39 H         -26.0012  -12.8990  -25.3798 H         1 16W         0.1845
     40 H         -29.9644  -17.3162  -29.6786 H         1 16W         0.0317
     41 H         -29.0696  -16.8015  -31.1836 H         1 16W         0.0317
     42 H         -20.7341  -10.7067  -29.2850 H         1 16W         0.0589
     43 H         -21.6071   -9.5019  -31.4012 H         1 16W         0.0529
@<TRIPOS>BOND
     1    2    1 ar 
     2    1   24 ar 
     3    2    3 ar 
     4   19    2 1  
     5    3   22 ar 
     6   14    4 ar 
     7    4   15 ar 
     8    5    6 ar 
     9    5   14 ar 
    10   16    5 1  
    11    6    7 ar 
    12    6    8 1  
    13    7   15 ar 
    14    7   18 1  
    15    8    9 1  
    16    8   17 2  
    17    9   19 1  
    18   20   10 1  
    19   10   21 1  
    20   12   11 1  
    21   11   20 1  
    22   13   12 1  
    23   13   16 1  
    24   13   21 1  
    25   16   17 1  
    26   22   23 ar 
    27   23   24 ar 
    28   24   25 1  
    29    1   26 1  
    30    3   27 1  
    31    4   28 1  
    32    9   29 1  
    33    9   30 1  
    34   10   31 1  
    35   10   32 1  
    36   11   33 1  
    37   11   34 1  
    38   12   35 1  
    39   12   36 1  
    40   13   37 1  
    41   18   38 1  
    42   18   39 1  
    43   21   40 1  
    44   21   41 1  
    45   22   42 1  
    46   23   43 1  
@<TRIPOS>SUBSTRUCTURE
     1 16W         1

