### 
### Created by X-TOOL on Mon Sep 10 21:13:13 2018
### 

@<TRIPOS>MOLECULE
4hnn_ligand
   25    24     1     0     0
SMALL
GAST_HUCK


@<TRIPOS>ATOM
      1 N          50.9360    0.5310   41.6770 N.4       1 LYS         0.2327
      2 CA         50.4450    1.7150   42.4370 C.3       1 LYS         0.0283
      3 C          50.2000    1.3750   43.9130 C.2       1 LYS         0.0844
      4 O          50.1650    0.2080   44.3200 O.co2     1 LYS        -0.5643
      5 CB         49.1840    2.3170   41.7840 C.3       1 LYS         0.0026
      6 CG         47.8430    1.7490   42.2530 C.3       1 LYS        -0.0416
      7 CD         46.7210    2.2650   41.3580 C.3       1 LYS        -0.0123
      8 CE         45.3280    2.2400   41.9890 C.3       1 LYS        -0.0354
      9 NZ         44.8480    0.9690   42.5950 N.4       1 LYS         0.2185
     10 OXT        50.0150    2.2780   44.7340 O.co2     1 LYS        -0.5643
     11 H1         51.0862    0.7885   40.7141 H         1 LYS         0.2010
     12 H2         50.2506   -0.2066   41.7245 H         1 LYS         0.2010
     13 H3         51.8033    0.2102   42.0782 H         1 LYS         0.2010
     14 H4         51.2339    2.4807   42.4011 H         1 LYS         0.1024
     15 H5         49.2569    2.1523   40.6989 H         1 LYS         0.0339
     16 H6         49.1818    3.3972   41.9916 H         1 LYS         0.0339
     17 H7         47.6562    2.0634   43.2904 H         1 LYS         0.0270
     18 H8         47.8741    0.6506   42.2026 H         1 LYS         0.0270
     19 H9         46.6956    1.6442   40.4503 H         1 LYS         0.0317
     20 H10        46.9532    3.3049   41.0847 H         1 LYS         0.0317
     21 H11        44.6100    2.5169   41.2030 H         1 LYS         0.0813
     22 H12        45.3163    3.0027   42.7815 H         1 LYS         0.0813
     23 H13        43.9214    1.1036   42.9682 H         1 LYS         0.1994
     24 H14        45.4723    0.6937   43.3370 H         1 LYS         0.1994
     25 H15        44.8250    0.2485   41.8905 H         1 LYS         0.1994
@<TRIPOS>BOND
     1    1    2 1  
     2    2    3 1  
     3    2    5 1  
     4    3    4 ar 
     5    3   10 ar 
     6    5    6 1  
     7    6    7 1  
     8    7    8 1  
     9    8    9 1  
    10    1   11 1  
    11    1   12 1  
    12    1   13 1  
    13    2   14 1  
    14    5   15 1  
    15    5   16 1  
    16    6   17 1  
    17    6   18 1  
    18    7   19 1  
    19    7   20 1  
    20    8   21 1  
    21    8   22 1  
    22    9   23 1  
    23    9   24 1  
    24    9   25 1  
@<TRIPOS>SUBSTRUCTURE
     1 LYS         1

