### 
### Created by X-TOOL on Mon Sep 10 21:13:19 2018
### 

@<TRIPOS>MOLECULE
4hnp_ligand
   86    85     1     0     0
SMALL
GAST_HUCK


@<TRIPOS>ATOM
      1 C27        58.0560 -134.6970   33.9240 C.3       1 ONK         0.0374
      2 C1         59.1620 -135.3690   34.7070 C.2       1 ONK         0.1782
      3 O1         59.0140 -136.5110   35.1240 O.2       1 ONK        -0.3969
      4 C28        56.8290 -134.5740   34.8200 C.3       1 ONK        -0.0361
      5 C29        55.8660 -133.5070   34.3200 C.3       1 ONK        -0.0512
      6 C30        54.4290 -133.8370   34.7120 C.3       1 ONK        -0.0558
      7 C31        53.4490 -133.3010   33.6880 C.3       1 ONK        -0.0653
      8 N1         60.2600 -134.6370   34.8990 N.am      1 ONK        -0.2654
      9 C2         61.4310 -135.0910   35.6330 C.3       1 ONK         0.1332
     10 C5         61.1110 -135.2220   37.0990 C.2       1 ONK         0.2042
     11 O3         60.5320 -134.3120   37.6690 O.2       1 ONK        -0.3944
     12 C3         62.5780 -134.1070   35.3990 C.3       1 ONK        -0.0063
     13 C4         63.0620 -134.1630   33.9560 C.3       1 ONK        -0.0584
     14 C26        63.7470 -134.3290   36.3490 C.3       1 ONK        -0.0584
     15 C10        62.4700 -136.5670   39.9600 C.2       1 ONK         0.2023
     16 C9         58.1100 -138.4350   38.8450 C.2       1 ONK         0.1782
     17 C8         59.4880 -138.2570   38.2460 C.3       1 ONK         0.0416
     18 N2         61.4770 -136.3520   37.7100 N.am      1 ONK        -0.2636
     19 O7         57.9440 -139.2210   39.7660 O.2       1 ONK        -0.3969
     20 N5         57.1130 -137.7160   38.3150 N.am      1 ONK        -0.2793
     21 C24        56.9870 -136.2790   38.5280 C.3       1 ONK         0.0222
     22 C25        56.0670 -138.3110   37.4820 C.3       1 ONK         0.0222
     23 C6         61.2190 -136.6060   39.1220 C.3       1 ONK         0.1329
     24 C7         60.5140 -137.9470   39.3320 C.3       1 ONK         0.0045
     25 O2         63.5720 -136.7460   39.4560 O.2       1 ONK        -0.3945
     26 N3         62.2900 -136.3320   41.2600 N.am      1 ONK        -0.2771
     27 C11        63.3740 -136.2510   42.2250 C.3       1 ONK         0.0799
     28 C16        63.2910 -137.4020   43.2410 C.3       1 ONK         0.1127
     29 O6         62.0880 -137.2420   44.0150 O.3       1 ONK        -0.3743
     30 C17        63.2450 -138.7470   42.5260 C.2       1 ONK        -0.0462
     31 C23        64.3580 -139.1740   41.6090 C.3       1 ONK        -0.0275
     32 C18        62.2280 -139.5750   42.7010 C.2       1 ONK        -0.1268
     33 C12        63.3180 -134.8760   42.8950 C.3       1 ONK        -0.0229
     34 C13        64.3220 -133.8330   42.4020 C.3       1 ONK        -0.0444
     35 C15        64.7250 -133.9680   40.9370 C.3       1 ONK        -0.0626
     36 C14        63.7790 -132.4330   42.6620 C.3       1 ONK        -0.0626
     37 H          57.8089 -135.3015   33.0388 H         1 ONK         0.0502
     38 H          58.3833 -133.6964   33.6050 H         1 ONK         0.0502
     39 H          57.1559 -134.3098   35.8365 H         1 ONK         0.0290
     40 H          56.3068 -135.5418   34.8427 H         1 ONK         0.0290
     41 H          55.9344 -133.4465   33.2238 H         1 ONK         0.0267
     42 H          56.1445 -132.5376   34.7589 H         1 ONK         0.0267
     43 H          54.2102 -133.3843   35.6903 H         1 ONK         0.0263
     44 H          54.3166 -134.9291   34.7799 H         1 ONK         0.0263
     45 H          52.4233 -133.5528   33.9953 H         1 ONK         0.0230
     46 H          53.6593 -133.7530   32.7075 H         1 ONK         0.0230
     47 H          53.5529 -132.2082   33.6179 H         1 ONK         0.0230
     48 H          60.2797 -133.7148   34.5128 H         1 ONK         0.1883
     49 H          61.7301 -136.0787   35.2522 H         1 ONK         0.0802
     50 H          62.1863 -133.0961   35.5852 H         1 ONK         0.0343
     51 H          63.8851 -133.4466   33.8173 H         1 ONK         0.0234
     52 H          62.2330 -133.9042   33.2809 H         1 ONK         0.0234
     53 H          63.4175 -135.1786   33.7276 H         1 ONK         0.0234
     54 H          63.3882 -134.2869   37.3880 H         1 ONK         0.0234
     55 H          64.5026 -133.5456   36.1900 H         1 ONK         0.0234
     56 H          64.1947 -135.3149   36.1554 H         1 ONK         0.0234
     57 H          59.4636 -137.4265   37.5252 H         1 ONK         0.0505
     58 H          59.7789 -139.1831   37.7287 H         1 ONK         0.0505
     59 H          61.9482 -137.0539   37.1758 H         1 ONK         0.1883
     60 H          56.0973 -135.9066   37.9991 H         1 ONK         0.0486
     61 H          57.8828 -135.7710   38.1413 H         1 ONK         0.0486
     62 H          56.8857 -136.0753   39.6042 H         1 ONK         0.0486
     63 H          56.2489 -139.3912   37.3810 H         1 ONK         0.0486
     64 H          56.0799 -137.8424   36.4869 H         1 ONK         0.0486
     65 H          55.0862 -138.1467   37.9520 H         1 ONK         0.0486
     66 H          60.5498 -135.8101   39.4807 H         1 ONK         0.0801
     67 H          61.2716 -138.7445   39.3365 H         1 ONK         0.0337
     68 H          59.9997 -137.9243   40.3041 H         1 ONK         0.0337
     69 H          61.3549 -136.2040   41.5904 H         1 ONK         0.1858
     70 H          64.3312 -136.3392   41.6903 H         1 ONK         0.0609
     71 H          64.1682 -137.3705   43.9040 H         1 ONK         0.0815
     72 H          62.0238 -137.9476   44.6479 H         1 ONK         0.2137
     73 H          64.1326 -140.1688   41.1973 H         1 ONK         0.0425
     74 H          65.3018 -139.2157   42.1725 H         1 ONK         0.0425
     75 H          64.4537 -138.4499   40.7865 H         1 ONK         0.0425
     76 H          61.4058 -139.2962   43.3584 H         1 ONK         0.0076
     77 H          62.2131 -140.5353   42.1876 H         1 ONK         0.0076
     78 H          63.4900 -135.0220   43.9716 H         1 ONK         0.0293
     79 H          62.3086 -134.4685   42.7368 H         1 ONK         0.0293
     80 H          65.2367 -133.9596   42.9997 H         1 ONK         0.0296
     81 H          65.4453 -133.1772   40.6805 H         1 ONK         0.0232
     82 H          63.8328 -133.8716   40.3009 H         1 ONK         0.0232
     83 H          65.1876 -134.9525   40.7731 H         1 ONK         0.0232
     84 H          63.4904 -132.3423   43.7196 H         1 ONK         0.0232
     85 H          62.8994 -132.2568   42.0255 H         1 ONK         0.0232
     86 H          64.5553 -131.6894   42.4287 H         1 ONK         0.0232
@<TRIPOS>BOND
     1    2    1 1  
     2    1    4 1  
     3    2    3 2  
     4    8    2 am 
     5    4    5 1  
     6    5    6 1  
     7    6    7 1  
     8    9    8 1  
     9   10    9 1  
    10    9   12 1  
    11   10   11 2  
    12   18   10 am 
    13   12   13 1  
    14   12   14 1  
    15   23   15 1  
    16   15   25 2  
    17   15   26 am 
    18   17   16 1  
    19   16   19 2  
    20   16   20 am 
    21   24   17 1  
    22   23   18 1  
    23   20   21 1  
    24   20   22 1  
    25   23   24 1  
    26   26   27 1  
    27   27   28 1  
    28   27   33 1  
    29   28   29 1  
    30   28   30 1  
    31   30   31 1  
    32   30   32 2  
    33   33   34 1  
    34   34   35 1  
    35   34   36 1  
    36    1   37 1  
    37    1   38 1  
    38    4   39 1  
    39    4   40 1  
    40    5   41 1  
    41    5   42 1  
    42    6   43 1  
    43    6   44 1  
    44    7   45 1  
    45    7   46 1  
    46    7   47 1  
    47    8   48 1  
    48    9   49 1  
    49   12   50 1  
    50   13   51 1  
    51   13   52 1  
    52   13   53 1  
    53   14   54 1  
    54   14   55 1  
    55   14   56 1  
    56   17   57 1  
    57   17   58 1  
    58   18   59 1  
    59   21   60 1  
    60   21   61 1  
    61   21   62 1  
    62   22   63 1  
    63   22   64 1  
    64   22   65 1  
    65   23   66 1  
    66   24   67 1  
    67   24   68 1  
    68   26   69 1  
    69   27   70 1  
    70   28   71 1  
    71   29   72 1  
    72   31   73 1  
    73   31   74 1  
    74   31   75 1  
    75   32   76 1  
    76   32   77 1  
    77   33   78 1  
    78   33   79 1  
    79   34   80 1  
    80   35   81 1  
    81   35   82 1  
    82   35   83 1  
    83   36   84 1  
    84   36   85 1  
    85   36   86 1  
@<TRIPOS>SUBSTRUCTURE
     1 ONK         1

