### 
### Created by X-TOOL on Mon Sep 10 21:13:14 2018
### 

@<TRIPOS>MOLECULE
4hod_ligand
   22    21     1     0     0
SMALL
GAST_HUCK


@<TRIPOS>ATOM
      1 N         -19.5130  -11.7140   19.2240 N.4       1 LEU         0.2327
      2 CA        -18.2180  -12.3820   19.1530 C.3       1 LEU         0.0286
      3 C         -18.3010  -13.6760   18.3560 C.2       1 LEU         0.0844
      4 O         -17.2760  -14.3280   18.1440 O.co2     1 LEU        -0.5643
      5 CB        -17.7170  -12.6930   20.5600 C.3       1 LEU         0.0047
      6 CG        -17.3330  -11.4680   21.3840 C.3       1 LEU        -0.0400
      7 CD1       -16.7870  -11.9040   22.7310 C.3       1 LEU        -0.0624
      8 CD2       -16.3080  -10.6570   20.6140 C.3       1 LEU        -0.0624
      9 OXT       -19.3850  -14.0930   17.9300 O.co2     1 LEU        -0.5643
     10 H1        -19.4234  -10.8631   19.7570 H         1 LEU         0.2010
     11 H2        -20.1807  -12.3221   19.6717 H         1 LEU         0.2010
     12 H3        -19.8297  -11.4951   18.2924 H         1 LEU         0.2010
     13 H4        -17.5030  -11.7081   18.6584 H         1 LEU         0.1024
     14 H5        -16.8312  -13.3394   20.4735 H         1 LEU         0.0341
     15 H6        -18.5126  -13.2311   21.0961 H         1 LEU         0.0341
     16 H7        -18.2269  -10.8485   21.5487 H         1 LEU         0.0298
     17 H8        -16.5122  -11.0165   23.3199 H         1 LEU         0.0232
     18 H9        -15.8977  -12.5335   22.5799 H         1 LEU         0.0232
     19 H10       -17.5553  -12.4780   23.2697 H         1 LEU         0.0232
     20 H11       -16.7317  -10.3561   19.6445 H         1 LEU         0.0232
     21 H12       -15.4079  -11.2670   20.4473 H         1 LEU         0.0232
     22 H13       -16.0411   -9.7598   21.1918 H         1 LEU         0.0232
@<TRIPOS>BOND
     1    1    2 1  
     2    2    3 1  
     3    2    5 1  
     4    3    4 ar 
     5    3    9 ar 
     6    5    6 1  
     7    6    7 1  
     8    6    8 1  
     9    1   10 1  
    10    1   11 1  
    11    1   12 1  
    12    2   13 1  
    13    5   14 1  
    14    5   15 1  
    15    6   16 1  
    16    7   17 1  
    17    7   18 1  
    18    7   19 1  
    19    8   20 1  
    20    8   21 1  
    21    8   22 1  
@<TRIPOS>SUBSTRUCTURE
     1 LEU         1

