### 
### Created by X-TOOL on Mon Sep 10 21:13:12 2018
### 

@<TRIPOS>MOLECULE
4hp0_ligand
  106   109     1     0     0
SMALL
GAST_HUCK


@<TRIPOS>ATOM
      1 C1         23.6160    8.6300   -2.6920 C.3       1 NOJ        -0.0040
      2 C2         24.4030    8.8570   -3.9740 C.3       1 NOJ         0.1231
      3 O2         24.4800   10.2670   -4.1840 O.3       1 NOJ        -0.3838
      4 C3         23.7460    8.1510   -5.1600 C.3       1 NOJ         0.1175
      5 O3         24.5050    8.3820   -6.3340 O.3       1 NOJ        -0.3862
      6 C4         23.6930    6.6450   -4.9260 C.3       1 NOJ         0.1345
      7 O4         23.0830    5.9390   -6.0110 O.3       1 NOJ        -0.3374
      8 C5         22.8630    6.3870   -3.6900 C.3       1 NOJ         0.0305
      9 N5         23.2940    7.2170   -2.5670 N.4       1 NOJ         0.2346
     10 C6         22.9620    4.9150   -3.3130 C.3       1 NOJ         0.0893
     11 O6         24.2990    4.6870   -2.8740 O.3       1 NOJ        -0.3894
     12 C1         23.7380    5.2510   -7.0620 C.3       1 NAG         0.1855
     13 C2         23.0920    4.0310   -7.7100 C.3       1 NAG         0.1210
     14 C3         23.9820    3.4950   -8.8090 C.3       1 NAG         0.1114
     15 C4         24.4430    4.6310   -9.7370 C.3       1 NAG         0.1181
     16 C5         24.8780    5.9080   -8.9870 C.3       1 NAG         0.1134
     17 C6         25.1440    7.1080   -9.9070 C.3       1 NAG         0.0730
     18 C7         21.6130    2.6610   -6.3160 C.2       1 NAG         0.1733
     19 C8         21.5580    1.6870   -5.1850 C.3       1 NAG         0.0257
     20 N2         22.8410    3.0510   -6.6680 N.am      1 NAG        -0.2766
     21 O3         23.2570    2.4970   -9.4970 O.3       1 NAG        -0.3867
     22 O4         25.5790    4.1580  -10.4130 O.3       1 NAG        -0.3404
     23 O5         23.9330    6.2830   -8.0080 O.3       1 NAG        -0.3408
     24 O6         23.9870    7.4620  -10.6430 O.3       1 NAG        -0.3924
     25 O7         20.5760    3.0450   -6.8570 O.2       1 NAG        -0.3974
     26 C1         25.3670    3.9330  -11.8150 C.3       1 NAG         0.1854
     27 C2         26.7680    3.8610  -12.4170 C.3       1 NAG         0.1210
     28 C3         26.7520    3.3500  -13.8520 C.3       1 NAG         0.1114
     29 C4         25.8570    2.1190  -14.0000 C.3       1 NAG         0.1181
     30 C5         24.4770    2.4090  -13.4110 C.3       1 NAG         0.1134
     31 C6         23.4970    1.2460  -13.5700 C.3       1 NAG         0.0730
     32 C7         28.3850    5.4470  -11.4660 C.2       1 NAG         0.1733
     33 C8         28.9630    6.8330  -11.5240 C.3       1 NAG         0.0257
     34 N2         27.4250    5.1620  -12.3500 N.am      1 NAG        -0.2766
     35 O3         28.0770    3.0380  -14.2190 O.3       1 NAG        -0.3867
     36 O4         25.7170    1.7830  -15.3610 O.3       1 NAG        -0.3404
     37 O5         24.6320    2.7440  -12.0480 O.3       1 NAG        -0.3408
     38 O6         23.9470    0.1030  -12.8720 O.3       1 NAG        -0.3924
     39 O7         28.8010    4.6420  -10.6310 O.2       1 NAG        -0.3974
     40 C1         26.2100    0.4590  -15.6190 C.3       1 NAG         0.1854
     41 C2         25.5900   -0.0720  -16.9140 C.3       1 NAG         0.1210
     42 C3         26.1810   -1.4310  -17.2760 C.3       1 NAG         0.1111
     43 C4         27.7050   -1.3540  -17.2630 C.3       1 NAG         0.1116
     44 C5         28.1740   -0.8340  -15.9060 C.3       1 NAG         0.1130
     45 C6         29.6950   -0.7840  -15.8070 C.3       1 NAG         0.0730
     46 C7         23.3540    0.6660  -17.5390 C.2       1 NAG         0.1733
     47 C8         21.8770    0.5080  -17.3410 C.3       1 NAG         0.0257
     48 N2         24.1400   -0.1290  -16.8140 N.am      1 NAG        -0.2766
     49 O3         25.7320   -1.8230  -18.5520 O.3       1 NAG        -0.3867
     50 O4         28.2510   -2.6260  -17.5200 O.3       1 NAG        -0.3865
     51 O5         27.6230    0.4550  -15.6980 O.3       1 NAG        -0.3408
     52 O6         30.1690    0.3950  -16.4180 O.3       1 NAG        -0.3924
     53 O7         23.7800    1.4970  -18.3480 O.2       1 NAG        -0.3974
     54 H1         22.6862    9.2169   -2.7232 H         1 NOJ         0.0840
     55 H2         24.2206    8.9464   -1.8292 H         1 NOJ         0.0840
     56 H3         25.4192    8.4546   -3.8503 H         1 NOJ         0.0674
     57 H4         23.6027   10.6224   -4.2644 H         1 NOJ         0.2101
     58 H5         22.7258    8.5399   -5.2936 H         1 NOJ         0.0649
     59 H6         24.0930    7.9415   -7.0679 H         1 NOJ         0.2100
     60 H7         24.7160    6.2683   -4.7793 H         1 NOJ         0.0682
     61 H8         21.8138    6.6267   -3.9172 H         1 NOJ         0.0900
     62 H9         22.5549    7.1620   -1.8838 H         1 NOJ         0.2019
     63 H10        24.1234    6.7765   -2.2009 H         1 NOJ         0.2019
     64 H11        22.7386    4.2852   -4.1868 H         1 NOJ         0.0614
     65 H12        22.2539    4.6837   -2.5036 H         1 NOJ         0.0614
     66 H13        24.4833    5.2396   -2.1236 H         1 NOJ         0.2097
     67 H14        24.7120    4.9104   -6.6809 H         1 NOJ         0.0935
     68 H15        22.1307    4.3248   -8.1567 H         1 NOJ         0.0633
     69 H16        24.8747    3.0367   -8.3585 H         1 NOJ         0.0645
     70 H17        23.6376    4.8770  -10.4447 H         1 NOJ         0.0650
     71 H18        25.8212    5.6715   -8.4728 H         1 NOJ         0.0647
     72 H19        25.9495    6.8485  -10.6097 H         1 NOJ         0.0584
     73 H20        25.4547    7.9669   -9.2940 H         1 NOJ         0.0584
     74 H21        20.5096    1.4300   -4.9731 H         1 NOJ         0.0467
     75 H22        22.0130    2.1375   -4.2906 H         1 NOJ         0.0467
     76 H23        22.1107    0.7761   -5.4583 H         1 NOJ         0.0467
     77 H24        23.6236    2.6497   -6.1921 H         1 NOJ         0.1857
     78 H25        23.8056    2.1186  -10.1740 H         1 NOJ         0.2100
     79 H26        23.2885    7.6918  -10.0416 H         1 NOJ         0.2095
     80 H27        24.8145    4.7781  -12.2516 H         1 NOJ         0.0935
     81 H28        27.3545    3.1515  -11.8148 H         1 NOJ         0.0633
     82 H29        26.3695    4.1432  -14.5112 H         1 NOJ         0.0645
     83 H30        26.3127    1.2745  -13.4623 H         1 NOJ         0.0650
     84 H31        24.0552    3.2763  -13.9401 H         1 NOJ         0.0647
     85 H32        23.4012    1.0002  -14.6379 H         1 NOJ         0.0584
     86 H33        22.5159    1.5460  -13.1733 H         1 NOJ         0.0584
     87 H34        29.7379    6.9398  -10.7506 H         1 NOJ         0.0467
     88 H35        28.1658    7.5704  -11.3486 H         1 NOJ         0.0467
     89 H36        29.4085    7.0034  -12.5152 H         1 NOJ         0.0467
     90 H37        27.1439    5.8725  -12.9951 H         1 NOJ         0.1857
     91 H38        28.0940    2.7483  -15.1236 H         1 NOJ         0.2100
     92 H39        23.3220   -0.6031  -12.9867 H         1 NOJ         0.2095
     93 H40        25.9074   -0.1970  -14.7895 H         1 NOJ         0.0935
     94 H41        25.8423    0.6302  -17.7222 H         1 NOJ         0.0633
     95 H42        25.8524   -2.1748  -16.5352 H         1 NOJ         0.0645
     96 H43        28.0376   -0.6584  -18.0476 H         1 NOJ         0.0647
     97 H44        27.8005   -1.5111  -15.1237 H         1 NOJ         0.0647
     98 H45        30.1243   -1.6589  -16.3171 H         1 NOJ         0.0584
     99 H46        29.9937   -0.7935  -14.7484 H         1 NOJ         0.0584
    100 H47        21.3421    1.2155  -17.9916 H         1 NOJ         0.0467
    101 H48        21.6239    0.7129  -16.2903 H         1 NOJ         0.0467
    102 H49        21.5808   -0.5203  -17.5958 H         1 NOJ         0.0467
    103 H50        23.7215   -0.7829  -16.1837 H         1 NOJ         0.1857
    104 H51        24.7831   -1.8687  -18.5523 H         1 NOJ         0.2100
    105 H52        27.9493   -2.9337  -18.3667 H         1 NOJ         0.2100
    106 H53        29.7980    1.1502  -15.9769 H         1 NOJ         0.2095
@<TRIPOS>BOND
     1    2    1 1  
     2    9    1 1  
     3    2    3 1  
     4    4    2 1  
     5    4    5 1  
     6    6    4 1  
     7    7    6 1  
     8    6    8 1  
     9   12    7 1  
    10    8    9 1  
    11    8   10 1  
    12   10   11 1  
    13   13   12 1  
    14   23   12 1  
    15   14   13 1  
    16   13   20 1  
    17   15   14 1  
    18   14   21 1  
    19   15   16 1  
    20   22   15 1  
    21   16   17 1  
    22   16   23 1  
    23   17   24 1  
    24   18   19 1  
    25   20   18 am 
    26   18   25 2  
    27   26   22 1  
    28   27   26 1  
    29   37   26 1  
    30   28   27 1  
    31   27   34 1  
    32   29   28 1  
    33   28   35 1  
    34   29   30 1  
    35   36   29 1  
    36   30   31 1  
    37   30   37 1  
    38   31   38 1  
    39   32   33 1  
    40   34   32 am 
    41   32   39 2  
    42   40   36 1  
    43   41   40 1  
    44   40   51 1  
    45   41   42 1  
    46   48   41 1  
    47   42   43 1  
    48   42   49 1  
    49   43   44 1  
    50   43   50 1  
    51   44   45 1  
    52   51   44 1  
    53   45   52 1  
    54   46   47 1  
    55   46   48 am 
    56   46   53 2  
    57    1   54 1  
    58    1   55 1  
    59    2   56 1  
    60    3   57 1  
    61    4   58 1  
    62    5   59 1  
    63    6   60 1  
    64    8   61 1  
    65    9   62 1  
    66    9   63 1  
    67   10   64 1  
    68   10   65 1  
    69   11   66 1  
    70   12   67 1  
    71   13   68 1  
    72   14   69 1  
    73   15   70 1  
    74   16   71 1  
    75   17   72 1  
    76   17   73 1  
    77   19   74 1  
    78   19   75 1  
    79   19   76 1  
    80   20   77 1  
    81   21   78 1  
    82   24   79 1  
    83   26   80 1  
    84   27   81 1  
    85   28   82 1  
    86   29   83 1  
    87   30   84 1  
    88   31   85 1  
    89   31   86 1  
    90   33   87 1  
    91   33   88 1  
    92   33   89 1  
    93   34   90 1  
    94   35   91 1  
    95   38   92 1  
    96   40   93 1  
    97   41   94 1  
    98   42   95 1  
    99   43   96 1  
   100   44   97 1  
   101   45   98 1  
   102   45   99 1  
   103   47  100 1  
   104   47  101 1  
   105   47  102 1  
   106   48  103 1  
   107   49  104 1  
   108   50  105 1  
   109   52  106 1  
@<TRIPOS>SUBSTRUCTURE
     1 NOJ         1

