### 
### Created by X-TOOL on Mon Sep 10 21:13:13 2018
### 

@<TRIPOS>MOLECULE
4hpi_ligand
   79    81     1     0     0
SMALL
GAST_HUCK


@<TRIPOS>ATOM
      1 C1        -23.7840   -8.7890   -3.8840 C.3       1 NOJ        -0.0040
      2 C2        -24.8820   -8.7590   -4.9460 C.3       1 NOJ         0.1231
      3 O2        -25.0600  -10.0660   -5.5070 O.3       1 NOJ        -0.3838
      4 C3        -24.5170   -7.8060   -6.0740 C.3       1 NOJ         0.1175
      5 O3        -25.6230   -7.7520   -6.9880 O.3       1 NOJ        -0.3862
      6 C4        -24.1760   -6.3970   -5.5690 C.3       1 NOJ         0.1345
      7 O4        -23.5260   -5.6800   -6.6200 O.3       1 NOJ        -0.3374
      8 C5        -23.2310   -6.3640   -4.3570 C.3       1 NOJ         0.0305
      9 N5        -23.4830   -7.4470   -3.4160 N.4       1 NOJ         0.2346
     10 C6        -23.2830   -5.0280   -3.6080 C.3       1 NOJ         0.0893
     11 O6        -24.5180   -4.8680   -2.8930 O.3       1 NOJ        -0.3894
     12 C1        -24.3340   -5.0070   -7.5890 C.3       1 NAG         0.1855
     13 C2        -23.4870   -3.8630   -8.1040 C.3       1 NAG         0.1210
     14 C3        -24.2880   -3.1160   -9.1730 C.3       1 NAG         0.1114
     15 C4        -24.8970   -4.0290  -10.2600 C.3       1 NAG         0.1181
     16 C5        -25.5740   -5.2300   -9.6000 C.3       1 NAG         0.1134
     17 C6        -26.0160   -6.3050  -10.5900 C.3       1 NAG         0.0730
     18 C7        -21.9410   -2.8210   -6.4840 C.2       1 NAG         0.1733
     19 C8        -21.8410   -1.9540   -5.2680 C.3       1 NAG         0.0257
     20 N2        -23.1700   -3.0290   -6.9570 N.am      1 NAG        -0.2766
     21 O3        -23.4560   -2.1480   -9.7420 O.3       1 NAG        -0.3867
     22 O4        -25.8680   -3.3310  -11.0220 O.3       1 NAG        -0.3404
     23 O5        -24.6950   -5.8380   -8.6740 O.3       1 NAG        -0.3408
     24 O6        -26.4010   -7.4460   -9.8580 O.3       1 NAG        -0.3924
     25 O7        -20.9160   -3.2910   -6.9780 O.2       1 NAG        -0.3974
     26 C1        -25.5580   -3.2530  -12.4250 C.3       1 NAG         0.1854
     27 C2        -26.8570   -3.0000  -13.2120 C.3       1 NAG         0.1210
     28 C3        -26.5720   -2.6690  -14.6820 C.3       1 NAG         0.1111
     29 C4        -25.4780   -1.6150  -14.8300 C.3       1 NAG         0.1116
     30 C5        -24.2530   -1.9960  -13.9980 C.3       1 NAG         0.1130
     31 C6        -23.2400   -0.8670  -14.0030 C.3       1 NAG         0.0730
     32 C7        -28.8480   -4.1690  -12.3590 C.2       1 NAG         0.1733
     33 C8        -29.6820   -5.4160  -12.4180 C.3       1 NAG         0.0257
     34 N2        -27.7670   -4.1350  -13.1430 N.am      1 NAG        -0.2766
     35 O3        -27.7480   -2.2160  -15.3260 O.3       1 NAG        -0.3867
     36 O4        -25.1200   -1.4730  -16.1900 O.3       1 NAG        -0.3865
     37 O5        -24.6360   -2.2130  -12.6550 O.3       1 NAG        -0.3408
     38 O6        -23.8010    0.2310  -13.3080 O.3       1 NAG        -0.3924
     39 O7        -29.1790   -3.2540  -11.6040 O.2       1 NAG        -0.3974
     40 H1        -22.8752   -9.2323   -4.3171 H         1 NOJ         0.0840
     41 H2        -24.1209   -9.4004   -3.0339 H         1 NOJ         0.0840
     42 H3        -25.8217   -8.4286   -4.4794 H         1 NOJ         0.0674
     43 H4        -24.2467  -10.3514   -5.9064 H         1 NOJ         0.2101
     44 H5        -23.6363   -8.2047   -6.5988 H         1 NOJ         0.0649
     45 H6        -25.4142   -7.1605   -7.7015 H         1 NOJ         0.2100
     46 H7        -25.1143   -5.8914   -5.2969 H         1 NOJ         0.0682
     47 H8        -22.2090   -6.4901   -4.7439 H         1 NOJ         0.0900
     48 H9        -22.6602   -7.5225   -2.8387 H         1 NOJ         0.2019
     49 H10       -24.2654   -7.1585   -2.8498 H         1 NOJ         0.2019
     50 H11       -23.1827   -4.2079   -4.3342 H         1 NOJ         0.0614
     51 H12       -22.4488   -4.9879   -2.8921 H         1 NOJ         0.0614
     52 H13       -24.5155   -4.0319   -2.4421 H         1 NOJ         0.2097
     53 H14       -25.2474   -4.6248   -7.1098 H         1 NOJ         0.0935
     54 H15       -22.5565   -4.2446   -8.5495 H         1 NOJ         0.0633
     55 H16       -25.1230   -2.6052   -8.6712 H         1 NOJ         0.0645
     56 H17       -24.0947   -4.3786  -10.9263 H         1 NOJ         0.0650
     57 H18       -26.4630   -4.8645   -9.0652 H         1 NOJ         0.0647
     58 H19       -25.1827   -6.5575  -11.2622 H         1 NOJ         0.0584
     59 H20       -26.8670   -5.9382  -11.1827 H         1 NOJ         0.0584
     60 H21       -20.7857   -1.8559   -4.9734 H         1 NOJ         0.0467
     61 H22       -22.4106   -2.4099   -4.4448 H         1 NOJ         0.0467
     62 H23       -22.2531   -0.9590   -5.4921 H         1 NOJ         0.0467
     63 H24       -23.9294   -2.5780   -6.4881 H         1 NOJ         0.1857
     64 H25       -23.9601   -1.6126  -10.3434 H         1 NOJ         0.2100
     65 H26       -25.6633   -7.7562   -9.3461 H         1 NOJ         0.2095
     66 H27       -25.1149   -4.2048  -12.7533 H         1 NOJ         0.0935
     67 H28       -27.3581   -2.1331  -12.7567 H         1 NOJ         0.0633
     68 H29       -26.2331   -3.5900  -15.1789 H         1 NOJ         0.0645
     69 H30       -25.8652   -0.6523  -14.4650 H         1 NOJ         0.0647
     70 H31       -23.7989   -2.9083  -14.4121 H         1 NOJ         0.0647
     71 H32       -23.0120   -0.5753  -15.0388 H         1 NOJ         0.0584
     72 H33       -22.3164   -1.1926  -13.5020 H         1 NOJ         0.0584
     73 H34       -30.5358   -5.3189  -11.7313 H         1 NOJ         0.0467
     74 H35       -29.0700   -6.2808  -12.1220 H         1 NOJ         0.0467
     75 H36       -30.0513   -5.5620  -13.4438 H         1 NOJ         0.0467
     76 H37       -27.5719   -4.9326  -13.7138 H         1 NOJ         0.1857
     77 H38       -28.0331   -1.4026  -14.9266 H         1 NOJ         0.2100
     78 H39       -25.8887   -1.2365  -16.6956 H         1 NOJ         0.2100
     79 H40       -23.1802    0.9500  -13.3002 H         1 NOJ         0.2095
@<TRIPOS>BOND
     1    2    1 1  
     2    9    1 1  
     3    2    3 1  
     4    4    2 1  
     5    4    5 1  
     6    6    4 1  
     7    7    6 1  
     8    6    8 1  
     9   12    7 1  
    10    8    9 1  
    11    8   10 1  
    12   10   11 1  
    13   13   12 1  
    14   23   12 1  
    15   14   13 1  
    16   13   20 1  
    17   15   14 1  
    18   14   21 1  
    19   15   16 1  
    20   22   15 1  
    21   16   17 1  
    22   16   23 1  
    23   17   24 1  
    24   18   19 1  
    25   20   18 am 
    26   18   25 2  
    27   26   22 1  
    28   27   26 1  
    29   26   37 1  
    30   27   28 1  
    31   34   27 1  
    32   28   29 1  
    33   28   35 1  
    34   29   30 1  
    35   29   36 1  
    36   30   31 1  
    37   37   30 1  
    38   31   38 1  
    39   32   33 1  
    40   32   34 am 
    41   32   39 2  
    42    1   40 1  
    43    1   41 1  
    44    2   42 1  
    45    3   43 1  
    46    4   44 1  
    47    5   45 1  
    48    6   46 1  
    49    8   47 1  
    50    9   48 1  
    51    9   49 1  
    52   10   50 1  
    53   10   51 1  
    54   11   52 1  
    55   12   53 1  
    56   13   54 1  
    57   14   55 1  
    58   15   56 1  
    59   16   57 1  
    60   17   58 1  
    61   17   59 1  
    62   19   60 1  
    63   19   61 1  
    64   19   62 1  
    65   20   63 1  
    66   21   64 1  
    67   24   65 1  
    68   26   66 1  
    69   27   67 1  
    70   28   68 1  
    71   29   69 1  
    72   30   70 1  
    73   31   71 1  
    74   31   72 1  
    75   33   73 1  
    76   33   74 1  
    77   33   75 1  
    78   34   76 1  
    79   35   77 1  
    80   36   78 1  
    81   38   79 1  
@<TRIPOS>SUBSTRUCTURE
     1 NOJ         1

