### 
### Created by X-TOOL on Mon Sep 10 21:13:14 2018
### 

@<TRIPOS>MOLECULE
4hra_ligand
   84    89     1     0     0
SMALL
GAST_HUCK


@<TRIPOS>ATOM
      1 C2        -17.3800  -59.1930  -16.2860 C.ar      1 EP6         0.0533
      2 C4        -18.3200  -61.3090  -16.3170 C.ar      1 EP6         0.1613
      3 C5        -17.0800  -61.8530  -16.5780 C.ar      1 EP6         0.1045
      4 C6        -15.9920  -61.0070  -16.6930 C.ar      1 EP6         0.1298
      5 C8        -18.5070  -63.4480  -16.4770 C.2       1 EP6         0.1123
      6 NAV       -23.9420  -62.1630   -7.7480 N.2       1 EP6        -0.2886
      7 CBB       -23.5250  -63.1030   -6.9020 C.ar      1 EP6         0.0538
      8 CAK       -22.4130  -63.2060   -6.0610 C.ar      1 EP6        -0.0389
      9 CAI       -22.2400  -64.3430   -5.2700 C.ar      1 EP6        -0.0599
     10 CAZ       -23.1790  -65.3780   -5.3130 C.ar      1 EP6        -0.0688
     11 CBO       -23.0000  -66.6330   -4.4380 C.3       1 EP6        -0.0589
     12 CAD       -21.7610  -66.4630   -3.5540 C.3       1 EP6        -0.0908
     13 CAE       -24.2330  -66.8210   -3.5480 C.3       1 EP6        -0.0908
     14 CAC       -22.8450  -67.8650   -5.3360 C.3       1 EP6        -0.0908
     15 CAM       -24.2920  -65.2640   -6.1510 C.ar      1 EP6        -0.0164
     16 CBC       -24.4640  -64.1300   -6.9440 C.ar      1 EP6         0.1121
     17 NAW       -25.4070  -63.7690   -7.8140 N.pl3     1 EP6        -0.2323
     18 CBA       -25.0900  -62.5690   -8.2900 C.2       1 EP6         0.1378
     19 CAN       -25.8960  -61.8050   -9.3210 C.3       1 EP6         0.0370
     20 CAO       -25.1640  -61.9050  -10.6580 C.3       1 EP6        -0.0299
     21 CBG       -25.5060  -63.1920  -11.4130 C.3       1 EP6        -0.0280
     22 CAQ       -24.5150  -64.3100  -11.0840 C.3       1 EP6        -0.0064
     23 CAP       -24.8910  -63.1220  -12.8090 C.3       1 EP6        -0.0064
     24 CBH       -24.3080  -64.5230  -12.5920 C.3       1 EP6        -0.0200
     25 NBM       -22.8670  -64.5380  -12.9530 N.4       1 EP6         0.2411
     26 CBF       -22.0480  -65.4510  -12.1090 C.3       1 EP6        -0.0263
     27 CAB       -22.1890  -66.9310  -12.5110 C.3       1 EP6        -0.0218
     28 CAA       -20.5800  -64.9860  -12.1060 C.3       1 EP6        -0.0218
     29 CAR       -22.6480  -64.6910  -14.4110 C.3       1 EP6        -0.0018
     30 CBK       -22.3400  -63.3150  -15.0200 C.3       1 EP6         0.1301
     31 OAX       -20.9250  -63.1280  -14.9500 O.3       1 EP6        -0.3338
     32 CBI       -22.7110  -63.2500  -16.5090 C.3       1 EP6         0.1174
     33 OAG       -23.7410  -62.2780  -16.6950 O.3       1 EP6        -0.3863
     34 CBJ       -21.4420  -62.7500  -17.1820 C.3       1 EP6         0.1386
     35 OAH       -21.7570  -61.6900  -18.0980 O.3       1 EP6        -0.3836
     36 CBL       -20.6340  -62.2110  -16.0040 C.3       1 EP6         0.2011
     37 N9        -19.1810  -62.3150  -16.2630 N.pl3     1 EP6        -0.1919
     38 N7        -17.2230  -63.1660  -16.6690 N.2       1 EP6        -0.2958
     39 N3        -18.4420  -59.9800  -16.1780 N.ar      1 EP6        -0.2714
     40 N1        -16.1750  -59.6850  -16.5410 N.ar      1 EP6        -0.2698
     41 N6        -14.7850  -61.5070  -16.9390 N.pl3     1 EP6        -0.3152
     42 H1        -17.4996  -58.1227  -16.1630 H         1 EP6         0.0996
     43 H2        -18.9417  -64.4464  -16.4918 H         1 EP6         0.1349
     44 H3        -21.6855  -62.4033   -6.0232 H         1 EP6         0.0618
     45 H4        -21.3756  -64.4237   -4.6209 H         1 EP6         0.0698
     46 H5        -21.6314  -67.3584   -2.9283 H         1 EP6         0.0116
     47 H6        -21.8886  -65.5807   -2.9096 H         1 EP6         0.0116
     48 H7        -20.8731  -66.3280   -4.1891 H         1 EP6         0.0116
     49 H8        -25.1255  -66.9435   -4.1792 H         1 EP6         0.0116
     50 H9        -24.3581  -65.9384   -2.9035 H         1 EP6         0.0116
     51 H10       -24.1007  -67.7161   -2.9224 H         1 EP6         0.0116
     52 H11       -21.9619  -67.7406   -5.9799 H         1 EP6         0.0116
     53 H12       -23.7423  -67.9776   -5.9622 H         1 EP6         0.0116
     54 H13       -22.7195  -68.7612   -4.7106 H         1 EP6         0.0116
     55 H14       -25.0254  -66.0615   -6.1846 H         1 EP6         0.0811
     56 H15       -26.2361  -64.3228   -8.0723 H         1 EP6         0.2362
     57 H16       -25.9831  -60.7504   -9.0207 H         1 EP6         0.0561
     58 H17       -26.9002  -62.2448   -9.4111 H         1 EP6         0.0561
     59 H18       -24.0803  -61.8823  -10.4705 H         1 EP6         0.0302
     60 H19       -25.4465  -61.0437  -11.2812 H         1 EP6         0.0302
     61 H20       -26.5739  -63.4474  -11.3478 H         1 EP6         0.0307
     62 H21       -24.9581  -65.1701  -10.5606 H         1 EP6         0.0323
     63 H22       -23.6161  -63.9760  -10.5450 H         1 EP6         0.0323
     64 H23       -24.1363  -62.3313  -12.9326 H         1 EP6         0.0323
     65 H24       -25.6257  -63.0584  -13.6252 H         1 EP6         0.0323
     66 H25       -24.8551  -65.3624  -13.0459 H         1 EP6         0.0851
     67 H26       -22.5306  -63.6135  -12.7338 H         1 EP6         0.2040
     68 H27       -22.4221  -65.3650  -11.0782 H         1 EP6         0.0846
     69 H28       -21.5624  -67.5510  -11.8530 H         1 EP6         0.0284
     70 H29       -21.8648  -67.0601  -13.5542 H         1 EP6         0.0284
     71 H30       -23.2404  -67.2391  -12.4129 H         1 EP6         0.0284
     72 H31       -19.9816  -65.6650  -11.4808 H         1 EP6         0.0284
     73 H32       -20.5195  -63.9653  -11.7004 H         1 EP6         0.0284
     74 H33       -20.1902  -64.9956  -13.1346 H         1 EP6         0.0284
     75 H34       -23.5533  -65.1061  -14.8779 H         1 EP6         0.0841
     76 H35       -21.8004  -65.3697  -14.5870 H         1 EP6         0.0841
     77 H36       -22.8716  -62.5298  -14.4624 H         1 EP6         0.0678
     78 H37       -23.0228  -64.2312  -16.8964 H         1 EP6         0.0649
     79 H38       -23.4289  -61.4284  -16.4064 H         1 EP6         0.2100
     80 H39       -20.9104  -63.5590  -17.7043 H         1 EP6         0.0676
     81 H40       -22.1632  -60.9738  -17.6242 H         1 EP6         0.2101
     82 H41       -20.9184  -61.1778  -15.7559 H         1 EP6         0.0996
     83 H42       -13.9744  -60.8773  -17.0247 H         1 EP6         0.1820
     84 H43       -14.6604  -62.5241  -17.0439 H         1 EP6         0.1820
@<TRIPOS>BOND
     1   39    1 ar 
     2    1   40 ar 
     3    2    3 ar 
     4   37    2 1  
     5    2   39 ar 
     6    3    4 ar 
     7   38    3 1  
     8    4   40 ar 
     9    4   41 1  
    10   37    5 1  
    11    5   38 2  
    12    6    7 1  
    13   18    6 2  
    14    7    8 ar 
    15   16    7 ar 
    16    8    9 ar 
    17   10    9 ar 
    18   10   11 1  
    19   15   10 ar 
    20   11   12 1  
    21   11   13 1  
    22   11   14 1  
    23   16   15 ar 
    24   17   16 1  
    25   18   17 1  
    26   19   18 1  
    27   20   19 1  
    28   21   20 1  
    29   22   21 1  
    30   23   21 1  
    31   24   22 1  
    32   24   23 1  
    33   25   24 1  
    34   25   26 1  
    35   29   25 1  
    36   26   27 1  
    37   26   28 1  
    38   30   29 1  
    39   31   30 1  
    40   32   30 1  
    41   36   31 1  
    42   32   33 1  
    43   34   32 1  
    44   34   35 1  
    45   36   34 1  
    46   36   37 1  
    47    1   42 1  
    48    5   43 1  
    49    8   44 1  
    50    9   45 1  
    51   12   46 1  
    52   12   47 1  
    53   12   48 1  
    54   13   49 1  
    55   13   50 1  
    56   13   51 1  
    57   14   52 1  
    58   14   53 1  
    59   14   54 1  
    60   15   55 1  
    61   17   56 1  
    62   19   57 1  
    63   19   58 1  
    64   20   59 1  
    65   20   60 1  
    66   21   61 1  
    67   22   62 1  
    68   22   63 1  
    69   23   64 1  
    70   23   65 1  
    71   24   66 1  
    72   25   67 1  
    73   26   68 1  
    74   27   69 1  
    75   27   70 1  
    76   27   71 1  
    77   28   72 1  
    78   28   73 1  
    79   28   74 1  
    80   29   75 1  
    81   29   76 1  
    82   30   77 1  
    83   32   78 1  
    84   33   79 1  
    85   34   80 1  
    86   35   81 1  
    87   36   82 1  
    88   41   83 1  
    89   41   84 1  
@<TRIPOS>SUBSTRUCTURE
     1 EP6         1

