### 
### Created by X-TOOL on Mon Sep 10 21:13:19 2018
### 

@<TRIPOS>MOLECULE
4hrc_ligand
   89    88     1     0     0
SMALL
GAST_HUCK


@<TRIPOS>ATOM
      1 C4         58.0620 -134.9130   33.8310 C.3       1 OV2         0.0374
      2 C5         59.2210 -135.6450   34.4650 C.2       1 OV2         0.1782
      3 O1         59.3120 -136.8580   34.3660 O.2       1 OV2        -0.3969
      4 C1         56.8840 -134.9370   34.8010 C.3       1 OV2        -0.0361
      5 C2         55.7310 -134.1130   34.2500 C.3       1 OV2        -0.0512
      6 C3         54.5790 -134.0470   35.2450 C.3       1 OV2        -0.0558
      7 C29        53.2810 -133.7330   34.5270 C.3       1 OV2        -0.0653
      8 N1         60.1020 -134.8930   35.1180 N.am      1 OV2        -0.2654
      9 C6         61.2630 -135.4520   35.7780 C.3       1 OV2         0.1332
     10 C10        61.0050 -135.5740   37.2470 C.2       1 OV2         0.2042
     11 O2         60.5590 -134.6270   37.8640 O.2       1 OV2        -0.3944
     12 C7         62.4980 -134.5990   35.4940 C.3       1 OV2        -0.0063
     13 C8         62.9200 -134.7150   34.0370 C.3       1 OV2        -0.0584
     14 C9         63.6670 -134.9630   36.3930 C.3       1 OV2        -0.0584
     15 C15        62.4110 -136.9600   39.9570 C.2       1 OV2         0.2021
     16 C14        58.1600 -138.7620   39.0410 C.2       1 OV2         0.1782
     17 C13        59.4700 -138.7890   38.2850 C.3       1 OV2         0.0416
     18 N2         61.2900 -136.7550   37.7830 N.am      1 OV2        -0.2636
     19 O8         58.0680 -138.1890   40.1160 O.2       1 OV2        -0.3969
     20 N3         57.1310 -139.3870   38.4710 N.am      1 OV2        -0.2793
     21 C30        56.2260 -138.7070   37.5490 C.3       1 OV2         0.0222
     22 C31        56.8370 -140.7920   38.7320 C.3       1 OV2         0.0222
     23 C11        61.1280 -137.1150   39.1770 C.3       1 OV2         0.1329
     24 C12        60.6300 -138.5500   39.2420 C.3       1 OV2         0.0045
     25 O3         63.4950 -136.9160   39.3790 O.2       1 OV2        -0.3945
     26 N4         62.2810 -136.8880   41.2900 N.am      1 OV2        -0.2795
     27 O4         62.0260 -137.5430   44.0420 O.3       1 OV2        -0.3892
     28 O7         62.2600 -139.9440   41.6000 O.3       1 OV2        -0.3947
     29 C16        63.3810 -136.6910   42.2190 C.3       1 OV2         0.0685
     30 C17        63.3490 -137.5770   43.4820 C.3       1 OV2         0.0827
     31 C26        64.3680 -134.2720   42.2000 C.3       1 OV2        -0.0446
     32 C28        64.8250 -134.3970   40.7500 C.3       1 OV2        -0.0626
     33 C27        63.9660 -132.8320   42.4950 C.3       1 OV2        -0.0626
     34 C25        63.2330 -135.2150   42.5980 C.3       1 OV2        -0.0251
     35 C24        62.5240 -139.9160   43.0040 C.3       1 OV2         0.0492
     36 C23        64.7610 -139.2210   42.1560 C.3       1 OV2        -0.0579
     37 C22        63.7550 -139.0650   43.3000 C.3       1 OV2         0.0075
     38 H1         57.7788 -135.4099   32.8914 H         1 OV2         0.0502
     39 H2         58.3500 -133.8719   33.6230 H         1 OV2         0.0502
     40 H3         57.2007 -134.5175   35.7673 H         1 OV2         0.0290
     41 H4         56.5521 -135.9760   34.9434 H         1 OV2         0.0290
     42 H5         55.3739 -134.5736   33.3171 H         1 OV2         0.0267
     43 H6         56.0855 -133.0925   34.0428 H         1 OV2         0.0267
     44 H7         54.7837 -133.2597   35.9855 H         1 OV2         0.0263
     45 H8         54.4854 -135.0163   35.7566 H         1 OV2         0.0263
     46 H9         52.4595 -133.6886   35.2572 H         1 OV2         0.0230
     47 H10        53.0717 -134.5195   33.7870 H         1 OV2         0.0230
     48 H11        53.3700 -132.7630   34.0159 H         1 OV2         0.0230
     49 H12        59.9572 -133.9042   35.1546 H         1 OV2         0.1883
     50 H13        61.4421 -136.4596   35.3748 H         1 OV2         0.0802
     51 H14        62.2319 -133.5502   35.6919 H         1 OV2         0.0343
     52 H15        63.8094 -134.0918   33.8622 H         1 OV2         0.0234
     53 H16        62.0995 -134.3728   33.3892 H         1 OV2         0.0234
     54 H17        63.1563 -135.7642   33.8061 H         1 OV2         0.0234
     55 H18        63.3600 -134.8785   37.4459 H         1 OV2         0.0234
     56 H19        64.5056 -134.2779   36.1995 H         1 OV2         0.0234
     57 H20        63.9820 -135.9961   36.1847 H         1 OV2         0.0234
     58 H21        59.4635 -138.0015   37.5171 H         1 OV2         0.0505
     59 H22        59.5920 -139.7702   37.8030 H         1 OV2         0.0505
     60 H23        61.6485 -137.4588   37.1697 H         1 OV2         0.1883
     61 H24        55.4560 -139.4126   37.2039 H         1 OV2         0.0486
     62 H25        56.7952 -138.3339   36.6848 H         1 OV2         0.0486
     63 H26        55.7449 -137.8622   38.0636 H         1 OV2         0.0486
     64 H27        57.5791 -141.1973   39.4356 H         1 OV2         0.0486
     65 H28        56.8791 -141.3568   37.7890 H         1 OV2         0.0486
     66 H29        55.8312 -140.8813   39.1683 H         1 OV2         0.0486
     67 H30        60.3719 -136.4539   39.6256 H         1 OV2         0.0801
     68 H31        61.4561 -139.2260   38.9764 H         1 OV2         0.0337
     69 H32        60.2957 -138.7649   40.2677 H         1 OV2         0.0337
     70 H33        61.3611 -136.9762   41.6720 H         1 OV2         0.1855
     71 H34        61.9988 -138.0867   44.8205 H         1 OV2         0.2099
     72 H35        61.4916 -140.4774   41.4340 H         1 OV2         0.2094
     73 H36        64.3365 -136.8657   41.7028 H         1 OV2         0.0582
     74 H37        64.0507 -137.1342   44.2042 H         1 OV2         0.0620
     75 H38        65.2323 -134.5214   42.8331 H         1 OV2         0.0296
     76 H39        65.6397 -133.6829   40.5595 H         1 OV2         0.0232
     77 H40        63.9811 -134.1779   40.0794 H         1 OV2         0.0232
     78 H41        65.1838 -135.4203   40.5655 H         1 OV2         0.0232
     79 H42        63.6379 -132.7500   43.5417 H         1 OV2         0.0232
     80 H43        63.1421 -132.5374   41.8284 H         1 OV2         0.0232
     81 H44        64.8278 -132.1691   42.3279 H         1 OV2         0.0232
     82 H45        63.1289 -135.1635   43.6918 H         1 OV2         0.0291
     83 H46        62.3127 -134.8428   42.1241 H         1 OV2         0.0291
     84 H47        62.6993 -140.9420   43.3598 H         1 OV2         0.0560
     85 H48        61.6553 -139.4899   43.5272 H         1 OV2         0.0560
     86 H49        65.6510 -138.6091   42.3645 H         1 OV2         0.0234
     87 H50        64.2999 -138.8885   41.2143 H         1 OV2         0.0234
     88 H51        65.0548 -140.2773   42.0675 H         1 OV2         0.0234
     89 H52        64.2192 -139.4193   44.2322 H         1 OV2         0.0346
@<TRIPOS>BOND
     1    2    1 1  
     2    1    4 1  
     3    2    3 2  
     4    8    2 am 
     5    4    5 1  
     6    5    6 1  
     7    6    7 1  
     8    9    8 1  
     9   10    9 1  
    10    9   12 1  
    11   10   11 2  
    12   18   10 am 
    13   12   13 1  
    14   12   14 1  
    15   15   23 1  
    16   15   25 2  
    17   26   15 am 
    18   17   16 1  
    19   16   19 2  
    20   16   20 am 
    21   24   17 1  
    22   23   18 1  
    23   20   21 1  
    24   20   22 1  
    25   23   24 1  
    26   29   26 1  
    27   30   27 1  
    28   35   28 1  
    29   30   29 1  
    30   29   34 1  
    31   37   30 1  
    32   31   32 1  
    33   31   33 1  
    34   34   31 1  
    35   35   37 1  
    36   37   36 1  
    37    1   38 1  
    38    1   39 1  
    39    4   40 1  
    40    4   41 1  
    41    5   42 1  
    42    5   43 1  
    43    6   44 1  
    44    6   45 1  
    45    7   46 1  
    46    7   47 1  
    47    7   48 1  
    48    8   49 1  
    49    9   50 1  
    50   12   51 1  
    51   13   52 1  
    52   13   53 1  
    53   13   54 1  
    54   14   55 1  
    55   14   56 1  
    56   14   57 1  
    57   17   58 1  
    58   17   59 1  
    59   18   60 1  
    60   21   61 1  
    61   21   62 1  
    62   21   63 1  
    63   22   64 1  
    64   22   65 1  
    65   22   66 1  
    66   23   67 1  
    67   24   68 1  
    68   24   69 1  
    69   26   70 1  
    70   27   71 1  
    71   28   72 1  
    72   29   73 1  
    73   30   74 1  
    74   31   75 1  
    75   32   76 1  
    76   32   77 1  
    77   32   78 1  
    78   33   79 1  
    79   33   80 1  
    80   33   81 1  
    81   34   82 1  
    82   34   83 1  
    83   35   84 1  
    84   35   85 1  
    85   36   86 1  
    86   36   87 1  
    87   36   88 1  
    88   37   89 1  
@<TRIPOS>SUBSTRUCTURE
     1 OV2         1

