### 
### Created by X-TOOL on Mon Sep 10 21:13:19 2018
### 

@<TRIPOS>MOLECULE
4hrd_ligand
   85    84     1     0     0
SMALL
GAST_HUCK


@<TRIPOS>ATOM
      1 C4         58.2800 -134.4440   34.2720 C.3       1 OV1         0.0374
      2 C5         59.3560 -135.2370   34.9120 C.2       1 OV1         0.1782
      3 O1         59.3150 -136.4110   34.9350 O.2       1 OV1        -0.3969
      4 C1         57.1110 -134.4230   35.2270 C.3       1 OV1        -0.0361
      5 C2         55.9470 -133.6430   34.6570 C.3       1 OV1        -0.0512
      6 C3         54.8490 -133.5340   35.6840 C.3       1 OV1        -0.0558
      7 C29        53.5420 -133.3600   34.9630 C.3       1 OV1        -0.0653
      8 N1         60.3320 -134.5980   35.4510 N.am      1 OV1        -0.2654
      9 C6         61.3740 -135.2370   36.1430 C.3       1 OV1         0.1332
     10 C10        60.9640 -135.3590   37.5360 C.2       1 OV1         0.2041
     11 O2         60.3860 -134.4300   37.9830 O.2       1 OV1        -0.3944
     12 C7         62.3960 -134.1660   36.0180 C.3       1 OV1        -0.0063
     13 C8         62.6370 -133.9590   34.5570 C.3       1 OV1        -0.0584
     14 C9         63.7020 -134.5070   36.6500 C.3       1 OV1        -0.0584
     15 N2         61.2340 -136.4620   38.2200 N.am      1 OV1        -0.2636
     16 C11        61.0280 -136.5720   39.6380 C.3       1 OV1         0.1333
     17 C12        60.2700 -137.8490   39.9980 C.3       1 OV1         0.0178
     18 C13        59.1810 -138.3990   39.0740 C.3       1 OV1         0.1033
     19 S1         59.5970 -140.0360   38.6930 S.3       1 OV1         0.1431
     20 O8         59.8490 -140.1620   37.2370 O.3       1 OV1        -0.1242
     21 C14        58.4540 -141.1870   39.1990 C.3       1 OV1         0.0886
     22 C15        62.3180 -136.5360   40.4030 C.2       1 OV1         0.2021
     23 O3         63.3560 -136.7670   39.8750 O.2       1 OV1        -0.3945
     24 N3         62.2880 -136.2640   41.6940 N.am      1 OV1        -0.2795
     25 O4         62.0030 -136.9470   44.2510 O.3       1 OV1        -0.3892
     26 O7         62.7250 -139.9190   41.8750 O.3       1 OV1        -0.3947
     27 C16        63.4410 -136.2380   42.5690 C.3       1 OV1         0.0685
     28 C17        63.3070 -137.0970   43.8000 C.3       1 OV1         0.0827
     29 C26        63.5140 -133.7700   42.2000 C.3       1 OV1        -0.0446
     30 C28        63.6160 -132.4860   42.9460 C.3       1 OV1        -0.0626
     31 C27        64.7260 -133.9120   41.3560 C.3       1 OV1        -0.0626
     32 C25        63.5450 -134.8760   43.1890 C.3       1 OV1        -0.0251
     33 C24        62.4670 -139.2750   43.1080 C.3       1 OV1         0.0492
     34 C23        64.8100 -138.7290   42.6430 C.3       1 OV1        -0.0579
     35 C22        63.6730 -138.5580   43.6280 C.3       1 OV1         0.0075
     36 H1         57.9818 -134.9114   33.3219 H         1 OV1         0.0502
     37 H2         58.6298 -133.4185   34.0823 H         1 OV1         0.0502
     38 H3         57.4279 -133.9547   36.1705 H         1 OV1         0.0290
     39 H4         56.7885 -135.4566   35.4209 H         1 OV1         0.0290
     40 H5         55.5625 -134.1609   33.7660 H         1 OV1         0.0267
     41 H6         56.2859 -132.6346   34.3774 H         1 OV1         0.0267
     42 H7         55.0331 -132.6661   36.3343 H         1 OV1         0.0263
     43 H8         54.8181 -134.4490   36.2937 H         1 OV1         0.0263
     44 H9         52.7265 -133.2784   35.6967 H         1 OV1         0.0230
     45 H10        53.3639 -134.2286   34.3120 H         1 OV1         0.0230
     46 H11        53.5788 -132.4457   34.3526 H         1 OV1         0.0230
     47 H12        60.3505 -133.6011   35.3743 H         1 OV1         0.1883
     48 H13        61.6816 -136.2023   35.7145 H         1 OV1         0.0802
     49 H14        62.0082 -133.2437   36.4752 H         1 OV1         0.0343
     50 H15        63.3911 -133.1703   34.4179 H         1 OV1         0.0234
     51 H16        61.6979 -133.6585   34.0694 H         1 OV1         0.0234
     52 H17        62.9994 -134.8959   34.1088 H         1 OV1         0.0234
     53 H18        63.5569 -134.6657   37.7288 H         1 OV1         0.0234
     54 H19        64.4119 -133.6816   36.4931 H         1 OV1         0.0234
     55 H20        64.1010 -135.4254   36.1947 H         1 OV1         0.0234
     56 H21        61.5972 -137.2528   37.7273 H         1 OV1         0.1883
     57 H22        60.4202 -135.7111   39.9533 H         1 OV1         0.0801
     58 H23        59.7927 -137.6668   40.9721 H         1 OV1         0.0339
     59 H24        61.0241 -138.6431   40.1019 H         1 OV1         0.0339
     60 H25        59.1327 -137.8000   38.1527 H         1 OV1         0.0640
     61 H26        58.2063 -138.3683   39.5829 H         1 OV1         0.0640
     62 H27        60.5652 -139.5889   36.9900 H         1 OV1         0.4476
     63 H28        58.7976 -142.1933   38.9174 H         1 OV1         0.0601
     64 H29        57.4875 -140.9810   38.7158 H         1 OV1         0.0601
     65 H30        58.3369 -141.1319   40.2914 H         1 OV1         0.0601
     66 H31        61.3975 -136.0595   42.1004 H         1 OV1         0.1855
     67 H32        61.8759 -137.4752   45.0303 H         1 OV1         0.2099
     68 H33        61.9379 -140.3611   41.5792 H         1 OV1         0.2094
     69 H34        64.3420 -136.5051   41.9972 H         1 OV1         0.0582
     70 H35        63.9870 -136.6906   44.5632 H         1 OV1         0.0620
     71 H36        62.5980 -133.8026   41.5919 H         1 OV1         0.0296
     72 H37        63.5954 -131.6465   42.2355 H         1 OV1         0.0232
     73 H38        64.5592 -132.4645   43.5117 H         1 OV1         0.0232
     74 H39        62.7688 -132.3980   43.6421 H         1 OV1         0.0232
     75 H40        64.6728 -134.8561   40.7939 H         1 OV1         0.0232
     76 H41        65.6203 -133.9165   41.9964 H         1 OV1         0.0232
     77 H42        64.7834 -133.0688   40.6519 H         1 OV1         0.0232
     78 H43        64.4920 -134.8185   43.7456 H         1 OV1         0.0291
     79 H44        62.7026 -134.7449   43.8840 H         1 OV1         0.0291
     80 H45        62.1573 -140.0302   43.8454 H         1 OV1         0.0560
     81 H46        61.6548 -138.5470   42.9655 H         1 OV1         0.0560
     82 H47        65.7015 -138.2046   43.0175 H         1 OV1         0.0234
     83 H48        64.5185 -138.3074   41.6697 H         1 OV1         0.0234
     84 H49        65.0361 -139.7991   42.5262 H         1 OV1         0.0234
     85 H50        63.9694 -138.9785   44.6003 H         1 OV1         0.0346
@<TRIPOS>BOND
     1    2    1 1  
     2    1    4 1  
     3    2    3 2  
     4    8    2 am 
     5    4    5 1  
     6    5    6 1  
     7    6    7 1  
     8    9    8 1  
     9   10    9 1  
    10    9   12 1  
    11   10   11 2  
    12   15   10 am 
    13   12   13 1  
    14   12   14 1  
    15   16   15 1  
    16   16   17 1  
    17   22   16 1  
    18   17   18 1  
    19   18   19 1  
    20   19   20 1  
    21   19   21 1  
    22   22   23 2  
    23   24   22 am 
    24   27   24 1  
    25   28   25 1  
    26   33   26 1  
    27   28   27 1  
    28   27   32 1  
    29   35   28 1  
    30   29   30 1  
    31   29   31 1  
    32   32   29 1  
    33   33   35 1  
    34   35   34 1  
    35    1   36 1  
    36    1   37 1  
    37    4   38 1  
    38    4   39 1  
    39    5   40 1  
    40    5   41 1  
    41    6   42 1  
    42    6   43 1  
    43    7   44 1  
    44    7   45 1  
    45    7   46 1  
    46    8   47 1  
    47    9   48 1  
    48   12   49 1  
    49   13   50 1  
    50   13   51 1  
    51   13   52 1  
    52   14   53 1  
    53   14   54 1  
    54   14   55 1  
    55   15   56 1  
    56   16   57 1  
    57   17   58 1  
    58   17   59 1  
    59   18   60 1  
    60   18   61 1  
    61   20   62 1  
    62   21   63 1  
    63   21   64 1  
    64   21   65 1  
    65   24   66 1  
    66   25   67 1  
    67   26   68 1  
    68   27   69 1  
    69   28   70 1  
    70   29   71 1  
    71   30   72 1  
    72   30   73 1  
    73   30   74 1  
    74   31   75 1  
    75   31   76 1  
    76   31   77 1  
    77   32   78 1  
    78   32   79 1  
    79   33   80 1  
    80   33   81 1  
    81   34   82 1  
    82   34   83 1  
    83   34   84 1  
    84   35   85 1  
@<TRIPOS>SUBSTRUCTURE
     1 OV1         1

