### 
### Created by X-TOOL on Mon Sep 10 21:13:15 2018
### 

@<TRIPOS>MOLECULE
4hso_ligand
   24    24     1     0     0
SMALL
GAST_HUCK


@<TRIPOS>ATOM
      1 N          -9.5790  -76.7530  -20.0880 N.4       1 TYR         0.2340
      2 CA        -10.0500  -78.0280  -19.3990 C.3       1 TYR         0.0363
      3 C          -9.4040  -79.2800  -19.9860 C.2       1 TYR         0.0864
      4 O          -9.3370  -80.3620  -19.3770 O.co2     1 TYR        -0.5641
      5 CB        -11.5910  -78.2320  -19.5020 C.3       1 TYR         0.0311
      6 CG        -12.4230  -77.1450  -18.8620 C.ar      1 TYR        -0.0467
      7 CD1       -12.5640  -77.0660  -17.4800 C.ar      1 TYR        -0.0684
      8 CD2       -13.0710  -76.1870  -19.6550 C.ar      1 TYR        -0.0684
      9 CE1       -13.3270  -76.0580  -16.8930 C.ar      1 TYR        -0.0398
     10 CE2       -13.8320  -75.1790  -19.0860 C.ar      1 TYR        -0.0398
     11 CZ        -13.9640  -75.1100  -17.7120 C.ar      1 TYR         0.0805
     12 OH        -14.7110  -74.0730  -17.1860 O.3       1 TYR        -0.3376
     13 OXT        -8.9840  -79.2470  -21.1380 O.co2     1 TYR        -0.5641
     14 H1        -10.0316  -75.9568  -19.6670 H         1 TYR         0.2012
     15 H2         -9.8137  -76.7939  -21.0674 H         1 TYR         0.2012
     16 H3         -8.5801  -76.6648  -19.9852 H         1 TYR         0.2012
     17 H4         -9.7744  -77.9527  -18.3368 H         1 TYR         0.1046
     18 H5        -11.8424  -79.1856  -19.0148 H         1 TYR         0.0479
     19 H6        -11.8580  -78.2832  -20.5679 H         1 TYR         0.0479
     20 H7        -12.0731  -77.7993  -16.8504 H         1 TYR         0.0530
     21 H8        -12.9746  -76.2362  -20.7336 H         1 TYR         0.0530
     22 H9        -13.4281  -76.0058  -15.8150 H         1 TYR         0.0525
     23 H10       -14.3226  -74.4464  -19.7166 H         1 TYR         0.0525
     24 H11       -14.7223  -74.1411  -16.2386 H         1 TYR         0.2458
@<TRIPOS>BOND
     1    1    2 1  
     2    2    3 1  
     3    2    5 1  
     4    3    4 ar 
     5    3   13 ar 
     6    5    6 1  
     7    6    7 ar 
     8    6    8 ar 
     9    7    9 ar 
    10    8   10 ar 
    11    9   11 ar 
    12   10   11 ar 
    13   11   12 1  
    14    1   14 1  
    15    1   15 1  
    16    1   16 1  
    17    2   17 1  
    18    5   18 1  
    19    5   19 1  
    20    7   20 1  
    21    8   21 1  
    22    9   22 1  
    23   10   23 1  
    24   12   24 1  
@<TRIPOS>SUBSTRUCTURE
     1 TYR         1

