### 
### Created by X-TOOL on Mon Sep 10 21:13:13 2018
### 

@<TRIPOS>MOLECULE
4ht0_ligand
   32    33     1     0     0
SMALL
GAST_HUCK


@<TRIPOS>ATOM
      1 F13        -2.8580    1.5460   16.5300 F         1 V50        -0.1883
      2 C4         -3.5700    2.4730   15.9340 C.ar      1 V50         0.1808
      3 C5         -4.9690    2.2800   15.9450 C.ar      1 V50         0.1647
      4 S7         -5.8330    0.9750   16.8280 S.o2      1 V50         0.0629
      5 O9         -5.2660    0.7130   18.1080 O.2       1 V50        -0.1526
      6 N23        -5.3710   -0.3260   16.0040 N.am      1 V50        -0.2626
      7 O8         -7.2590    0.7940   16.4860 O.2       1 V50        -0.1526
      8 C6         -5.6760    3.2800   15.2780 C.ar      1 V50         0.1808
      9 F11        -6.9920    3.1620   15.3220 F         1 V50        -0.1883
     10 C1         -5.0670    4.3740   14.6000 C.ar      1 V50         0.1755
     11 F10        -5.8390    5.2770   13.9680 F         1 V50        -0.1929
     12 C3         -2.9050    3.5540   15.2600 C.ar      1 V50         0.1755
     13 F12        -1.5200    3.7210   15.1910 F         1 V50        -0.1929
     14 C2         -3.6540    4.5390   14.6200 C.ar      1 V50         0.1008
     15 S14        -2.7010    5.7940   13.7640 S.3       1 V50        -0.0038
     16 C15        -2.0930    7.5170   13.7800 C.ar      1 V50         0.1600
     17 N20        -2.5130    8.1840   12.6610 N.ar      1 V50        -0.2646
     18 C19        -2.1420    9.4900   12.4780 C.ar      1 V50         0.0269
     19 C21        -2.6930   10.2020   11.2670 C.3       1 V50        -0.0129
     20 C18        -1.3330   10.2020   13.3240 C.ar      1 V50        -0.0161
     21 C17        -0.8960    9.4350   14.3880 C.ar      1 V50         0.0269
     22 N16        -1.2230    8.1160   14.6550 N.ar      1 V50        -0.2646
     23 C22         0.0280   10.1980   15.3150 C.3       1 V50        -0.0129
     24 H1         -5.7023   -1.2309   16.2713 H         1 V50         0.1633
     25 H2         -4.7524   -0.2303   15.2242 H         1 V50         0.1633
     26 H3         -2.3157   11.2351   11.2459 H         1 V50         0.0441
     27 H4         -3.7918   10.2139   11.3170 H         1 V50         0.0441
     28 H5         -2.3731    9.6762   10.3553 H         1 V50         0.0441
     29 H6         -1.0673   11.2426   13.1767 H         1 V50         0.0591
     30 H7          0.3434    9.5420   16.1397 H         1 V50         0.0441
     31 H8         -0.5016   11.0714   15.7232 H         1 V50         0.0441
     32 H9          0.9131   10.5345   14.7552 H         1 V50         0.0441
@<TRIPOS>BOND
     1    1    2 1  
     2    2    3 ar 
     3    2   12 ar 
     4    3    4 1  
     5    3    8 ar 
     6    4    5 2  
     7    4    6 am 
     8    4    7 2  
     9    8    9 1  
    10    8   10 ar 
    11   10   11 1  
    12   10   14 ar 
    13   12   13 1  
    14   12   14 ar 
    15   14   15 1  
    16   15   16 1  
    17   16   17 ar 
    18   16   22 ar 
    19   17   18 ar 
    20   18   19 1  
    21   18   20 ar 
    22   20   21 ar 
    23   21   22 ar 
    24   21   23 1  
    25    6   24 1  
    26    6   25 1  
    27   19   26 1  
    28   19   27 1  
    29   19   28 1  
    30   20   29 1  
    31   23   30 1  
    32   23   31 1  
    33   23   32 1  
@<TRIPOS>SUBSTRUCTURE
     1 V50         1

