### 
### Created by X-TOOL on Mon Sep 10 21:13:12 2018
### 

@<TRIPOS>MOLECULE
4ht2_ligand
   32    33     1     0     0
SMALL
GAST_HUCK


@<TRIPOS>ATOM
      1 F13         0.7820   -6.8430   15.1810 F         1 V50        -0.1883
      2 C4          0.7360   -7.6940   16.2010 C.ar      1 V50         0.1808
      3 C5          1.0490   -9.0670   15.9640 C.ar      1 V50         0.1647
      4 S7          1.7530   -9.4600   14.2740 S.o2      1 V50         0.0629
      5 O9          2.2270  -10.7800   14.3610 O.2       1 V50        -0.1526
      6 N23         0.5640   -9.3250   13.2000 N.am      1 V50        -0.2626
      7 O8          2.7560   -8.4280   14.0570 O.2       1 V50        -0.1526
      8 C6          0.9200   -9.9490   17.0640 C.ar      1 V50         0.1808
      9 F11         1.1780  -11.2030   16.9090 F         1 V50        -0.1883
     10 C1          0.4560   -9.4150   18.2850 C.ar      1 V50         0.1755
     11 F10         0.2590  -10.3650   19.2430 F         1 V50        -0.1929
     12 C3          0.3550   -7.2070   17.4300 C.ar      1 V50         0.1755
     13 F12         0.1720   -5.9250   17.6720 F         1 V50        -0.1929
     14 C2          0.2140   -8.1010   18.4940 C.ar      1 V50         0.1008
     15 S14        -0.3200   -7.4880   20.0740 S.3       1 V50        -0.0038
     16 C15         0.8510   -8.1040   21.2890 C.ar      1 V50         0.1600
     17 N20         1.8440   -8.8430   20.9120 N.ar      1 V50        -0.2646
     18 C19         2.6600   -9.3300   21.9240 C.ar      1 V50         0.0269
     19 C21         3.7610  -10.2780   21.4790 C.3       1 V50        -0.0129
     20 C18         2.4300   -9.0320   23.2680 C.ar      1 V50        -0.0161
     21 C17         1.3730   -8.2120   23.4700 C.ar      1 V50         0.0269
     22 N16         0.5150   -7.6920   22.5540 N.ar      1 V50        -0.2646
     23 C22         0.9990   -7.6370   24.8340 C.3       1 V50        -0.0129
     24 H1          0.7432   -9.4975   12.2314 H         1 V50         0.1633
     25 H2         -0.3546   -9.0685   13.5006 H         1 V50         0.1633
     26 H3          4.3431  -10.6007   22.3548 H         1 V50         0.0441
     27 H4          4.4235   -9.7626   20.7681 H         1 V50         0.0441
     28 H5          3.3135  -11.1570   20.9921 H         1 V50         0.0441
     29 H6          3.0410   -9.4211   24.0744 H         1 V50         0.0591
     30 H7          0.1053   -7.0037   24.7324 H         1 V50         0.0441
     31 H8          1.8342   -7.0335   25.2190 H         1 V50         0.0441
     32 H9          0.7880   -8.4594   25.5333 H         1 V50         0.0441
@<TRIPOS>BOND
     1    1    2 1  
     2    2    3 ar 
     3    2   12 ar 
     4    3    4 1  
     5    3    8 ar 
     6    4    5 2  
     7    4    6 am 
     8    4    7 2  
     9    8    9 1  
    10    8   10 ar 
    11   10   11 1  
    12   10   14 ar 
    13   12   13 1  
    14   12   14 ar 
    15   14   15 1  
    16   15   16 1  
    17   16   17 ar 
    18   16   22 ar 
    19   17   18 ar 
    20   18   19 1  
    21   18   20 ar 
    22   20   21 ar 
    23   21   22 ar 
    24   21   23 1  
    25    6   24 1  
    26    6   25 1  
    27   19   26 1  
    28   19   27 1  
    29   19   28 1  
    30   20   29 1  
    31   23   30 1  
    32   23   31 1  
    33   23   32 1  
@<TRIPOS>SUBSTRUCTURE
     1 V50         1

