### 
### Created by X-TOOL on Mon Sep 10 21:13:13 2018
### 

@<TRIPOS>MOLECULE
4htx_ligand
   67    70     1     0     0
SMALL
GAST_HUCK


@<TRIPOS>ATOM
      1 CAB       -13.0200   27.3340   22.1530 C.3       1 19F         0.0568
      2 OAW       -12.8850   28.2860   23.2160 O.3       1 19F        -0.3265
      3 CBC       -12.8690   27.7290   24.4620 C.ar      1 19F         0.1138
      4 CAN       -12.9750   26.3600   24.6930 C.ar      1 19F        -0.0370
      5 CBB       -12.7370   28.6160   25.5260 C.ar      1 19F         0.1127
      6 OAV       -12.6350   29.9400   25.1970 O.3       1 19F        -0.3291
      7 CAA       -12.5040   30.7650   26.3590 C.3       1 19F         0.0555
      8 CAM       -12.7080   28.1410   26.8380 C.ar      1 19F        -0.0473
      9 CAL       -12.8110   26.7670   27.0750 C.ar      1 19F        -0.0772
     10 CAY       -12.9580   25.8780   26.0010 C.ar      1 19F        -0.0434
     11 CAR       -13.0680   24.5100   26.2370 C.3       1 19F         0.0547
     12 CBA       -14.3840   24.0080   26.0690 C.2       1 19F         0.1550
     13 NAU       -15.2560   23.8620   27.1510 N.am      1 19F        -0.2078
     14 CBE       -16.5300   23.3390   26.9790 C.2       1 19F         0.2416
     15 OAE       -17.2640   23.2430   27.9630 O.2       1 19F        -0.3925
     16 NAT       -14.8270   23.6060   24.8750 N.2       1 19F        -0.1939
     17 NBI       -16.0110   23.1260   24.7620 N.pl3     1 19F        -0.1725
     18 CBF       -16.9060   22.9700   25.7460 C.2       1 19F         0.1583
     19 CAZ       -18.0080   22.4420   25.1880 C.2       1 19F         0.0032
     20 CAC       -19.3310   22.0540   25.8770 C.3       1 19F        -0.0357
     21 NAS       -17.8170   22.2620   23.8800 N.2       1 19F        -0.3254
     22 CBD       -16.5930   22.7140   23.6340 C.2       1 19F         0.1368
     23 CBH       -15.9120   22.6760   22.2470 C.3       1 19F         0.0618
     24 CBG       -14.6030   21.8660   22.2630 C.3       1 19F         0.0702
     25 CAD       -14.8790   20.4440   22.7480 C.3       1 19F        -0.0364
     26 OAF       -14.0770   21.8350   20.9370 O.3       1 19F        -0.3893
     27 CAQ       -15.7350   24.0450   21.5370 C.3       1 19F        -0.0307
     28 CAO       -17.0970   24.6660   21.1290 C.3       1 19F        -0.0407
     29 CAP       -16.8260   25.9720   20.3600 C.3       1 19F        -0.0190
     30 CAX       -18.0110   26.5380   19.8620 C.ar      1 19F        -0.0430
     31 CAJ       -18.2980   26.4170   18.5060 C.ar      1 19F        -0.0603
     32 CAH       -19.4580   26.9590   17.9560 C.ar      1 19F        -0.0686
     33 CAG       -20.3470   27.6340   18.7750 C.ar      1 19F        -0.0687
     34 CAI       -20.0670   27.7550   20.1320 C.ar      1 19F        -0.0686
     35 CAK       -18.9010   27.2150   20.6740 C.ar      1 19F        -0.0603
     36 H1        -13.0243   27.8608   21.1874 H         1 19F         0.0573
     37 H2        -13.9634   26.7813   22.2733 H         1 19F         0.0573
     38 H3        -12.1759   26.6293   22.1824 H         1 19F         0.0573
     39 H4        -13.0702   25.6727   23.8602 H         1 19F         0.0456
     40 H5        -12.4250   31.8188   26.0535 H         1 19F         0.0570
     41 H6        -11.5997   30.4755   26.9142 H         1 19F         0.0570
     42 H7        -13.3867   30.6350   27.0024 H         1 19F         0.0570
     43 H8        -12.6064   28.8321   27.6669 H         1 19F         0.0494
     44 H9        -12.7772   26.3887   28.0903 H         1 19F         0.0442
     45 H10       -12.7485   24.3087   27.2701 H         1 19F         0.0654
     46 H11       -12.4028   23.9820   25.5379 H         1 19F         0.0654
     47 H12       -14.9572   24.1389   28.0643 H         1 19F         0.2401
     48 H13       -20.0285   21.6484   25.1294 H         1 19F         0.0355
     49 H14       -19.7744   22.9441   26.3472 H         1 19F         0.0355
     50 H15       -19.1344   21.2925   26.6461 H         1 19F         0.0355
     51 H16       -16.6050   22.1108   21.6065 H         1 19F         0.0554
     52 H17       -13.8785   22.3466   22.9369 H         1 19F         0.0621
     53 H18       -13.9401   19.8710   22.7570 H         1 19F         0.0256
     54 H19       -15.5981   19.9589   22.0715 H         1 19F         0.0256
     55 H20       -15.2975   20.4781   23.7647 H         1 19F         0.0256
     56 H21       -13.2669   21.3389   20.9304 H         1 19F         0.2100
     57 H22       -15.1251   23.9005   20.6330 H         1 19F         0.0297
     58 H23       -15.2197   24.7360   22.2204 H         1 19F         0.0297
     59 H24       -17.6913   24.8817   22.0291 H         1 19F         0.0289
     60 H25       -17.6475   23.9638   20.4857 H         1 19F         0.0289
     61 H26       -16.1527   25.7562   19.5173 H         1 19F         0.0426
     62 H27       -16.3451   26.6919   21.0386 H         1 19F         0.0426
     63 H28       -17.6034   25.8891   17.8627 H         1 19F         0.0557
     64 H29       -19.6624   26.8531   16.8967 H         1 19F         0.0599
     65 H30       -21.2526   28.0641   18.3626 H         1 19F         0.0559
     66 H31       -20.7648   28.2763   20.7773 H         1 19F         0.0599
     67 H32       -18.6929   27.3263   21.7320 H         1 19F         0.0557
@<TRIPOS>BOND
     1    1    2 1  
     2    2    3 1  
     3    3    4 ar 
     4    3    5 ar 
     5    4   10 ar 
     6    5    6 1  
     7    5    8 ar 
     8    6    7 1  
     9    8    9 ar 
    10    9   10 ar 
    11   10   11 1  
    12   11   12 1  
    13   12   13 1  
    14   12   16 2  
    15   13   14 am 
    16   14   15 2  
    17   14   18 1  
    18   16   17 1  
    19   17   18 1  
    20   17   22 1  
    21   18   19 2  
    22   19   20 1  
    23   19   21 1  
    24   21   22 2  
    25   22   23 1  
    26   23   24 1  
    27   23   27 1  
    28   24   25 1  
    29   24   26 1  
    30   27   28 1  
    31   28   29 1  
    32   29   30 1  
    33   30   31 ar 
    34   30   35 ar 
    35   31   32 ar 
    36   32   33 ar 
    37   33   34 ar 
    38   34   35 ar 
    39    1   36 1  
    40    1   37 1  
    41    1   38 1  
    42    4   39 1  
    43    7   40 1  
    44    7   41 1  
    45    7   42 1  
    46    8   43 1  
    47    9   44 1  
    48   11   45 1  
    49   11   46 1  
    50   13   47 1  
    51   20   48 1  
    52   20   49 1  
    53   20   50 1  
    54   23   51 1  
    55   24   52 1  
    56   25   53 1  
    57   25   54 1  
    58   25   55 1  
    59   26   56 1  
    60   27   57 1  
    61   27   58 1  
    62   28   59 1  
    63   28   60 1  
    64   29   61 1  
    65   29   62 1  
    66   31   63 1  
    67   32   64 1  
    68   33   65 1  
    69   34   66 1  
    70   35   67 1  
@<TRIPOS>SUBSTRUCTURE
     1 19F         1

