### 
### Created by X-TOOL on Mon Sep 10 21:13:13 2018
### 

@<TRIPOS>MOLECULE
4hu1_ligand
   27    27     1     0     0
SMALL
GAST_HUCK


@<TRIPOS>ATOM
      1 O20       -38.8150  -33.0830   20.5040 O.2       1 V13        -0.1705
      2 S15       -39.4970  -34.0380   21.4600 S.o2      1 V13        -0.0011
      3 O19       -40.1780  -33.0160   22.3640 O.2       1 V13        -0.1705
      4 C16       -40.7800  -34.9630   20.5910 C.3       1 V13         0.0927
      5 C17       -40.0650  -36.2120   20.1650 C.3       1 V13         0.0638
      6 O18       -40.0920  -37.0560   21.2690 O.3       1 V13        -0.3934
      7 C1        -38.0820  -34.8380   22.3240 C.ar      1 V13         0.1517
      8 C6        -36.9100  -35.2260   21.6410 C.ar      1 V13         0.1858
      9 F11       -36.7550  -34.9670   20.3370 F         1 V13        -0.1866
     10 C5        -35.8580  -35.8520   22.2900 C.ar      1 V13         0.1875
     11 F12       -34.7220  -36.1540   21.6290 F         1 V13        -0.1866
     12 C4        -35.9780  -36.1400   23.6670 C.ar      1 V13         0.1712
     13 S7        -34.5760  -36.9180   24.4370 S.o2      1 V13         0.0656
     14 O9        -33.5730  -35.9080   24.2420 O.2       1 V13        -0.1518
     15 N10       -34.7300  -37.1320   26.1320 N.am      1 V13        -0.2620
     16 O8        -34.2510  -38.2300   23.7830 O.2       1 V13        -0.1518
     17 C3        -37.1440  -35.7850   24.3290 C.ar      1 V13         0.1875
     18 F13       -37.4030  -36.0640   25.5860 F         1 V13        -0.1866
     19 C2        -38.1810  -35.1740   23.6430 C.ar      1 V13         0.1858
     20 F14       -39.2750  -34.8730   24.3270 F         1 V13        -0.1866
     21 H1        -41.1502  -34.4027   19.7198 H         1 V13         0.0525
     22 H2        -41.6207  -35.1975   21.2605 H         1 V13         0.0525
     23 H3        -39.0268  -35.9824   19.8831 H         1 V13         0.0573
     24 H4        -40.5818  -36.6782   19.3132 H         1 V13         0.0573
     25 H5        -40.9940  -37.2374   21.5056 H         1 V13         0.2095
     26 H6        -33.9908  -37.5612   26.6510 H         1 V13         0.1634
     27 H7        -35.5590  -36.8275   26.6011 H         1 V13         0.1634
@<TRIPOS>BOND
     1    1    2 2  
     2    2    3 2  
     3    2    4 1  
     4    2    7 1  
     5    4    5 1  
     6    5    6 1  
     7    7    8 ar 
     8    7   19 ar 
     9    8    9 1  
    10    8   10 ar 
    11   10   11 1  
    12   10   12 ar 
    13   12   13 1  
    14   12   17 ar 
    15   13   14 2  
    16   13   15 am 
    17   13   16 2  
    18   17   18 1  
    19   17   19 ar 
    20   19   20 1  
    21    4   21 1  
    22    4   22 1  
    23    5   23 1  
    24    5   24 1  
    25    6   25 1  
    26   15   26 1  
    27   15   27 1  
@<TRIPOS>SUBSTRUCTURE
     1 V13         1

