### 
### Created by X-TOOL on Mon Sep 10 21:13:10 2018
### 

@<TRIPOS>MOLECULE
4huo_ligand
   47    49     1     0     0
SMALL
GAST_HUCK


@<TRIPOS>ATOM
      1 C1         10.2230  -25.1850   -6.2510 C.cat     1 RS8         0.2138
      2 N1          9.9030  -25.8170   -5.1240 N.pl3     1 RS8        -0.3290
      3 O1         11.9750  -25.7440   -9.1310 O.2       1 RS8        -0.3303
      4 C2         11.2920  -25.1490   -8.2610 C.2       1 RS8         0.2950
      5 N2         10.9810  -25.8140   -7.1800 N.am      1 RS8        -0.2380
      6 C3         10.9540  -23.7750   -8.4620 C.ar      1 RS8         0.2799
      7 N3          9.9580  -23.9010   -6.2960 N.pl3     1 RS8        -0.1995
      8 O2          8.5520  -19.4870   -8.0740 O.2       1 RS8        -0.3486
      9 C4         10.0990  -23.1920   -7.4240 C.ar      1 RS8         0.2981
     10 N4          9.7310  -21.9070   -7.5150 N.ar      1 RS8        -0.1376
     11 C5          9.9730  -21.2670   -8.6480 C.ar      1 RS8         0.2243
     12 N5         11.2320  -23.1060   -9.5860 N.ar      1 RS8        -0.1647
     13 C6         10.7990  -21.8550   -9.6690 C.ar      1 RS8         0.1335
     14 C7          9.4330  -19.8800   -8.8460 C.2       1 RS8         0.2738
     15 N6          9.7240  -19.2280   -9.9620 N.am      1 RS8        -0.2576
     16 C8          9.3090  -17.8400  -10.1430 C.3       1 RS8         0.1211
     17 C9          8.5890  -17.6540  -11.4750 C.2       1 RS8         0.2005
     18 O3          8.3810  -16.4950  -11.7810 O.2       1 RS8        -0.3947
     19 N7          8.2710  -18.7730  -12.1610 N.am      1 RS8        -0.2679
     20 C10         7.5130  -18.8120  -13.4200 C.3       1 RS8         0.1039
     21 C18         6.0840  -19.1790  -13.0790 C.2       1 RS8         0.0621
     22 O5          5.1650  -19.1800  -13.8930 O.co2     1 RS8        -0.5664
     23 C11         8.3770  -19.6520  -14.4210 C.3       1 RS8         0.0159
     24 C12         8.3770  -21.1350  -13.9190 C.ar      1 RS8        -0.0392
     25 C13         7.3480  -22.0300  -14.2370 C.ar      1 RS8        -0.0602
     26 C17         9.3870  -21.6130  -13.1130 C.ar      1 RS8        -0.0602
     27 C14         7.3080  -23.3730  -13.8440 C.ar      1 RS8        -0.0686
     28 C16         9.3370  -22.9400  -12.6630 C.ar      1 RS8        -0.0686
     29 C15         8.3360  -23.8540  -13.0090 C.ar      1 RS8        -0.0687
     30 O4          5.7740  -19.4920  -11.8240 O.co2     1 RS8        -0.5664
     31 H1         10.0870  -26.8260   -5.0293 H         1 RS8         0.1802
     32 H2          9.4714  -25.2970   -4.3467 H         1 RS8         0.1802
     33 H3         11.2920  -26.7546   -7.0436 H         1 RS8         0.1859
     34 H4          9.6331  -23.4256   -5.4420 H         1 RS8         0.2608
     35 H5         11.0754  -21.2584  -10.5308 H         1 RS8         0.1513
     36 H6         10.2329  -19.6912  -10.6876 H         1 RS8         0.1896
     37 H7         10.1982  -17.1929  -10.1214 H         1 RS8         0.0766
     38 H8          8.6302  -17.5579   -9.3247 H         1 RS8         0.0766
     39 H9          8.5761  -19.6465  -11.7815 H         1 RS8         0.1877
     40 H10         7.4665  -17.7966  -13.8404 H         1 RS8         0.0749
     41 H11         9.4061  -19.2643  -14.4448 H         1 RS8         0.0467
     42 H12         7.9412  -19.5976  -15.4295 H         1 RS8         0.0467
     43 H13         6.5221  -21.6555  -14.8309 H         1 RS8         0.0557
     44 H14        10.2121  -20.9696  -12.8296 H         1 RS8         0.0557
     45 H15         6.5075  -24.0255  -14.1733 H         1 RS8         0.0599
     46 H16        10.1266  -23.2804  -12.0030 H         1 RS8         0.0599
     47 H17         8.3505  -24.8780  -12.6536 H         1 RS8         0.0559
@<TRIPOS>BOND
     1    1    2 ar 
     2    1    5 ar 
     3    7    1 ar 
     4    4    3 2  
     5    4    5 am 
     6    6    4 1  
     7    9    6 ar 
     8    6   12 ar 
     9    9    7 1  
    10   14    8 2  
    11   10    9 ar 
    12   11   10 ar 
    13   11   13 ar 
    14   11   14 1  
    15   12   13 ar 
    16   14   15 am 
    17   15   16 1  
    18   16   17 1  
    19   17   18 2  
    20   17   19 am 
    21   19   20 1  
    22   20   21 1  
    23   20   23 1  
    24   21   22 ar 
    25   21   30 ar 
    26   23   24 1  
    27   24   25 ar 
    28   24   26 ar 
    29   25   27 ar 
    30   26   28 ar 
    31   27   29 ar 
    32   28   29 ar 
    33    2   31 1  
    34    2   32 1  
    35    5   33 1  
    36    7   34 1  
    37   13   35 1  
    38   15   36 1  
    39   16   37 1  
    40   16   38 1  
    41   19   39 1  
    42   20   40 1  
    43   23   41 1  
    44   23   42 1  
    45   25   43 1  
    46   26   44 1  
    47   27   45 1  
    48   28   46 1  
    49   29   47 1  
@<TRIPOS>SUBSTRUCTURE
     1 RS8         1

