### 
### Created by X-TOOL on Mon Sep 10 21:13:11 2018
### 

@<TRIPOS>MOLECULE
4hup_ligand
   67    70     1     0     0
SMALL
GAST_HUCK


@<TRIPOS>ATOM
      1 C1        -23.7290    8.6940   -6.1490 C.cat     1 19M         0.2138
      2 N1        -24.0720    8.0420   -5.0030 N.pl3     1 19M        -0.3290
      3 O1        -21.8960    8.1280   -9.1170 O.2       1 19M        -0.3303
      4 C2        -22.6010    8.6830   -8.2430 C.2       1 19M         0.2950
      5 N2        -22.9600    8.0680   -7.0950 N.am      1 19M        -0.2380
      6 C3        -23.0660   10.0690   -8.4410 C.ar      1 19M         0.2799
      7 N3        -24.1700    9.9520   -6.2910 N.pl3     1 19M        -0.1995
      8 O2        -25.2570   14.4580   -8.0050 O.2       1 19M        -0.3486
      9 C4        -23.8910   10.6680   -7.3770 C.ar      1 19M         0.2981
     10 N4        -24.3280   11.9260   -7.5320 N.ar      1 19M        -0.1376
     11 C5        -24.0050   12.5970   -8.6550 C.ar      1 19M         0.2243
     12 N5        -22.7640   10.7720   -9.5430 N.ar      1 19M        -0.1647
     13 C6        -23.2230   12.0170   -9.6540 C.ar      1 19M         0.1335
     14 C7        -24.5230   13.9830   -8.8520 C.2       1 19M         0.2738
     15 N6        -24.2460   14.6340   -9.9780 N.am      1 19M        -0.2576
     16 C8        -24.6640   16.0160  -10.1030 C.3       1 19M         0.1211
     17 C9        -25.3350   16.2820  -11.4230 C.2       1 19M         0.2011
     18 O3        -25.6160   17.4230  -11.7340 O.2       1 19M        -0.3947
     19 N7        -25.5850   15.2290  -12.1980 N.am      1 19M        -0.2621
     20 C10       -26.0930   15.3790  -13.5530 C.3       1 19M         0.1404
     21 C18       -27.5760   15.1340  -13.6010 C.2       1 19M         0.2055
     22 O4        -28.1820   15.1680  -14.6600 O.2       1 19M        -0.3942
     23 C11       -25.3560   14.4420  -14.5140 C.3       1 19M         0.0214
     24 C12       -25.4520   13.0260  -13.9880 C.ar      1 19M        -0.0386
     25 C13       -26.4880   12.1920  -14.4060 C.ar      1 19M        -0.0601
     26 C17       -24.5100   12.5540  -13.0820 C.ar      1 19M        -0.0601
     27 C14       -26.5860   10.8930  -13.9280 C.ar      1 19M        -0.0686
     28 C16       -24.6090   11.2500  -12.6050 C.ar      1 19M        -0.0686
     29 C15       -25.6430   10.4220  -13.0200 C.ar      1 19M        -0.0687
     30 N8        -28.1640   14.8810  -12.4330 N.am      1 19M        -0.2676
     31 C19       -29.5980   14.7180  -12.2950 C.3       1 19M         0.1039
     32 C27       -30.3230   16.0350  -12.3410 C.2       1 19M         0.0621
     33 O6        -31.5000   16.0890  -12.6680 O.co2     1 19M        -0.5664
     34 C20       -29.8850   14.0270  -10.9670 C.3       1 19M         0.0159
     35 C21       -29.3480   12.6110  -10.9950 C.ar      1 19M        -0.0392
     36 C22       -30.0010   11.6300  -11.7390 C.ar      1 19M        -0.0602
     37 C26       -28.2010   12.2830  -10.2720 C.ar      1 19M        -0.0602
     38 C23       -29.5100   10.3270  -11.7630 C.ar      1 19M        -0.0686
     39 C25       -27.7110   10.9780  -10.3000 C.ar      1 19M        -0.0686
     40 C24       -28.3650    9.9990  -11.0410 C.ar      1 19M        -0.0687
     41 O5        -29.6900   17.1630  -12.0170 O.co2     1 19M        -0.5664
     42 H1        -23.7572    7.0737   -4.8474 H         1 19M         0.1802
     43 H2        -24.6461    8.5174   -4.2921 H         1 19M         0.1802
     44 H3        -22.6561    7.1295   -6.9309 H         1 19M         0.1859
     45 H4        -24.7378   10.3738   -5.5422 H         1 19M         0.2608
     46 H5        -22.9836   12.5928  -10.5407 H         1 19M         0.1513
     47 H6        -23.7590   14.1790  -10.7236 H         1 19M         0.1896
     48 H7        -23.7795   16.6643  -10.0167 H         1 19M         0.0766
     49 H8        -25.3698   16.2488   -9.2921 H         1 19M         0.0766
     50 H9        -25.4192   14.3104  -11.8393 H         1 19M         0.1885
     51 H10       -25.9074   16.4143  -13.8749 H         1 19M         0.0823
     52 H11       -24.2993   14.7397  -14.5822 H         1 19M         0.0474
     53 H12       -25.8178   14.4977  -15.5108 H         1 19M         0.0474
     54 H13       -27.2238   12.5617  -15.1110 H         1 19M         0.0557
     55 H14       -23.7034   13.1970  -12.7489 H         1 19M         0.0557
     56 H15       -27.3924   10.2491  -14.2600 H         1 19M         0.0599
     57 H16       -23.8718   10.8777  -11.9029 H         1 19M         0.0599
     58 H17       -25.7156    9.4104  -12.6373 H         1 19M         0.0559
     59 H18       -27.5921   14.8000  -11.6166 H         1 19M         0.1877
     60 H19       -29.9632   14.0873  -13.1189 H         1 19M         0.0749
     61 H20       -30.9714   14.0015  -10.7966 H         1 19M         0.0467
     62 H21       -29.3991   14.5851  -10.1531 H         1 19M         0.0467
     63 H22       -30.8934   11.8818  -12.3005 H         1 19M         0.0557
     64 H23       -27.6913   13.0417   -9.6892 H         1 19M         0.0557
     65 H24       -30.0196    9.5671  -12.3443 H         1 19M         0.0599
     66 H25       -26.8167   10.7252   -9.7420 H         1 19M         0.0599
     67 H26       -27.9847    8.9840  -11.0564 H         1 19M         0.0559
@<TRIPOS>BOND
     1    1    2 ar 
     2    1    5 ar 
     3    7    1 ar 
     4    4    3 2  
     5    4    5 am 
     6    6    4 1  
     7    9    6 ar 
     8    6   12 ar 
     9    9    7 1  
    10   14    8 2  
    11   10    9 ar 
    12   11   10 ar 
    13   11   13 ar 
    14   11   14 1  
    15   12   13 ar 
    16   14   15 am 
    17   15   16 1  
    18   16   17 1  
    19   17   18 2  
    20   17   19 am 
    21   19   20 1  
    22   20   21 1  
    23   20   23 1  
    24   21   22 2  
    25   21   30 am 
    26   23   24 1  
    27   24   25 ar 
    28   24   26 ar 
    29   25   27 ar 
    30   26   28 ar 
    31   27   29 ar 
    32   28   29 ar 
    33   30   31 1  
    34   31   32 1  
    35   31   34 1  
    36   32   33 ar 
    37   32   41 ar 
    38   34   35 1  
    39   35   36 ar 
    40   35   37 ar 
    41   36   38 ar 
    42   37   39 ar 
    43   38   40 ar 
    44   39   40 ar 
    45    2   42 1  
    46    2   43 1  
    47    5   44 1  
    48    7   45 1  
    49   13   46 1  
    50   15   47 1  
    51   16   48 1  
    52   16   49 1  
    53   19   50 1  
    54   20   51 1  
    55   23   52 1  
    56   23   53 1  
    57   25   54 1  
    58   26   55 1  
    59   27   56 1  
    60   28   57 1  
    61   29   58 1  
    62   30   59 1  
    63   31   60 1  
    64   34   61 1  
    65   34   62 1  
    66   36   63 1  
    67   37   64 1  
    68   38   65 1  
    69   39   66 1  
    70   40   67 1  
@<TRIPOS>SUBSTRUCTURE
     1 19M         1

