### 
### Created by X-TOOL on Mon Sep 10 21:13:10 2018
### 

@<TRIPOS>MOLECULE
4hv3_ligand
   55    58     1     0     0
SMALL
GAST_HUCK


@<TRIPOS>ATOM
      1 C         -23.9110    8.5960   -6.3990 C.cat     1 19L         0.2138
      2 N         -24.3050    7.8790   -5.3000 N.pl3     1 19L        -0.3290
      3 O         -21.8480    8.1820   -9.1300 O.2       1 19L        -0.3303
      4 C1        -22.6770    8.6610   -8.3050 C.2       1 19L         0.2950
      5 N1        -23.0650    7.9420   -7.2440 N.am      1 19L        -0.2380
      6 C2        -23.0880    9.9870   -8.5260 C.ar      1 19L         0.2799
      7 N2        -24.3040    9.8540   -6.4840 N.pl3     1 19L        -0.1995
      8 O1        -25.5700   14.2960   -8.2110 O.2       1 19L        -0.3486
      9 C3        -23.9840   10.5640   -7.5590 C.ar      1 19L         0.2981
     10 N3        -24.5470   11.7530   -7.7420 N.ar      1 19L        -0.1376
     11 C4        -24.2210   12.4840   -8.8460 C.ar      1 19L         0.2243
     12 N4        -22.7240   10.8510   -9.6080 N.ar      1 19L        -0.1647
     13 C5        -23.2180   12.0520   -9.7890 C.ar      1 19L         0.1335
     14 C6        -24.9410   13.7600   -9.0920 C.2       1 19L         0.2741
     15 N5        -25.0360   14.1760  -10.4020 N.am      1 19L        -0.2527
     16 C7        -25.7620   15.3370  -10.7980 C.3       1 19L         0.1548
     17 C9        -27.2770   15.0800  -10.8580 C.2       1 19L         0.2059
     18 O3        -27.9960   16.0920  -11.0440 O.2       1 19L        -0.3943
     19 C8        -25.2270   15.8220  -12.1800 C.3       1 19L         0.0845
     20 O2        -25.6420   14.8600  -13.1670 O.3       1 19L        -0.3903
     21 N6        -27.7870   13.8860  -10.5900 N.am      1 19L        -0.2683
     22 C10       -29.2460   13.7420  -10.5720 C.3       1 19L         0.0986
     23 C20       -29.4780   12.7090   -9.4960 C.2       1 19L         0.0613
     24 O4        -30.7460   12.5620   -9.0910 O.co2     1 19L        -0.5665
     25 C11       -29.9400   13.3720  -11.9070 C.3       1 19L        -0.0013
     26 C12       -29.4980   12.0250  -12.4710 C.2       1 19L        -0.0424
     27 C13       -29.8510   10.7800  -12.0240 C.2       1 19L         0.0166
     28 C15       -28.5060   11.7760  -13.5580 C.ar      1 19L        -0.0214
     29 N7        -29.2230    9.7480  -12.6950 N.pl3     1 19L        -0.2891
     30 C14       -28.4040   10.3080  -13.6280 C.ar      1 19L         0.0603
     31 C16       -27.7190   12.6530  -14.3280 C.ar      1 19L        -0.0747
     32 C19       -27.4980    9.7360  -14.5270 C.ar      1 19L        -0.0443
     33 C17       -26.8850   12.0330  -15.2900 C.ar      1 19L        -0.0792
     34 C18       -26.8160   10.6080  -15.3650 C.ar      1 19L        -0.0768
     35 O5        -28.6010   11.9650   -8.9830 O.co2     1 19L        -0.5665
     36 H1        -24.0188    6.8949   -5.1974 H         1 19L         0.1802
     37 H2        -24.8874    8.3241   -4.5764 H         1 19L         0.1802
     38 H3        -22.7594    7.0032   -7.0849 H         1 19L         0.1859
     39 H4        -24.8533   10.2799   -5.7238 H         1 19L         0.2608
     40 H5        -22.8901   12.6869  -10.6042 H         1 19L         0.1513
     41 H6        -24.5743   13.6386  -11.1077 H         1 19L         0.1900
     42 H7        -25.5814   16.1279  -10.0551 H         1 19L         0.0826
     43 H8        -24.1291   15.8858  -12.1563 H         1 19L         0.0606
     44 H9        -25.6466   16.8102  -12.4193 H         1 19L         0.0606
     45 H10       -25.2794   14.0092  -12.9503 H         1 19L         0.2097
     46 H11       -27.1920   13.1038  -10.4049 H         1 19L         0.1876
     47 H12       -29.6806   14.7004  -10.2516 H         1 19L         0.0741
     48 H13       -29.7087   14.1520  -12.6473 H         1 19L         0.0390
     49 H14       -31.0262   13.3384  -11.7369 H         1 19L         0.0390
     50 H15       -30.5611   10.6179  -11.2144 H         1 19L         0.0795
     51 H16       -29.3508    8.7408  -12.5215 H         1 19L         0.2216
     52 H17       -27.7492   13.7283  -14.1939 H         1 19L         0.0540
     53 H18       -27.3363    8.6649  -14.5675 H         1 19L         0.0541
     54 H19       -26.2985   12.6401  -15.9700 H         1 19L         0.0510
     55 H20       -26.1846   10.1757  -16.1328 H         1 19L         0.0530
@<TRIPOS>BOND
     1    1    2 ar 
     2    1    5 ar 
     3    7    1 ar 
     4    4    3 2  
     5    4    5 am 
     6    6    4 1  
     7    9    6 ar 
     8    6   12 ar 
     9    9    7 1  
    10   14    8 2  
    11   10    9 ar 
    12   11   10 ar 
    13   11   13 ar 
    14   11   14 1  
    15   12   13 ar 
    16   14   15 am 
    17   15   16 1  
    18   16   17 1  
    19   16   19 1  
    20   17   18 2  
    21   17   21 am 
    22   19   20 1  
    23   21   22 1  
    24   22   23 1  
    25   22   25 1  
    26   23   24 ar 
    27   23   35 ar 
    28   25   26 1  
    29   26   27 2  
    30   26   28 1  
    31   27   29 1  
    32   28   30 ar 
    33   28   31 ar 
    34   29   30 1  
    35   30   32 ar 
    36   31   33 ar 
    37   32   34 ar 
    38   33   34 ar 
    39    2   36 1  
    40    2   37 1  
    41    5   38 1  
    42    7   39 1  
    43   13   40 1  
    44   15   41 1  
    45   16   42 1  
    46   19   43 1  
    47   19   44 1  
    48   20   45 1  
    49   21   46 1  
    50   22   47 1  
    51   25   48 1  
    52   25   49 1  
    53   27   50 1  
    54   29   51 1  
    55   31   52 1  
    56   32   53 1  
    57   33   54 1  
    58   34   55 1  
@<TRIPOS>SUBSTRUCTURE
     1 19L         1

