### 
### Created by X-TOOL on Mon Sep 10 21:13:10 2018
### 

@<TRIPOS>MOLECULE
4hv7_ligand
   34    35     1     0     0
SMALL
GAST_HUCK


@<TRIPOS>ATOM
      1 C1         23.8700   -8.8480   -6.3700 C.cat     1 19J         0.2138
      2 N1         24.2250   -8.1530   -5.2580 N.pl3     1 19J        -0.3290
      3 O1         21.8830   -8.3280   -9.2430 O.2       1 19J        -0.3303
      4 C2         22.6450   -8.8680   -8.4120 C.2       1 19J         0.2950
      5 N2         23.0550   -8.2390   -7.2910 N.am      1 19J        -0.2380
      6 C3         23.1370  -10.2310   -8.6420 C.ar      1 19J         0.2799
      7 N3         24.3500  -10.0950   -6.5310 N.pl3     1 19J        -0.1995
      8 O2         25.3720  -14.6180   -8.2330 O.2       1 19J        -0.3486
      9 C4         24.0330  -10.8070   -7.6270 C.ar      1 19J         0.2981
     10 N4         24.4920  -12.0530   -7.8230 N.ar      1 19J        -0.1376
     11 C5         24.1430  -12.7410   -8.9250 C.ar      1 19J         0.2243
     12 N5         22.8010  -10.9420   -9.7360 N.ar      1 19J        -0.1647
     13 C6         23.3000  -12.1810   -9.8850 C.ar      1 19J         0.1335
     14 C7         24.7240  -14.1080   -9.1210 C.2       1 19J         0.2738
     15 N6         24.5970  -14.6950  -10.3000 N.am      1 19J        -0.2576
     16 C8         25.2720  -15.9400  -10.6230 C.3       1 19J         0.1211
     17 C9         26.7740  -15.8320  -10.8240 C.2       1 19J         0.2002
     18 O3         27.4630  -16.8410  -10.8340 O.2       1 19J        -0.3947
     19 N7         27.3060  -14.6220  -10.9840 N.am      1 19J        -0.2724
     20 C10        28.6910  -14.4470  -11.3920 C.3       1 19J         0.0833
     21 C11        28.8950  -14.7050  -12.8740 C.2       1 19J         0.0570
     22 O5         29.3110  -13.8120  -13.6010 O.co2     1 19J        -0.5669
     23 O4         28.6280  -15.8990  -13.4130 O.co2     1 19J        -0.5669
     24 H1         23.8701   -7.1970   -5.1130 H         1 19J         0.1802
     25 H2         24.8490   -8.5821   -4.5599 H         1 19J         0.1802
     26 H3         22.7555   -7.2993   -7.1260 H         1 19J         0.1859
     27 H4         24.9626  -10.5057   -5.8120 H         1 19J         0.2608
     28 H5         23.0427  -12.7557  -10.7674 H         1 19J         0.1513
     29 H6         24.0164  -14.2668  -10.9925 H         1 19J         0.1896
     30 H7         24.8326  -16.3337  -11.5514 H         1 19J         0.0766
     31 H8         25.0894  -16.6485   -9.8016 H         1 19J         0.0766
     32 H9         26.7398  -13.8143  -10.8197 H         1 19J         0.1873
     33 H10        29.3184  -15.1479  -10.8219 H         1 19J         0.0689
     34 H11        28.9975  -13.4147  -11.1678 H         1 19J         0.0689
@<TRIPOS>BOND
     1    1    2 ar 
     2    1    5 ar 
     3    7    1 ar 
     4    4    3 2  
     5    4    5 am 
     6    6    4 1  
     7    9    6 ar 
     8    6   12 ar 
     9    9    7 1  
    10   14    8 2  
    11   10    9 ar 
    12   11   10 ar 
    13   11   13 ar 
    14   11   14 1  
    15   12   13 ar 
    16   14   15 am 
    17   15   16 1  
    18   16   17 1  
    19   17   18 2  
    20   17   19 am 
    21   19   20 1  
    22   20   21 1  
    23   21   22 ar 
    24   21   23 ar 
    25    2   24 1  
    26    2   25 1  
    27    5   26 1  
    28    7   27 1  
    29   13   28 1  
    30   15   29 1  
    31   16   30 1  
    32   16   31 1  
    33   19   32 1  
    34   20   33 1  
    35   20   34 1  
@<TRIPOS>SUBSTRUCTURE
     1 19J         1

