### 
### Created by X-TOOL on Mon Sep 10 21:13:13 2018
### 

@<TRIPOS>MOLECULE
4hva_ligand
   52    54     1     0     0
SMALL
GAST_HUCK


@<TRIPOS>ATOM
      1 C1         -2.2110  -30.3000   21.8190 C.3       1 4HV         0.0571
      2 O2         -3.0180  -31.4920   21.8500 O.3       1 4HV        -0.3249
      3 C3         -3.7810  -31.7900   20.7550 C.ar      1 4HV         0.1192
      4 C4         -3.5440  -31.2260   19.4790 C.ar      1 4HV        -0.0413
      5 C5         -4.3680  -31.5620   18.3940 C.ar      1 4HV        -0.0730
      6 C6         -5.3960  -32.5000   18.5740 C.ar      1 4HV        -0.0095
      7 C7         -5.6240  -33.0420   19.8500 C.ar      1 4HV        -0.0338
      8 C8         -4.8130  -32.7170   20.9250 C.ar      1 4HV         0.1185
      9 O9         -5.0390  -33.2960   22.1370 O.3       1 4HV        -0.3253
     10 C10        -6.0460  -34.3160   22.1540 C.3       1 4HV         0.0568
     11 C11        -6.3670  -32.8730   17.5400 C.2       1 4HV         0.1158
     12 C12        -6.5430  -32.3520   16.2880 C.2       1 4HV        -0.0403
     13 C13        -7.7390  -33.0110   15.7340 C.2       1 4HV         0.0499
     14 C14        -8.1960  -33.8280   16.7220 C.2       1 4HV         0.1051
     15 O15        -7.3640  -33.7350   17.7740 O.3       1 4HV        -0.2553
     16 C16        -8.3710  -32.8260   14.4020 C.2       1 4HV         0.1849
     17 O17        -7.8580  -32.0270   13.6250 O.2       1 4HV        -0.3969
     18 N18        -9.4820  -33.5690   14.0860 N.am      1 4HV        -0.2829
     19 C19       -10.2250  -33.4390   12.8240 C.3       1 4HV         0.0736
     20 C21       -11.6730  -33.1580   13.2180 C.3       1 4HV         0.0079
     21 C22       -11.8450  -31.7950   13.8380 C.ar      1 4HV        -0.0299
     22 C23       -12.1940  -31.7210   15.1820 C.ar      1 4HV        -0.0516
     23 C24       -12.3910  -30.5000   15.7860 C.ar      1 4HV        -0.0573
     24 C25       -12.2700  -29.3270   15.0680 C.ar      1 4HV        -0.0339
     25 C26       -11.9430  -29.3740   13.7150 C.ar      1 4HV         0.0890
     26 C27       -11.7280  -30.6280   13.1090 C.ar      1 4HV        -0.0257
     27 C28       -11.8160  -28.1360   12.9830 C.1       1 4HV         0.0987
     28 N29       -11.7360  -27.1440   12.4110 N.1       1 4HV        -0.3283
     29 C30       -10.2400  -34.6930   11.9010 C.3       1 4HV         0.0688
     30 O31        -8.9250  -35.2310   11.9210 O.3       1 4HV        -0.3926
     31 H1         -1.6621  -30.2041   22.7674 H         1 4HV         0.0574
     32 H2         -2.8589  -29.4220   21.6800 H         1 4HV         0.0574
     33 H3         -1.4954  -30.3632   20.9860 H         1 4HV         0.0574
     34 H4         -2.7231  -30.5320   19.3392 H         1 4HV         0.0512
     35 H5         -4.2118  -31.1010   17.4254 H         1 4HV         0.0489
     36 H6         -6.4506  -33.7279   19.9961 H         1 4HV         0.0490
     37 H7         -6.1475  -34.7140   23.1744 H         1 4HV         0.0573
     38 H8         -5.7569  -35.1282   21.4708 H         1 4HV         0.0573
     39 H9         -7.0064  -33.8886   21.8299 H         1 4HV         0.0573
     40 H10        -5.9240  -31.6013   15.7989 H         1 4HV         0.0377
     41 H11        -9.0866  -34.4525   16.6692 H         1 4HV         0.1093
     42 H12        -9.8051  -34.2388   14.7546 H         1 4HV         0.1844
     43 H13        -9.8085  -32.5940   12.2561 H         1 4HV         0.0600
     44 H14       -11.9960  -33.9194   13.9432 H         1 4HV         0.0450
     45 H15       -12.3023  -33.2187   12.3178 H         1 4HV         0.0450
     46 H16       -12.3118  -32.6316   15.7582 H         1 4HV         0.0629
     47 H17       -12.6445  -30.4588   16.8392 H         1 4HV         0.0623
     48 H18       -12.4290  -28.3722   15.5559 H         1 4HV         0.0661
     49 H19       -11.4676  -30.6771   12.0579 H         1 4HV         0.0655
     50 H20       -10.5164  -34.4058   10.8758 H         1 4HV         0.0582
     51 H21       -10.9586  -35.4344   12.2805 H         1 4HV         0.0582
     52 H22        -8.6949  -35.4691   12.8115 H         1 4HV         0.2095
@<TRIPOS>BOND
     1    1    2 1  
     2    2    3 1  
     3    3    4 ar 
     4    3    8 ar 
     5    4    5 ar 
     6    5    6 ar 
     7    6    7 ar 
     8    6   11 1  
     9    7    8 ar 
    10    8    9 1  
    11    9   10 1  
    12   11   12 2  
    13   11   15 1  
    14   12   13 1  
    15   13   14 2  
    16   13   16 1  
    17   14   15 1  
    18   16   17 2  
    19   16   18 am 
    20   18   19 1  
    21   19   20 1  
    22   19   29 1  
    23   20   21 1  
    24   21   22 ar 
    25   21   26 ar 
    26   22   23 ar 
    27   23   24 ar 
    28   24   25 ar 
    29   25   26 ar 
    30   25   27 1  
    31   27   28 3  
    32   29   30 1  
    33    1   31 1  
    34    1   32 1  
    35    1   33 1  
    36    4   34 1  
    37    5   35 1  
    38    7   36 1  
    39   10   37 1  
    40   10   38 1  
    41   10   39 1  
    42   12   40 1  
    43   14   41 1  
    44   18   42 1  
    45   19   43 1  
    46   20   44 1  
    47   20   45 1  
    48   22   46 1  
    49   23   47 1  
    50   24   48 1  
    51   26   49 1  
    52   29   50 1  
    53   29   51 1  
    54   30   52 1  
@<TRIPOS>SUBSTRUCTURE
     1 4HV         1

