### 
### Created by X-TOOL on Mon Sep 10 21:13:16 2018
### 

@<TRIPOS>MOLECULE
4hvb_ligand
   59    63     1     0     0
SMALL
GAST_HUCK


@<TRIPOS>ATOM
      1 C1         43.7750   13.2670   30.4740 C.ar      1 19P         0.0502
      2 C2         44.1880   12.2790   29.5670 C.ar      1 19P        -0.0294
      3 C3         45.4720   12.2730   29.1080 C.ar      1 19P        -0.0335
      4 C4         46.3540   13.2720   29.5640 C.ar      1 19P         0.0441
      5 C5         45.8720   14.2400   30.4800 C.ar      1 19P         0.0846
      6 N6         44.6070   14.2000   30.8960 N.ar      1 19P        -0.2929
      7 N7         47.6230   13.3110   29.1440 N.ar      1 19P        -0.3217
      8 C8         48.4620   14.2310   29.5560 C.ar      1 19P         0.0194
      9 C9         48.0690   15.2230   30.4570 C.ar      1 19P         0.1265
     10 C10        46.7630   15.2380   30.9320 C.ar      1 19P         0.1407
     11 C11        42.3750   13.2670   30.9610 C.ar      1 19P         0.0201
     12 C12        41.3370   12.8390   30.1340 C.ar      1 19P         0.0148
     13 N13        40.0930   12.8370   30.5660 N.ar      1 19P        -0.2945
     14 C14        39.7780   13.2360   31.7830 C.ar      1 19P         0.0274
     15 C15        40.7500   13.6770   32.6640 C.ar      1 19P        -0.0301
     16 C16        42.0740   13.6920   32.2590 C.ar      1 19P        -0.0376
     17 C17        38.3370   13.2130   32.2220 C.3       1 19P        -0.0144
     18 N18        48.7240   16.2970   31.0510 N.am      1 19P        -0.2024
     19 C19        47.8480   16.9340   31.8520 C.2       1 19P         0.3205
     20 N20        46.6550   16.3110   31.7970 N.am      1 19P        -0.1882
     21 C21        45.4480   16.7060   32.5270 C.3       1 19P         0.0754
     22 C22        44.3420   17.3360   31.6780 C.3       1 19P        -0.0028
     23 C23        43.4400   18.1920   32.5750 C.3       1 19P         0.0366
     24 N24        42.9500   17.3600   33.6820 N.am      1 19P        -0.2709
     25 C25        43.9270   16.6350   34.5080 C.3       1 19P         0.0366
     26 C26        44.8230   15.7980   33.5900 C.3       1 19P        -0.0028
     27 O27        48.0960   17.9190   32.5220 O.2       1 19P        -0.3934
     28 C28        50.1250   16.6700   30.8430 C.3       1 19P         0.0451
     29 C29        41.6310   17.2650   33.9380 C.2       1 19P         0.2071
     30 O30        41.2320   16.5100   34.8000 O.2       1 19P        -0.3940
     31 C31        40.6490   18.0950   33.1520 C.3       1 19P         0.1410
     32 O32        39.3170   17.6930   33.4780 O.3       1 19P        -0.3717
     33 C33        40.8360   19.5730   33.5020 C.3       1 19P        -0.0214
     34 H1         43.4878   11.5223   29.2320 H         1 19P         0.0681
     35 H2         45.8065   11.5162   28.4077 H         1 19P         0.0737
     36 H3         49.4821   14.2212   29.1894 H         1 19P         0.0746
     37 H4         41.5561   12.5049   29.1263 H         1 19P         0.0831
     38 H5         40.4778   14.0070   33.6600 H         1 19P         0.0655
     39 H6         42.8571   14.0246   32.9307 H         1 19P         0.0742
     40 H7         38.2633   13.5769   33.2574 H         1 19P         0.0426
     41 H8         37.9533   12.1836   32.1670 H         1 19P         0.0426
     42 H9         37.7423   13.8618   31.5622 H         1 19P         0.0426
     43 H10        45.8247   17.5475   33.1270 H         1 19P         0.0640
     44 H11        43.7441   16.5425   31.2059 H         1 19P         0.0313
     45 H12        44.7921   17.9687   30.8989 H         1 19P         0.0313
     46 H13        42.5880   18.5695   31.9906 H         1 19P         0.0523
     47 H14        44.0144   19.0402   32.9757 H         1 19P         0.0523
     48 H15        43.3989   15.9748   35.2117 H         1 19P         0.0523
     49 H16        44.5417   17.3534   35.0701 H         1 19P         0.0523
     50 H17        45.6193   15.3262   34.1844 H         1 19P         0.0313
     51 H18        44.2208   15.0189   33.0997 H         1 19P         0.0313
     52 H19        50.5905   15.9671   30.1364 H         1 19P         0.0551
     53 H20        50.6606   16.6334   31.8031 H         1 19P         0.0551
     54 H21        50.1761   17.6895   30.4332 H         1 19P         0.0551
     55 H22        40.8233   17.9481   32.0759 H         1 19P         0.0834
     56 H23        39.2022   16.7754   33.2605 H         1 19P         0.2133
     57 H24        40.1193   20.1791   32.9284 H         1 19P         0.0279
     58 H25        41.8613   19.8824   33.2510 H         1 19P         0.0279
     59 H26        40.6617   19.7199   34.5781 H         1 19P         0.0279
@<TRIPOS>BOND
     1    1    2 ar 
     2    1    6 ar 
     3    1   11 1  
     4    2    3 ar 
     5    3    4 ar 
     6    4    5 ar 
     7    4    7 ar 
     8    5    6 ar 
     9    5   10 ar 
    10    7    8 ar 
    11    8    9 ar 
    12    9   10 ar 
    13    9   18 1  
    14   10   20 1  
    15   11   12 ar 
    16   11   16 ar 
    17   12   13 ar 
    18   13   14 ar 
    19   14   15 ar 
    20   14   17 1  
    21   15   16 ar 
    22   18   19 am 
    23   18   28 1  
    24   19   20 am 
    25   19   27 2  
    26   20   21 1  
    27   21   22 1  
    28   21   26 1  
    29   22   23 1  
    30   23   24 1  
    31   24   25 1  
    32   24   29 am 
    33   25   26 1  
    34   29   30 2  
    35   29   31 1  
    36   31   32 1  
    37   31   33 1  
    38    2   34 1  
    39    3   35 1  
    40    8   36 1  
    41   12   37 1  
    42   15   38 1  
    43   16   39 1  
    44   17   40 1  
    45   17   41 1  
    46   17   42 1  
    47   21   43 1  
    48   22   44 1  
    49   22   45 1  
    50   23   46 1  
    51   23   47 1  
    52   25   48 1  
    53   25   49 1  
    54   26   50 1  
    55   26   51 1  
    56   28   52 1  
    57   28   53 1  
    58   28   54 1  
    59   31   55 1  
    60   32   56 1  
    61   33   57 1  
    62   33   58 1  
    63   33   59 1  
@<TRIPOS>SUBSTRUCTURE
     1 19P         1

