### 
### Created by X-TOOL on Mon Sep 10 21:13:15 2018
### 

@<TRIPOS>MOLECULE
4hvd_ligand
   43    45     1     0     0
SMALL
GAST_HUCK


@<TRIPOS>ATOM
      1 N1         -2.5420  -14.1910   -2.9650 N.ar      1 933        -0.2650
      2 C2         -2.5830  -15.5120   -3.0440 C.ar      1 933         0.0284
      3 C3         -1.4890  -16.2390   -3.5060 C.ar      1 933         0.0411
      4 N4         -0.3810  -15.6060   -3.8580 N.ar      1 933        -0.2958
      5 C5         -1.4340  -13.5390   -3.3250 C.ar      1 933         0.1639
      6 C6         -0.3210  -14.2810   -3.7840 C.ar      1 933         0.0785
      7 C7          0.7280  -13.3020   -4.0960 C.2       1 933         0.0730
      8 C8          0.1950  -12.0720   -3.8260 C.2       1 933         0.0606
      9 N9         -1.0800  -12.2110   -3.3600 N.pl3     1 933        -0.2495
     10 C10        -1.5740  -17.7450   -3.5760 C.3       1 933         0.0090
     11 C11        -0.9150  -18.4610   -4.7600 C.3       1 933        -0.0361
     12 C12        -0.2820  -18.5370   -3.3650 C.3       1 933        -0.0361
     13 C13         2.0510  -13.6480   -4.6290 C.2       1 933         0.1823
     14 N14         2.2790  -14.9630   -4.8710 N.am      1 933        -0.2882
     15 O15         2.8890  -12.7890   -4.8560 O.2       1 933        -0.4021
     16 C16         3.5110  -15.5210   -5.4450 C.3       1 933         0.0428
     17 C17         3.2050  -15.9840   -6.8900 C.3       1 933        -0.0151
     18 C18         2.7250  -14.7860   -7.7210 C.3       1 933        -0.0580
     19 C19         4.4610  -16.5270   -7.5750 C.3       1 933        -0.0580
     20 C20         2.1180  -17.0660   -6.9360 C.3       1 933        -0.0580
     21 C21         4.0060  -16.6720   -4.5550 C.3       1 933        -0.0417
     22 H1         -3.4831  -16.0362   -2.7440 H         1 933         0.0790
     23 H2          0.7112  -11.1229   -3.9625 H         1 933         0.1140
     24 H3         -1.6904  -11.4318   -3.0750 H         1 933         0.2374
     25 H4         -2.5311  -18.0992   -3.1656 H         1 933         0.0489
     26 H5         -0.4276  -17.8768   -5.5544 H         1 933         0.0294
     27 H6         -1.3897  -19.3513   -5.1982 H         1 933         0.0294
     28 H7         -0.3020  -19.4823   -2.8028 H         1 933         0.0294
     29 H8          0.6600  -18.0077   -3.1590 H         1 933         0.0294
     30 H9          1.5485  -15.6055   -4.6397 H         1 933         0.1836
     31 H10         4.2869  -14.7420   -5.4777 H         1 933         0.0557
     32 H11         2.5077  -15.1155   -8.7477 H         1 933         0.0236
     33 H12         3.5101  -14.0158   -7.7416 H         1 933         0.0236
     34 H13         1.8132  -14.3682   -7.2693 H         1 933         0.0236
     35 H14         4.8418  -17.3912   -7.0109 H         1 933         0.0236
     36 H15         5.2304  -15.7415   -7.6060 H         1 933         0.0236
     37 H16         4.2137  -16.8387   -8.6005 H         1 933         0.0236
     38 H17         1.2067  -16.6913   -6.4469 H         1 933         0.0236
     39 H18         2.4729  -17.9649   -6.4106 H         1 933         0.0236
     40 H19         1.8950  -17.3175   -7.9834 H         1 933         0.0236
     41 H20         4.9287  -17.0936   -4.9803 H         1 933         0.0252
     42 H21         3.2345  -17.4545   -4.5047 H         1 933         0.0252
     43 H22         4.2092  -16.2917   -3.5430 H         1 933         0.0252
@<TRIPOS>BOND
     1    1    2 ar 
     2    1    5 ar 
     3    2    3 ar 
     4    3    4 ar 
     5    3   10 1  
     6    4    6 ar 
     7    5    6 ar 
     8    5    9 1  
     9    6    7 1  
    10    7    8 2  
    11    7   13 1  
    12    8    9 1  
    13   10   11 1  
    14   10   12 1  
    15   11   12 1  
    16   13   14 am 
    17   13   15 2  
    18   14   16 1  
    19   16   17 1  
    20   16   21 1  
    21   17   18 1  
    22   17   19 1  
    23   17   20 1  
    24    2   22 1  
    25    8   23 1  
    26    9   24 1  
    27   10   25 1  
    28   11   26 1  
    29   11   27 1  
    30   12   28 1  
    31   12   29 1  
    32   14   30 1  
    33   16   31 1  
    34   18   32 1  
    35   18   33 1  
    36   18   34 1  
    37   19   35 1  
    38   19   36 1  
    39   19   37 1  
    40   20   38 1  
    41   20   39 1  
    42   20   40 1  
    43   21   41 1  
    44   21   42 1  
    45   21   43 1  
@<TRIPOS>SUBSTRUCTURE
     1 933         1

