### 
### Created by X-TOOL on Mon Sep 10 21:13:15 2018
### 

@<TRIPOS>MOLECULE
4hvg_ligand
   41    43     1     0     0
SMALL
GAST_HUCK


@<TRIPOS>ATOM
      1 C1          0.6510  -13.5190   -4.1670 C.2       1 19Q         0.0730
      2 C2          0.1020  -12.2920   -3.9310 C.2       1 19Q         0.0606
      3 N3         -1.2010  -12.4440   -3.5100 N.pl3     1 19Q        -0.2495
      4 C4         -0.3870  -14.5150   -3.8740 C.ar      1 19Q         0.0785
      5 C5         -1.5380  -13.7980   -3.4570 C.ar      1 19Q         0.1639
      6 N6         -2.6510  -14.4810   -3.1060 N.ar      1 19Q        -0.2650
      7 C7         -2.6680  -15.8080   -3.1590 C.ar      1 19Q         0.0284
      8 C8         -1.5380  -16.4990   -3.5800 C.ar      1 19Q         0.0411
      9 N9         -0.4200  -15.8340   -3.9220 N.ar      1 19Q        -0.2958
     10 C10         2.0020  -13.8590   -4.6440 C.2       1 19Q         0.1824
     11 N11         2.1850  -15.1770   -4.8970 N.am      1 19Q        -0.2860
     12 O12         2.8870  -13.0180   -4.8080 O.2       1 19Q        -0.4021
     13 C13         3.4240  -15.7350   -5.4330 C.3       1 19Q         0.0661
     14 C14         3.8760  -16.9330   -4.5730 C.3       1 19Q        -0.0395
     15 C15         3.1120  -16.1720   -6.9000 C.3       1 19Q         0.0828
     16 C16         1.8600  -17.0690   -7.0110 C.3       1 19Q        -0.0342
     17 C17         2.7840  -14.9570   -7.7540 C.3       1 19Q        -0.0342
     18 O18         4.2720  -16.8680   -7.4240 O.3       1 19Q        -0.3869
     19 C19        -1.5720  -18.0120   -3.6410 C.3       1 19Q         0.0090
     20 C20        -1.0430  -18.7110   -4.8960 C.3       1 19Q        -0.0361
     21 C21        -0.2070  -18.7400   -3.6080 C.3       1 19Q        -0.0361
     22 H1          0.6149  -11.3395   -4.0562 H         1 19Q         0.1140
     23 H2         -1.8358  -11.6695   -3.2688 H         1 19Q         0.2374
     24 H3         -3.5618  -16.3512   -2.8743 H         1 19Q         0.0790
     25 H4          1.4293  -15.8034   -4.7061 H         1 19Q         0.1837
     26 H5          4.2153  -14.9710   -5.4315 H         1 19Q         0.0580
     27 H6          4.8090  -17.3473   -4.9829 H         1 19Q         0.0253
     28 H7          3.0950  -17.7076   -4.5838 H         1 19Q         0.0253
     29 H8          4.0465  -16.5986   -3.5390 H         1 19Q         0.0253
     30 H9          1.6958  -17.3407   -8.0642 H         1 19Q         0.0258
     31 H10         0.9832  -16.5234   -6.6322 H         1 19Q         0.0258
     32 H11         2.0091  -17.9820   -6.4158 H         1 19Q         0.0258
     33 H12         3.6306  -14.2550   -7.7333 H         1 19Q         0.0258
     34 H13         1.8864  -14.4608   -7.3564 H         1 19Q         0.0258
     35 H14         2.5979  -15.2764   -8.7900 H         1 19Q         0.0258
     36 H15         5.0358  -16.3078   -7.3509 H         1 19Q         0.2102
     37 H16        -2.4465  -18.4062   -3.1026 H         1 19Q         0.0489
     38 H17        -0.7054  -18.1132   -5.7554 H         1 19Q         0.0294
     39 H18        -1.5268  -19.6308   -5.2565 H         1 19Q         0.0294
     40 H19        -0.0959  -19.6778   -3.0440 H         1 19Q         0.0294
     41 H20         0.7255  -18.1603   -3.5429 H         1 19Q         0.0294
@<TRIPOS>BOND
     1    1    2 2  
     2    1    4 1  
     3    1   10 1  
     4    2    3 1  
     5    3    5 1  
     6    4    5 ar 
     7    4    9 ar 
     8    5    6 ar 
     9    6    7 ar 
    10    7    8 ar 
    11    8    9 ar 
    12    8   19 1  
    13   10   11 am 
    14   10   12 2  
    15   11   13 1  
    16   13   14 1  
    17   13   15 1  
    18   15   16 1  
    19   15   17 1  
    20   15   18 1  
    21   19   20 1  
    22   19   21 1  
    23   20   21 1  
    24    2   22 1  
    25    3   23 1  
    26    7   24 1  
    27   11   25 1  
    28   13   26 1  
    29   14   27 1  
    30   14   28 1  
    31   14   29 1  
    32   16   30 1  
    33   16   31 1  
    34   16   32 1  
    35   17   33 1  
    36   17   34 1  
    37   17   35 1  
    38   18   36 1  
    39   19   37 1  
    40   20   38 1  
    41   20   39 1  
    42   21   40 1  
    43   21   41 1  
@<TRIPOS>SUBSTRUCTURE
     1 19Q         1

