### 
### Created by X-TOOL on Mon Sep 10 21:13:15 2018
### 

@<TRIPOS>MOLECULE
4hvh_ligand
   41    43     1     0     0
SMALL
GAST_HUCK


@<TRIPOS>ATOM
      1 C1         -2.6400  -15.4800   -3.0690 C.ar      1 19R         0.0284
      2 C2         -1.6140  -16.2060   -3.6600 C.ar      1 19R         0.0411
      3 N3         -0.5440  -15.5790   -4.1140 N.ar      1 19R        -0.2958
      4 N4         -2.5860  -14.1620   -2.9550 N.ar      1 19R        -0.2650
      5 C5         -1.5190  -13.5090   -3.4130 C.ar      1 19R         0.1639
      6 C6         -0.4650  -14.2450   -4.0070 C.ar      1 19R         0.0785
      7 C7          0.5350  -13.2440   -4.3840 C.2       1 19R         0.0730
      8 C8          0.0410  -12.0250   -4.0130 C.2       1 19R         0.0606
      9 N9         -1.1700  -12.1780   -3.4340 N.pl3     1 19R        -0.2495
     10 C10         1.8090  -13.4930   -5.0660 C.2       1 19R         0.1824
     11 O11         2.6070  -12.5790   -5.2010 O.2       1 19R        -0.4021
     12 C12        -1.7520  -17.7060   -3.7520 C.3       1 19R         0.0090
     13 N13         2.0350  -14.7320   -5.5540 N.am      1 19R        -0.2860
     14 C14        -1.0660  -18.4290   -4.9170 C.3       1 19R        -0.0361
     15 C15        -0.5140  -18.5650   -3.4910 C.3       1 19R        -0.0361
     16 C16         3.2530  -15.1170   -6.2850 C.3       1 19R         0.0661
     17 C17         3.6120  -16.5860   -5.9860 C.3       1 19R         0.0828
     18 C18         4.6920  -17.0810   -6.9600 C.3       1 19R        -0.0342
     19 C19         4.1230  -16.7180   -4.5460 C.3       1 19R        -0.0342
     20 O20         2.4530  -17.4070   -6.1070 O.3       1 19R        -0.3869
     21 C21         2.9780  -14.9270   -7.7850 C.3       1 19R        -0.0395
     22 H1         -3.5086  -16.0068   -2.6908 H         1 19R         0.0790
     23 H2          0.5478  -11.0727   -4.1618 H         1 19R         0.1140
     24 H3         -1.7477  -11.4105   -3.0625 H         1 19R         0.2374
     25 H4         -2.7434  -18.0241   -3.3971 H         1 19R         0.0489
     26 H5          1.3329  -15.4293   -5.4100 H         1 19R         0.1837
     27 H6         -0.5085  -17.8534   -5.6706 H         1 19R         0.0294
     28 H7         -1.5590  -19.2852   -5.4005 H         1 19R         0.0294
     29 H8         -0.6105  -19.5194   -2.9528 H         1 19R         0.0294
     30 H9          0.4400  -18.0876   -3.2228 H         1 19R         0.0294
     31 H10         4.0891  -14.4716   -5.9778 H         1 19R         0.0580
     32 H11         4.9369  -18.1293   -6.7340 H         1 19R         0.0258
     33 H12         5.5949  -16.4620   -6.8518 H         1 19R         0.0258
     34 H13         4.3176  -17.0062   -7.9916 H         1 19R         0.0258
     35 H14         3.3497  -16.3636   -3.8486 H         1 19R         0.0258
     36 H15         5.0330  -16.1125   -4.4229 H         1 19R         0.0258
     37 H16         4.3527  -17.7726   -4.3336 H         1 19R         0.0258
     38 H17         1.7851  -17.1009   -5.5047 H         1 19R         0.2102
     39 H18         3.8727  -15.2074   -8.3602 H         1 19R         0.0253
     40 H19         2.7309  -13.8734   -7.9819 H         1 19R         0.0253
     41 H20         2.1336  -15.5642   -8.0866 H         1 19R         0.0253
@<TRIPOS>BOND
     1    1    2 ar 
     2    1    4 ar 
     3    2    3 ar 
     4    2   12 1  
     5    3    6 ar 
     6    4    5 ar 
     7    5    6 ar 
     8    5    9 1  
     9    6    7 1  
    10    7    8 2  
    11    7   10 1  
    12    8    9 1  
    13   10   11 2  
    14   10   13 am 
    15   12   14 1  
    16   12   15 1  
    17   13   16 1  
    18   14   15 1  
    19   16   17 1  
    20   16   21 1  
    21   17   18 1  
    22   17   19 1  
    23   17   20 1  
    24    1   22 1  
    25    8   23 1  
    26    9   24 1  
    27   12   25 1  
    28   13   26 1  
    29   14   27 1  
    30   14   28 1  
    31   15   29 1  
    32   15   30 1  
    33   16   31 1  
    34   18   32 1  
    35   18   33 1  
    36   18   34 1  
    37   19   35 1  
    38   19   36 1  
    39   19   37 1  
    40   20   38 1  
    41   21   39 1  
    42   21   40 1  
    43   21   41 1  
@<TRIPOS>SUBSTRUCTURE
     1 19R         1

