### 
### Created by X-TOOL on Mon Sep 10 21:13:15 2018
### 

@<TRIPOS>MOLECULE
4hvi_ligand
   48    51     1     0     0
SMALL
GAST_HUCK


@<TRIPOS>ATOM
      1 N1          5.3540  -16.0890   -5.5840 N.am      1 19S        -0.2713
      2 C2          6.1610  -15.2020   -6.4320 C.3       1 19S         0.0339
      3 C3          7.1600  -14.5010   -5.5090 C.3       1 19S        -0.0325
      4 C4          8.0360  -15.5530   -4.8150 C.3       1 19S        -0.0494
      5 C5          7.2170  -16.6180   -4.0670 C.3       1 19S        -0.0325
      6 C6          6.0760  -17.1920   -4.9350 C.3       1 19S         0.0339
      7 N7         -2.5350  -14.2800   -3.0510 N.ar      1 19S        -0.2650
      8 C8         -1.2720  -16.1750   -3.7370 C.ar      1 19S         0.0411
      9 C9         -2.4230  -15.6060   -3.1920 C.ar      1 19S         0.0284
     10 N10        -0.2630  -15.3960   -4.1300 N.ar      1 19S        -0.2958
     11 C11        -0.3650  -14.0710   -4.0040 C.ar      1 19S         0.0785
     12 C12        -1.5310  -13.4810   -3.4500 C.ar      1 19S         0.1639
     13 N13        -1.3390  -12.1110   -3.4490 N.pl3     1 19S        -0.2495
     14 C14        -0.1230  -11.8150   -3.9890 C.2       1 19S         0.0606
     15 C15         0.5350  -12.9630   -4.3340 C.2       1 19S         0.0731
     16 C16         1.8490  -13.1240   -4.9750 C.2       1 19S         0.1843
     17 N17         2.1250  -14.3530   -5.4270 N.am      1 19S        -0.2706
     18 O18         2.6350  -12.2040   -5.1260 O.2       1 19S        -0.4019
     19 C19         3.3400  -14.7410   -6.1370 C.3       1 19S         0.1270
     20 C20        -1.1870  -17.6730   -3.8990 C.3       1 19S         0.0090
     21 C21        -0.4850  -18.1880   -5.1630 C.3       1 19S        -0.0361
     22 C22         0.1630  -18.3930   -3.7840 C.3       1 19S        -0.0361
     23 C23         4.0160  -15.8860   -5.4180 C.2       1 19S         0.2037
     24 C24         2.8670  -15.2650   -7.5040 C.3       1 19S        -0.0245
     25 O25         3.3230  -16.6190   -4.7190 O.2       1 19S        -0.3944
     26 H1          5.5164  -14.4602   -6.9262 H         1 19S         0.0522
     27 H2          6.6956  -15.7886   -7.1936 H         1 19S         0.0522
     28 H3          6.6144  -13.9197   -4.7511 H         1 19S         0.0285
     29 H4          7.7959  -13.8263   -6.1009 H         1 19S         0.0285
     30 H5          8.6905  -15.0430   -4.0928 H         1 19S         0.0267
     31 H6          8.6510  -16.0548   -5.5766 H         1 19S         0.0267
     32 H7          6.7814  -16.1617   -3.1659 H         1 19S         0.0285
     33 H8          7.8873  -17.4397   -3.7745 H         1 19S         0.0285
     34 H9          6.4981  -17.8566   -5.7032 H         1 19S         0.0522
     35 H10         5.3819  -17.7610   -4.2991 H         1 19S         0.0522
     36 H11        -3.2387  -16.2473   -2.8781 H         1 19S         0.0790
     37 H12        -2.0136  -11.4186   -3.0936 H         1 19S         0.2374
     38 H13         0.2686  -10.8081   -4.1261 H         1 19S         0.1140
     39 H14         1.4418  -15.0650   -5.2648 H         1 19S         0.1865
     40 H15         4.0268  -13.8885   -6.2444 H         1 19S         0.0795
     41 H16        -2.1010  -18.1514   -3.5173 H         1 19S         0.0489
     42 H17        -0.0455  -17.4760   -5.8771 H         1 19S         0.0294
     43 H18        -0.8982  -19.0482   -5.7101 H         1 19S         0.0294
     44 H19         0.2137  -19.4000   -3.3443 H         1 19S         0.0294
     45 H20         1.0664  -17.8278   -3.5112 H         1 19S         0.0294
     46 H21         3.7382  -15.5781   -8.0981 H         1 19S         0.0277
     47 H22         2.3281  -14.4672   -8.0360 H         1 19S         0.0277
     48 H23         2.1966  -16.1243   -7.3553 H         1 19S         0.0277
@<TRIPOS>BOND
     1    1    2 1  
     2    1    6 1  
     3   23    1 am 
     4    2    3 1  
     5    3    4 1  
     6    5    4 1  
     7    6    5 1  
     8    7    9 ar 
     9   12    7 ar 
    10    8    9 ar 
    11   10    8 ar 
    12    8   20 1  
    13   11   10 ar 
    14   11   12 ar 
    15   15   11 1  
    16   13   12 1  
    17   14   13 1  
    18   15   14 2  
    19   16   15 1  
    20   17   16 am 
    21   16   18 2  
    22   19   17 1  
    23   19   23 1  
    24   19   24 1  
    25   20   21 1  
    26   20   22 1  
    27   21   22 1  
    28   23   25 2  
    29    2   26 1  
    30    2   27 1  
    31    3   28 1  
    32    3   29 1  
    33    4   30 1  
    34    4   31 1  
    35    5   32 1  
    36    5   33 1  
    37    6   34 1  
    38    6   35 1  
    39    9   36 1  
    40   13   37 1  
    41   14   38 1  
    42   17   39 1  
    43   19   40 1  
    44   20   41 1  
    45   21   42 1  
    46   21   43 1  
    47   22   44 1  
    48   22   45 1  
    49   24   46 1  
    50   24   47 1  
    51   24   48 1  
@<TRIPOS>SUBSTRUCTURE
     1 19S         1

