### 
### Created by X-TOOL on Mon Sep 10 21:13:14 2018
### 

@<TRIPOS>MOLECULE
4hvs_ligand
   45    48     1     0     0
SMALL
GAST_HUCK


@<TRIPOS>ATOM
      1 C1         12.7410    3.1490   11.2340 C.ar      1 647        -0.0511
      2 C3         12.8000    2.7810   12.5790 C.ar      1 647        -0.0063
      3 N5         13.0910    1.5240   13.0330 N.ar      1 647        -0.2873
      4 C6         13.0220    2.1740   10.2490 C.ar      1 647        -0.0552
      5 N8         13.6750   -0.6850   12.2510 N.pl3     1 647        -0.2739
      6 C10        13.8670   -1.3110   11.0340 C.2       1 647         0.0245
      7 C12        13.6900   -0.3840   10.0070 C.2       1 647        -0.0276
      8 C13        13.3450    0.8640   10.6710 C.ar      1 647         0.0072
      9 C14        13.3460    0.6300   12.0500 C.ar      1 647         0.1322
     10 C15        13.8010   -0.6090    8.5210 C.3       1 647        -0.0015
     11 C18        14.3340   -1.9850    8.2080 C.ar      1 647        -0.0239
     12 C19        15.5900   -2.1770    7.6450 C.ar      1 647        -0.0020
     13 N21        16.1040   -3.4060    7.3560 N.ar      1 647        -0.2931
     14 C22        15.3370   -4.5150    7.6310 C.ar      1 647         0.1067
     15 C23        14.0890   -4.4070    8.2120 C.ar      1 647        -0.0219
     16 C25        13.5940   -3.1460    8.4870 C.ar      1 647        -0.0508
     17 N27        15.9210   -5.7340    7.3510 N.pl3     1 647        -0.2954
     18 C29        17.1980   -5.7130    6.6830 C.3       1 647         0.0744
     19 C32        18.4720   -5.9240    7.4130 C.ar      1 647         0.0104
     20 C33        18.5510   -6.1680    8.7910 C.ar      1 647        -0.0263
     21 C35        19.8140   -6.3330    9.3750 C.ar      1 647        -0.0371
     22 C37        20.9600   -6.2550    8.5740 C.ar      1 647         0.0385
     23 C38        20.8790   -5.9930    7.1950 C.ar      1 647        -0.0371
     24 C40        19.6190   -5.8380    6.6290 C.ar      1 647        -0.0263
     25 C42        22.3020   -6.4640    9.1730 C.3       1 647         0.3684
     26 F43        22.8090   -5.4800    9.9490 F         1 647        -0.2274
     27 F44        22.2640   -7.5730    9.9280 F         1 647        -0.2274
     28 F45        23.2520   -6.6870    8.2580 F         1 647        -0.2274
     29 H1         12.4846    4.1632   10.9497 H         1 647         0.0594
     30 H2         12.6005    3.5481   13.3185 H         1 647         0.0747
     31 H3         12.9905    2.4252    9.1950 H         1 647         0.0672
     32 H4         13.7656   -1.1388   13.1712 H         1 647         0.2258
     33 H5         14.1170   -2.3622   10.8983 H         1 647         0.0833
     34 H6         14.4817    0.1431    8.0955 H         1 647         0.0501
     35 H7         12.8047   -0.5001    8.0677 H         1 647         0.0501
     36 H8         16.1927   -1.3035    7.4241 H         1 647         0.0718
     37 H9         13.5097   -5.2924    8.4475 H         1 647         0.0595
     38 H10        12.6090   -3.0505    8.9295 H         1 647         0.0645
     39 H11        15.4639   -6.6204    7.6084 H         1 647         0.1818
     40 H12        17.2781   -4.7263    6.2034 H         1 647         0.0753
     41 H13        17.1536   -6.4941    5.9098 H         1 647         0.0753
     42 H14        17.6519   -6.2279    9.3936 H         1 647         0.0653
     43 H15        19.9033   -6.5197   10.4391 H         1 647         0.0836
     44 H16        21.7748   -5.9140    6.5897 H         1 647         0.0836
     45 H17        19.5286   -5.6481    5.5656 H         1 647         0.0653
@<TRIPOS>BOND
     1    2    1 ar 
     2    1    4 ar 
     3    3    2 ar 
     4    9    3 ar 
     5    4    8 ar 
     6    5    6 1  
     7    5    9 1  
     8    6    7 2  
     9    7    8 1  
    10    7   10 1  
    11    8    9 ar 
    12   10   11 1  
    13   11   12 ar 
    14   11   16 ar 
    15   12   13 ar 
    16   13   14 ar 
    17   14   15 ar 
    18   14   17 1  
    19   15   16 ar 
    20   17   18 1  
    21   18   19 1  
    22   19   20 ar 
    23   19   24 ar 
    24   20   21 ar 
    25   21   22 ar 
    26   22   23 ar 
    27   22   25 1  
    28   23   24 ar 
    29   25   26 1  
    30   25   27 1  
    31   25   28 1  
    32    1   29 1  
    33    2   30 1  
    34    4   31 1  
    35    5   32 1  
    36    6   33 1  
    37   10   34 1  
    38   10   35 1  
    39   12   36 1  
    40   15   37 1  
    41   16   38 1  
    42   17   39 1  
    43   18   40 1  
    44   18   41 1  
    45   20   42 1  
    46   21   43 1  
    47   23   44 1  
    48   24   45 1  
@<TRIPOS>SUBSTRUCTURE
     1 647         1

