### 
### Created by X-TOOL on Mon Sep 10 21:13:15 2018
### 

@<TRIPOS>MOLECULE
4hw2_ligand
   44    46     1     0     0
SMALL
GAST_HUCK


@<TRIPOS>ATOM
      1 OAC         3.7600  -49.5330    7.5860 O.co2     1 19H        -0.5634
      2 CAQ         2.9430  -48.9400    6.7730 C.2       1 19H         0.0764
      3 OAD         3.5330  -47.9320    6.2220 O.co2     1 19H        -0.5634
      4 CAW         1.7290  -49.2630    6.5600 C.2       1 19H         0.0880
      5 NAO         1.2340  -50.5470    6.7450 N.pl3     1 19H        -0.2794
      6 CAY        -0.1110  -50.6150    6.4660 C.ar      1 19H         0.0634
      7 CAK        -0.9270  -51.6300    6.5230 C.ar      1 19H        -0.0287
      8 CAT        -2.2910  -51.4890    6.2030 C.ar      1 19H         0.0268
      9 CL2        -3.3730  -52.8300    6.2960 Cl        1 19H        -0.0785
     10 CAG        -2.7220  -50.2300    5.8260 C.ar      1 19H        -0.0636
     11 CAH        -1.7440  -49.1970    5.7920 C.ar      1 19H        -0.0715
     12 CAZ        -0.4770  -49.3850    6.1030 C.ar      1 19H        -0.0143
     13 CAX         0.6300  -48.6620    6.1910 C.2       1 19H        -0.0278
     14 CAN         0.6710  -47.1110    5.7890 C.3       1 19H        -0.0291
     15 CAL         0.5970  -46.0940    6.9260 C.3       1 19H        -0.0194
     16 CAM        -0.8190  -45.8160    7.4150 C.3       1 19H         0.0715
     17 OAP        -1.7580  -45.6270    6.3100 O.3       1 19H        -0.3210
     18 CAU        -2.9990  -45.3600    6.6860 C.ar      1 19H         0.0784
     19 CAI        -3.5450  -45.8500    7.8670 C.ar      1 19H        -0.0385
     20 CAR        -4.9010  -45.5940    8.2350 C.ar      1 19H        -0.0474
     21 CAA        -5.3490  -46.0550    9.3820 C.3       1 19H        -0.0345
     22 CAV        -5.6660  -44.8270    7.3110 C.ar      1 19H         0.0295
     23 CL1        -7.2880  -44.4330    7.6530 Cl        1 19H        -0.0937
     24 CAS        -5.1630  -44.3310    6.0660 C.ar      1 19H        -0.0474
     25 CAB        -5.8960  -43.6320    5.2320 C.3       1 19H        -0.0345
     26 CAJ        -3.8090  -44.6640    5.7800 C.ar      1 19H        -0.0385
     27 H1          1.8030  -51.3485    7.0528 H         1 19H         0.2209
     28 H2         -0.5485  -52.6007    6.8223 H         1 19H         0.0550
     29 H3         -3.7574  -50.0390    5.5682 H         1 19H         0.0520
     30 H4         -2.0575  -48.2029    5.4946 H         1 19H         0.0554
     31 H5         -0.1797  -46.9202    5.1183 H         1 19H         0.0369
     32 H6          1.6119  -46.9341    5.2473 H         1 19H         0.0369
     33 H7          1.0335  -45.1479    6.5733 H         1 19H         0.0307
     34 H8          1.1865  -46.4769    7.7720 H         1 19H         0.0307
     35 H9         -0.8086  -44.9046    8.0308 H         1 19H         0.0615
     36 H10        -1.1565  -46.6668    8.0250 H         1 19H         0.0615
     37 H11        -2.9235  -46.4436    8.5276 H         1 19H         0.0424
     38 H12        -4.5483  -46.6111    9.8915 H         1 19H         0.0390
     39 H13        -6.2021  -46.7251    9.1998 H         1 19H         0.0390
     40 H14        -5.6713  -45.2146   10.0143 H         1 19H         0.0390
     41 H15        -5.2946  -43.3649    4.3505 H         1 19H         0.0390
     42 H16        -6.2443  -42.7150    5.7298 H         1 19H         0.0390
     43 H17        -6.7636  -44.2301    4.9164 H         1 19H         0.0390
     44 H18        -3.3892  -44.3679    4.8255 H         1 19H         0.0424
@<TRIPOS>BOND
     1    1    2 ar 
     2    2    3 ar 
     3    2    4 1  
     4    4    5 1  
     5    4   13 2  
     6    5    6 1  
     7    6    7 ar 
     8    6   12 ar 
     9    7    8 ar 
    10    8    9 1  
    11    8   10 ar 
    12   10   11 ar 
    13   11   12 ar 
    14   12   13 1  
    15   13   14 1  
    16   14   15 1  
    17   15   16 1  
    18   16   17 1  
    19   17   18 1  
    20   18   19 ar 
    21   18   26 ar 
    22   19   20 ar 
    23   20   21 1  
    24   20   22 ar 
    25   22   23 1  
    26   22   24 ar 
    27   24   25 1  
    28   24   26 ar 
    29    5   27 1  
    30    7   28 1  
    31   10   29 1  
    32   11   30 1  
    33   14   31 1  
    34   14   32 1  
    35   15   33 1  
    36   15   34 1  
    37   16   35 1  
    38   16   36 1  
    39   19   37 1  
    40   21   38 1  
    41   21   39 1  
    42   21   40 1  
    43   25   41 1  
    44   25   42 1  
    45   25   43 1  
    46   26   44 1  
@<TRIPOS>SUBSTRUCTURE
     1 19H         1

