### 
### Created by X-TOOL on Mon Sep 10 21:13:15 2018
### 

@<TRIPOS>MOLECULE
4hw3_ligand
   43    45     1     0     0
SMALL
GAST_HUCK


@<TRIPOS>ATOM
      1 OAC        34.2990   -7.9750   18.8340 O.co2     1 19G        -0.5656
      2 CAQ        35.1510   -8.3700   19.6660 C.2       1 19G         0.0619
      3 OAD        36.1100   -9.0960   19.2990 O.co2     1 19G        -0.5656
      4 CAW        34.9500   -7.9270   21.0700 C.2       1 19G         0.0589
      5 S          33.4380   -7.5230   21.7050 S.3       1 19G        -0.0415
      6 CAX        33.8970   -7.0980   23.2830 C.ar      1 19G         0.0374
      7 CAH        33.2060   -6.6510   24.4070 C.ar      1 19G        -0.0483
      8 CAF        33.8750   -6.3910   25.5950 C.ar      1 19G        -0.0687
      9 CAG        35.2640   -6.5680   25.6470 C.ar      1 19G        -0.0696
     10 CAI        35.9680   -6.9970   24.5290 C.ar      1 19G        -0.0626
     11 CAY        35.2930   -7.2720   23.3400 C.ar      1 19G        -0.0111
     12 CAV        35.8870   -7.7310   22.1150 C.2       1 19G        -0.0261
     13 CAN        37.3510   -7.9920   21.9630 C.3       1 19G        -0.0218
     14 CAL        37.7700   -9.4210   22.1080 C.3       1 19G        -0.0170
     15 CAM        37.8260  -10.0100   23.4830 C.3       1 19G         0.0718
     16 OAO        38.7230   -9.3180   24.2740 O.3       1 19G        -0.3210
     17 CAT        38.9470   -9.6210   25.5900 C.ar      1 19G         0.0784
     18 CAJ        38.0490  -10.3920   26.2950 C.ar      1 19G        -0.0385
     19 CAR        38.3180  -10.6800   27.6320 C.ar      1 19G        -0.0474
     20 CAA        37.3480  -11.5030   28.4200 C.3       1 19G        -0.0345
     21 CAU        39.4700  -10.2020   28.2590 C.ar      1 19G         0.0295
     22 CL         39.8080  -10.5630   29.9270 Cl        1 19G        -0.0937
     23 CAS        40.3630   -9.4280   27.5350 C.ar      1 19G        -0.0474
     24 CAB        41.5970   -8.9100   28.2090 C.3       1 19G        -0.0345
     25 CAK        40.1020   -9.1430   26.1950 C.ar      1 19G        -0.0385
     26 H1         32.1333   -6.5045   24.3532 H         1 19G         0.0573
     27 H2         33.3305   -6.0557   26.4703 H         1 19G         0.0583
     28 H3         35.7954   -6.3678   26.5704 H         1 19G         0.0560
     29 H4         37.0440   -7.1182   24.5808 H         1 19G         0.0592
     30 H5         37.8809   -7.4045   22.7272 H         1 19G         0.0403
     31 H6         37.6539   -7.6502   20.9623 H         1 19G         0.0403
     32 H7         38.7771   -9.5103   21.6747 H         1 19G         0.0311
     33 H8         37.0638  -10.0281   21.5226 H         1 19G         0.0311
     34 H9         38.1423  -11.0612   23.4131 H         1 19G         0.0615
     35 H10        36.8266   -9.9574   23.9395 H         1 19G         0.0615
     36 H11        37.1504  -10.7675   25.8191 H         1 19G         0.0424
     37 H12        36.5052  -11.7933   27.7755 H         1 19G         0.0390
     38 H13        36.9735  -10.9142   29.2703 H         1 19G         0.0390
     39 H14        37.8522  -12.4065   28.7934 H         1 19G         0.0390
     40 H15        42.1865   -8.3202   27.4916 H         1 19G         0.0390
     41 H16        42.1998   -9.7560   28.5709 H         1 19G         0.0390
     42 H17        41.3107   -8.2735   29.0592 H         1 19G         0.0390
     43 H18        40.8034   -8.5460   25.6235 H         1 19G         0.0424
@<TRIPOS>BOND
     1    1    2 ar 
     2    2    3 ar 
     3    2    4 1  
     4    4    5 1  
     5    4   12 2  
     6    5    6 1  
     7    6    7 ar 
     8    6   11 ar 
     9    7    8 ar 
    10    8    9 ar 
    11    9   10 ar 
    12   10   11 ar 
    13   11   12 1  
    14   12   13 1  
    15   13   14 1  
    16   14   15 1  
    17   15   16 1  
    18   16   17 1  
    19   17   18 ar 
    20   17   25 ar 
    21   18   19 ar 
    22   19   20 1  
    23   19   21 ar 
    24   21   22 1  
    25   21   23 ar 
    26   23   24 1  
    27   23   25 ar 
    28    7   26 1  
    29    8   27 1  
    30    9   28 1  
    31   10   29 1  
    32   13   30 1  
    33   13   31 1  
    34   14   32 1  
    35   14   33 1  
    36   15   34 1  
    37   15   35 1  
    38   18   36 1  
    39   20   37 1  
    40   20   38 1  
    41   20   39 1  
    42   24   40 1  
    43   24   41 1  
    44   24   42 1  
    45   25   43 1  
@<TRIPOS>SUBSTRUCTURE
     1 19G         1

