### 
### Created by X-TOOL on Mon Sep 10 21:13:15 2018
### 

@<TRIPOS>MOLECULE
4hw7_ligand
   49    52     1     0     0
SMALL
GAST_HUCK


@<TRIPOS>ATOM
      1 C1         29.5060   13.0690   72.6810 C.ar      1 64M         0.1003
      2 C2         29.4690   11.8330   72.0910 C.ar      1 64M         0.0241
      3 N4         30.5240   11.0360   71.8890 N.ar      1 64M        -0.2940
      4 C5         30.7000   13.5570   73.1120 C.ar      1 64M        -0.0285
      5 N7         32.8680   10.9670   72.2580 N.pl3     1 64M        -0.2784
      6 C9         33.7990   11.7780   72.8070 C.2       1 64M         0.0221
      7 C11        33.1870   12.9200   73.2440 C.2       1 64M        -0.0315
      8 C12        31.8230   12.7690   72.9310 C.ar      1 64M        -0.0022
      9 C13        31.6590   11.5620   72.3250 C.ar      1 64M         0.1231
     10 O14        28.5190   13.9330   72.9150 O.3       1 64M        -0.3232
     11 C15        33.8000   14.0990   73.9020 C.3       1 64M        -0.0023
     12 C18        35.2530   13.8090   73.8770 C.ar      1 64M        -0.0241
     13 C19        35.9660   13.5700   75.0140 C.ar      1 64M        -0.0020
     14 N21        37.2700   13.3000   75.0430 N.ar      1 64M        -0.2932
     15 C22        37.9230   13.2440   73.8860 C.ar      1 64M         0.1067
     16 C23        37.2860   13.4690   72.6970 C.ar      1 64M        -0.0219
     17 C25        35.9440   13.7550   72.6960 C.ar      1 64M        -0.0509
     18 C27        29.0280   15.0730   73.5530 C.3       1 64M         0.0581
     19 N31        39.2590   12.9670   73.8570 N.pl3     1 64M        -0.2954
     20 C33        40.1020   13.6040   74.8190 C.3       1 64M         0.0744
     21 C36        40.5640   12.5430   75.7450 C.ar      1 64M         0.0104
     22 C37        39.8320   11.3810   75.8750 C.ar      1 64M        -0.0263
     23 C39        40.2650   10.3870   76.7400 C.ar      1 64M        -0.0371
     24 C41        41.4230   10.5510   77.4790 C.ar      1 64M         0.0385
     25 C42        42.1480   11.7180   77.3400 C.ar      1 64M        -0.0371
     26 C44        41.7230   12.7140   76.4780 C.ar      1 64M        -0.0263
     27 C46        41.8960    9.5080   78.4050 C.3       1 64M         0.3684
     28 F47        42.9360    9.8730   79.1380 F         1 64M        -0.2274
     29 F48        41.0120    9.1180   79.3010 F         1 64M        -0.2274
     30 F49        42.2580    8.3820   77.8120 F         1 64M        -0.2274
     31 H1         28.5027   11.4702   71.7598 H         1 64M         0.0694
     32 H2         30.7697   14.5314   73.5819 H         1 64M         0.0570
     33 H3         33.0527   10.0388   71.8515 H         1 64M         0.2233
     34 H4         34.8625   11.5581   72.8881 H         1 64M         0.0828
     35 H5         33.4395   14.2009   74.9362 H         1 64M         0.0499
     36 H6         33.5755   15.0194   73.3430 H         1 64M         0.0499
     37 H7         35.4356   13.6018   75.9589 H         1 64M         0.0718
     38 H8         37.8361   13.4219   71.7641 H         1 64M         0.0595
     39 H9         35.4302   13.9384   71.7593 H         1 64M         0.0645
     40 H10        28.2094   15.7826   73.7438 H         1 64M         0.0574
     41 H11        29.7822   15.5480   72.9084 H         1 64M         0.0574
     42 H12        29.4916   14.7829   74.5074 H         1 64M         0.0574
     43 H13        39.6492   12.3163   73.1604 H         1 64M         0.1818
     44 H14        39.5372   14.3698   75.3708 H         1 64M         0.0753
     45 H15        40.9625   14.0723   74.3188 H         1 64M         0.0753
     46 H16        38.9213   11.2452   75.3029 H         1 64M         0.0653
     47 H17        39.6906    9.4729   76.8379 H         1 64M         0.0836
     48 H18        43.0588   11.8554   77.9115 H         1 64M         0.0836
     49 H19        42.2986   13.6271   76.3780 H         1 64M         0.0653
@<TRIPOS>BOND
     1    2    1 ar 
     2    1    4 ar 
     3    1   10 1  
     4    3    2 ar 
     5    9    3 ar 
     6    4    8 ar 
     7    5    6 1  
     8    5    9 1  
     9    6    7 2  
    10    7    8 1  
    11    7   11 1  
    12    8    9 ar 
    13   10   18 1  
    14   11   12 1  
    15   12   13 ar 
    16   12   17 ar 
    17   13   14 ar 
    18   14   15 ar 
    19   15   16 ar 
    20   15   19 1  
    21   16   17 ar 
    22   19   20 1  
    23   20   21 1  
    24   21   22 ar 
    25   21   26 ar 
    26   22   23 ar 
    27   23   24 ar 
    28   24   25 ar 
    29   24   27 1  
    30   25   26 ar 
    31   27   28 1  
    32   27   29 1  
    33   27   30 1  
    34    2   31 1  
    35    4   32 1  
    36    5   33 1  
    37    6   34 1  
    38   11   35 1  
    39   11   36 1  
    40   13   37 1  
    41   16   38 1  
    42   17   39 1  
    43   18   40 1  
    44   18   41 1  
    45   18   42 1  
    46   19   43 1  
    47   20   44 1  
    48   20   45 1  
    49   22   46 1  
    50   23   47 1  
    51   25   48 1  
    52   26   49 1  
@<TRIPOS>SUBSTRUCTURE
     1 64M         1

