### 
### Created by X-TOOL on Mon Sep 10 21:13:14 2018
### 

@<TRIPOS>MOLECULE
4hwb_ligand
   30    30     1     0     0
SMALL
GAST_HUCK


@<TRIPOS>ATOM
      1 C3'         1.4000  -51.9290   52.4180 C.3       1 NHE        -0.0480
      2 C2'         0.5180  -52.2750   53.6230 C.3       1 NHE        -0.0097
      3 C1'         0.2620  -53.7740   53.7260 C.3       1 NHE        -0.0226
      4 C6'         0.5670  -54.4700   52.4000 C.3       1 NHE        -0.0097
      5 N          -0.9010  -54.0940   54.5820 N.4       1 NHE         0.2302
      6 C1         -1.0230  -55.4980   54.9990 C.3       1 NHE        -0.0166
      7 C2         -2.2020  -55.5850   55.9760 C.3       1 NHE         0.0706
      8 S          -3.6090  -55.9670   55.1600 S.o2      1 NHE        -0.1866
      9 O1         -4.6520  -56.1080   56.1560 O.co2     1 NHE        -0.4844
     10 O2         -3.8600  -54.8780   54.2370 O.co2     1 NHE        -0.4844
     11 O3         -3.3200  -57.2290   54.4790 O.co2     1 NHE        -0.4844
     12 C5'         2.0420  -54.3260   52.0180 C.3       1 NHE        -0.0480
     13 C4'         2.5530  -52.9090   52.2530 C.3       1 NHE        -0.0527
     14 H1          1.8108  -50.9182   52.5575 H         1 NHE         0.0267
     15 H2          0.7823  -51.9515   51.5081 H         1 NHE         0.0267
     16 H3         -0.4461  -51.7556   53.5193 H         1 NHE         0.0320
     17 H4          1.0204  -51.9359   54.5409 H         1 NHE         0.0320
     18 H5          1.0898  -54.1348   54.3541 H         1 NHE         0.0850
     19 H6         -0.0525  -54.0210   51.6097 H         1 NHE         0.0320
     20 H7          0.3245  -55.5389   52.4931 H         1 NHE         0.0320
     21 H8         -1.7359  -53.8492   54.0731 H         1 NHE         0.2017
     22 H9         -0.8369  -53.5290   55.4143 H         1 NHE         0.2017
     23 H10        -0.0977  -55.8244   55.4963 H         1 NHE         0.0829
     24 H11        -1.2129  -56.1354   54.1228 H         1 NHE         0.0829
     25 H12        -2.3274  -54.6152   56.4798 H         1 NHE         0.0521
     26 H13        -1.9950  -56.3634   56.7252 H         1 NHE         0.0521
     27 H14         2.1597  -54.5746   50.9530 H         1 NHE         0.0267
     28 H15         2.6367  -55.0240   52.6255 H         1 NHE         0.0267
     29 H16         3.1684  -52.8960   53.1647 H         1 NHE         0.0265
     30 H17         3.1655  -52.6011   51.3927 H         1 NHE         0.0265
@<TRIPOS>BOND
     1    1    2 1  
     2    1   13 1  
     3    2    3 1  
     4    3    4 1  
     5    3    5 1  
     6    4   12 1  
     7    5    6 1  
     8    6    7 1  
     9    7    8 1  
    10    8    9 ar 
    11    8   10 ar 
    12    8   11 ar 
    13   12   13 1  
    14    1   14 1  
    15    1   15 1  
    16    2   16 1  
    17    2   17 1  
    18    3   18 1  
    19    4   19 1  
    20    4   20 1  
    21    5   21 1  
    22    5   22 1  
    23    6   23 1  
    24    6   24 1  
    25    7   25 1  
    26    7   26 1  
    27   12   27 1  
    28   12   28 1  
    29   13   29 1  
    30   13   30 1  
@<TRIPOS>SUBSTRUCTURE
     1 NHE         1

