### 
### Created by X-TOOL on Mon Sep 10 21:13:13 2018
### 

@<TRIPOS>MOLECULE
4hwo_ligand
   48    50     1     0     0
SMALL
GAST_HUCK


@<TRIPOS>ATOM
      1 O8        -12.8890  -34.8710   16.2700 O.2       1 409        -0.3891
      2 C4        -11.9490  -35.3160   16.9140 C.2       1 409         0.2470
      3 C3        -10.8040  -34.4430   17.3560 C.3       1 409         0.0925
      4 C2        -11.1480  -33.7050   18.6620 C.3       1 409         0.1120
      5 C1        -11.1890  -34.6610   19.8770 C.3       1 409        -0.0314
      6 O6        -10.1840  -32.6410   18.8610 O.3       1 409        -0.3840
      7 N7        -10.5160  -33.4520   16.3360 N.4       1 409         0.2398
      8 N5        -11.8930  -36.6050   17.2370 N.am      1 409        -0.1491
      9 S9        -13.0920  -37.6080   16.8460 S.o2      1 409         0.0912
     10 O10       -12.6570  -38.9060   17.2290 O.2       1 409        -0.1455
     11 O11       -13.3750  -37.5230   15.4670 O.2       1 409        -0.1455
     12 C12       -14.4590  -37.3200   17.7020 C.ar      1 409         0.1149
     13 C13       -14.3930  -36.7830   18.9930 C.ar      1 409        -0.0336
     14 C14       -15.5590  -36.5300   19.7510 C.ar      1 409        -0.0581
     15 C15       -16.7980  -36.8190   19.1680 C.ar      1 409        -0.0521
     16 C16       -16.8760  -37.4150   17.9070 C.ar      1 409        -0.0118
     17 C17       -15.7070  -37.6140   17.1660 C.ar      1 409        -0.0251
     18 C18       -18.2200  -37.6530   17.2850 C.ar      1 409        -0.0121
     19 C19       -18.2770  -37.9150   15.9120 C.ar      1 409        -0.0473
     20 C20       -19.4780  -38.0730   15.2460 C.ar      1 409        -0.0399
     21 C21       -20.6790  -37.9830   15.9740 C.ar      1 409         0.0540
     22 C22       -20.6470  -37.6980   17.4100 C.ar      1 409         0.0440
     23 C23       -19.4040  -37.5410   18.0300 C.ar      1 409        -0.0333
     24 C27       -22.0090  -38.1130   15.3300 C.ar      1 409         0.1406
     25 N28       -22.1160  -38.3420   14.0140 N.pl3     1 409        -0.3066
     26 N26       -23.1020  -37.9990   16.1000 N.ar      1 409        -0.2549
     27 C25       -23.0120  -37.7670   17.4290 C.ar      1 409         0.0599
     28 N24       -21.8300  -37.6140   18.0770 N.ar      1 409        -0.2945
     29 H1         -9.9163  -35.0723   17.5173 H         1 409         0.1125
     30 H2        -12.1462  -33.2558   18.5532 H         1 409         0.0674
     31 H3        -11.4377  -34.0906   20.7841 H         1 409         0.0258
     32 H4        -10.2056  -35.1377   20.0018 H         1 409         0.0258
     33 H5        -11.9529  -35.4345   19.7093 H         1 409         0.0258
     34 H6        -10.4217  -32.1400   19.6325 H         1 409         0.2102
     35 H7        -10.2879  -33.9166   15.4711 H         1 409         0.2016
     36 H8         -9.7356  -32.8853   16.6289 H         1 409         0.2016
     37 H9        -11.3245  -32.8657   16.1993 H         1 409         0.2016
     38 H10       -11.0964  -36.9563   17.7289 H         1 409         0.2147
     39 H11       -13.4238  -36.5556   19.4220 H         1 409         0.0646
     40 H12       -15.4953  -36.1242   20.7541 H         1 409         0.0621
     41 H13       -17.7096  -36.5771   19.7023 H         1 409         0.0634
     42 H14       -15.7754  -38.0040   16.1569 H         1 409         0.0653
     43 H15       -17.3515  -37.9966   15.3535 H         1 409         0.0631
     44 H16       -19.4944  -38.2634   14.1790 H         1 409         0.0685
     45 H17       -19.3544  -37.3315   19.0924 H         1 409         0.0628
     46 H18       -23.0462  -38.4300   13.5805 H         1 409         0.1876
     47 H19       -21.2680  -38.4300   13.4360 H         1 409         0.1876
     48 H20       -23.9283  -37.7000   18.0043 H         1 409         0.1060
@<TRIPOS>BOND
     1    1    2 2  
     2    2    3 1  
     3    2    8 am 
     4    3    4 1  
     5    3    7 1  
     6    4    5 1  
     7    4    6 1  
     8    8    9 am 
     9    9   10 2  
    10    9   11 2  
    11    9   12 1  
    12   12   13 ar 
    13   12   17 ar 
    14   13   14 ar 
    15   14   15 ar 
    16   15   16 ar 
    17   16   17 ar 
    18   16   18 1  
    19   18   19 ar 
    20   18   23 ar 
    21   19   20 ar 
    22   20   21 ar 
    23   21   22 ar 
    24   21   24 ar 
    25   22   23 ar 
    26   22   28 ar 
    27   24   25 1  
    28   24   26 ar 
    29   26   27 ar 
    30   27   28 ar 
    31    3   29 1  
    32    4   30 1  
    33    5   31 1  
    34    5   32 1  
    35    5   33 1  
    36    6   34 1  
    37    7   35 1  
    38    7   36 1  
    39    7   37 1  
    40    8   38 1  
    41   13   39 1  
    42   14   40 1  
    43   15   41 1  
    44   17   42 1  
    45   19   43 1  
    46   20   44 1  
    47   23   45 1  
    48   25   46 1  
    49   25   47 1  
    50   27   48 1  
@<TRIPOS>SUBSTRUCTURE
     1 409         1

