### 
### Created by X-TOOL on Mon Sep 10 21:13:14 2018
### 

@<TRIPOS>MOLECULE
4hwp_ligand
   51    53     1     0     0
SMALL
GAST_HUCK


@<TRIPOS>ATOM
      1 C1        -11.3080  -34.6160   19.9010 C.3       1 X16        -0.0314
      2 C2        -11.2040  -33.6830   18.6920 C.3       1 X16         0.1120
      3 C3        -10.8100  -34.4180   17.4080 C.3       1 X16         0.0925
      4 C4        -11.9580  -35.3040   17.0020 C.2       1 X16         0.2470
      5 N5        -11.9000  -36.5850   17.3310 N.am      1 X16        -0.1491
      6 O6        -10.3330  -32.6330   19.0650 O.3       1 X16        -0.3840
      7 N7        -10.6490  -33.4780   16.3400 N.4       1 X16         0.2398
      8 O8        -12.8720  -34.8390   16.3770 O.2       1 X16        -0.3891
      9 S9        -13.0600  -37.5910   16.9060 S.o2      1 X16         0.0912
     10 O10       -12.6020  -38.8290   17.2930 O.2       1 X16        -0.1455
     11 O11       -13.2940  -37.4810   15.5710 O.2       1 X16        -0.1455
     12 C12       -14.4090  -37.3040   17.7650 C.ar      1 X16         0.1149
     13 C13       -14.3690  -36.7660   19.0530 C.ar      1 X16        -0.0336
     14 C14       -15.5210  -36.5250   19.8090 C.ar      1 X16        -0.0581
     15 C15       -16.7460  -36.8380   19.2490 C.ar      1 X16        -0.0522
     16 C16       -16.8220  -37.4400   18.0030 C.ar      1 X16        -0.0124
     17 C17       -15.6610  -37.6320   17.2610 C.ar      1 X16        -0.0252
     18 C18       -18.1670  -37.7250   17.4010 C.ar      1 X16        -0.0146
     19 C19       -19.2940  -37.8050   18.2000 C.ar      1 X16        -0.0494
     20 C20       -20.5620  -37.9960   17.6770 C.ar      1 X16        -0.0426
     21 C21       -20.7000  -38.1020   16.3040 C.ar      1 X16         0.0488
     22 C22       -19.5250  -38.0260   15.4320 C.ar      1 X16         0.0339
     23 C23       -18.2920  -37.8230   16.0260 C.ar      1 X16        -0.0373
     24 N24       -19.7060  -38.1250   14.0950 N.ar      1 X16        -0.3003
     25 C25       -20.9210  -38.3000   13.5480 C.ar      1 X16         0.0708
     26 N26       -22.0390  -38.3730   14.2920 N.ar      1 X16        -0.2542
     27 C27       -22.0090  -38.2920   15.6180 C.ar      1 X16         0.1357
     28 N28       -23.0980  -38.3540   16.3280 N.pl3     1 X16        -0.3074
     29 C29       -21.0070  -38.4170   12.0560 C.3       1 X16        -0.0019
     30 H1        -11.5928  -34.0339   20.7899 H         1 X16         0.0258
     31 H2        -10.3356  -35.0997   20.0756 H         1 X16         0.0258
     32 H3        -12.0703  -35.3847   19.7064 H         1 X16         0.0258
     33 H4        -12.1969  -33.2459   18.5105 H         1 X16         0.0674
     34 H5         -9.8898  -35.0003   17.5635 H         1 X16         0.1125
     35 H6        -11.1180  -36.9256   17.8530 H         1 X16         0.2147
     36 H7        -10.6474  -32.2320   19.8668 H         1 X16         0.2102
     37 H8        -10.3898  -33.9675   15.4978 H         1 X16         0.2016
     38 H9         -9.9269  -32.8170   16.5802 H         1 X16         0.2016
     39 H10       -11.5169  -32.9878   16.1901 H         1 X16         0.2016
     40 H11       -13.4046  -36.5250   19.4852 H         1 X16         0.0646
     41 H12       -15.4553  -36.1046   20.8060 H         1 X16         0.0621
     42 H13       -17.6569  -36.6100   19.7906 H         1 X16         0.0634
     43 H14       -15.7355  -38.0486   16.2630 H         1 X16         0.0653
     44 H15       -19.1802  -37.7149   19.2742 H         1 X16         0.0613
     45 H16       -21.4264  -38.0610   18.3279 H         1 X16         0.0680
     46 H17       -17.4084  -37.7392   15.4036 H         1 X16         0.0608
     47 H18       -24.0083  -38.4851   15.8643 H         1 X16         0.1876
     48 H19       -23.0495  -38.2719   17.3536 H         1 X16         0.1876
     49 H20       -19.9992  -38.3341   11.6230 H         1 X16         0.0464
     50 H21       -21.6431  -37.6112   11.6610 H         1 X16         0.0464
     51 H22       -21.4417  -39.3916   11.7890 H         1 X16         0.0464
@<TRIPOS>BOND
     1    1    2 1  
     2    2    3 1  
     3    2    6 1  
     4    3    4 1  
     5    3    7 1  
     6    4    5 am 
     7    4    8 2  
     8    5    9 am 
     9    9   10 2  
    10    9   11 2  
    11    9   12 1  
    12   12   13 ar 
    13   12   17 ar 
    14   13   14 ar 
    15   14   15 ar 
    16   15   16 ar 
    17   16   17 ar 
    18   16   18 1  
    19   18   19 ar 
    20   18   23 ar 
    21   19   20 ar 
    22   20   21 ar 
    23   21   22 ar 
    24   21   27 ar 
    25   22   23 ar 
    26   22   24 ar 
    27   24   25 ar 
    28   25   26 ar 
    29   25   29 1  
    30   26   27 ar 
    31   27   28 1  
    32    1   30 1  
    33    1   31 1  
    34    1   32 1  
    35    2   33 1  
    36    3   34 1  
    37    5   35 1  
    38    6   36 1  
    39    7   37 1  
    40    7   38 1  
    41    7   39 1  
    42   13   40 1  
    43   14   41 1  
    44   15   42 1  
    45   17   43 1  
    46   19   44 1  
    47   20   45 1  
    48   23   46 1  
    49   28   47 1  
    50   28   48 1  
    51   29   49 1  
    52   29   50 1  
    53   29   51 1  
@<TRIPOS>SUBSTRUCTURE
     1 X16         1

