### 
### Created by X-TOOL on Mon Sep 10 21:13:16 2018
### 

@<TRIPOS>MOLECULE
4hwr_ligand
   45    47     1     0     0
SMALL
GAST_HUCK


@<TRIPOS>ATOM
      1 O8         31.9340  -37.4810   31.9770 O.2       1 1B2        -0.3891
      2 C4         31.0100  -37.9890   32.6230 C.2       1 1B2         0.2470
      3 C3         29.9250  -37.1260   33.2460 C.3       1 1B2         0.0925
      4 C2         28.9860  -36.6600   32.1250 C.3       1 1B2         0.1120
      5 C1         28.0870  -37.7840   31.6290 C.3       1 1B2        -0.0314
      6 O6         28.2030  -35.5440   32.5680 O.3       1 1B2        -0.3840
      7 N7         30.4750  -35.9460   33.9190 N.4       1 1B2         0.2398
      8 N5         30.8090  -39.3050   32.7680 N.am      1 1B2        -0.1492
      9 S9         31.7830  -40.4260   32.2000 S.o2      1 1B2         0.0907
     10 O10        31.3160  -41.7290   32.5130 O.2       1 1B2        -0.1455
     11 O11        33.1040  -40.3110   32.7230 O.2       1 1B2        -0.1455
     12 C12        31.9300  -40.3980   30.5460 C.ar      1 1B2         0.1123
     13 C13        30.8030  -40.2290   29.7340 C.ar      1 1B2        -0.0359
     14 C14        30.8770  -40.2670   28.3390 C.ar      1 1B2        -0.0608
     15 C15        32.1480  -40.3980   27.7390 C.ar      1 1B2        -0.0562
     16 C16        33.2880  -40.5980   28.5120 C.ar      1 1B2        -0.0222
     17 C17        33.1720  -40.6000   29.9240 C.ar      1 1B2        -0.0293
     18 C18        34.6020  -40.8150   27.8270 C.ar      1 1B2        -0.0274
     19 C19        34.6080  -41.4250   26.5550 C.ar      1 1B2        -0.0553
     20 C20        35.8320  -41.6350   25.8850 C.ar      1 1B2         0.0109
     21 C26        36.0640  -42.2400   24.5830 C.2       1 1B2         0.0221
     22 N25        37.4140  -42.1660   24.4860 N.2       1 1B2        -0.2051
     23 N24        38.0200  -41.5710   25.6310 N.pl3     1 1B2        -0.2124
     24 C21        37.0760  -41.2490   26.5380 C.ar      1 1B2         0.0888
     25 C22        37.0570  -40.6370   27.8070 C.ar      1 1B2        -0.0337
     26 C23        35.8140  -40.4520   28.4270 C.ar      1 1B2        -0.0617
     27 H1         29.3635  -37.7257   33.9775 H         1 1B2         0.1125
     28 H2         29.6072  -36.3288   31.2798 H         1 1B2         0.0674
     29 H3         27.4338  -37.4052   30.8291 H         1 1B2         0.0258
     30 H4         27.4704  -38.1547   32.4611 H         1 1B2         0.0258
     31 H5         28.7071  -38.6042   31.2383 H         1 1B2         0.0258
     32 H6         27.6767  -35.2213   31.8459 H         1 1B2         0.2102
     33 H7         31.0942  -36.2391   34.6584 H         1 1B2         0.2016
     34 H8         29.7224  -35.3996   34.3078 H         1 1B2         0.2016
     35 H9         30.9867  -35.3877   33.2537 H         1 1B2         0.2016
     36 H10        29.9939  -39.6018   33.2655 H         1 1B2         0.2147
     37 H11        29.8399  -40.0630   30.2029 H         1 1B2         0.0626
     38 H12        29.9809  -40.1976   27.7329 H         1 1B2         0.0615
     39 H13        32.2375  -40.3420   26.6601 H         1 1B2         0.0611
     40 H14        34.0547  -40.7598   30.5325 H         1 1B2         0.0631
     41 H15        33.6759  -41.7312   26.0940 H         1 1B2         0.0604
     42 H16        35.3438  -42.6452   23.8737 H         1 1B2         0.0718
     43 H17        39.0307  -41.4107   25.7481 H         1 1B2         0.2459
     44 H18        37.9748  -40.3193   28.2884 H         1 1B2         0.0564
     45 H19        35.7896  -40.0079   29.4156 H         1 1B2         0.0589
@<TRIPOS>BOND
     1    1    2 2  
     2    2    3 1  
     3    2    8 am 
     4    3    4 1  
     5    3    7 1  
     6    4    5 1  
     7    4    6 1  
     8    8    9 am 
     9    9   10 2  
    10    9   11 2  
    11    9   12 1  
    12   12   13 ar 
    13   12   17 ar 
    14   13   14 ar 
    15   14   15 ar 
    16   15   16 ar 
    17   16   17 ar 
    18   16   18 1  
    19   18   19 ar 
    20   18   26 ar 
    21   19   20 ar 
    22   20   21 1  
    23   20   24 ar 
    24   21   22 2  
    25   22   23 1  
    26   23   24 1  
    27   24   25 ar 
    28   25   26 ar 
    29    3   27 1  
    30    4   28 1  
    31    5   29 1  
    32    5   30 1  
    33    5   31 1  
    34    6   32 1  
    35    7   33 1  
    36    7   34 1  
    37    7   35 1  
    38    8   36 1  
    39   13   37 1  
    40   14   38 1  
    41   15   39 1  
    42   17   40 1  
    43   19   41 1  
    44   21   42 1  
    45   23   43 1  
    46   25   44 1  
    47   26   45 1  
@<TRIPOS>SUBSTRUCTURE
     1 1B2         1

