### 
### Created by X-TOOL on Mon Sep 10 21:13:14 2018
### 

@<TRIPOS>MOLECULE
4hws_ligand
   48    50     1     0     0
SMALL
GAST_HUCK


@<TRIPOS>ATOM
      1 CL2        24.2480  -37.7290  -18.3230 Cl        1 1B3        -0.0148
      2 C25        22.8060  -37.8390  -17.3240 C.ar      1 1B3         0.1691
      3 N24        21.6350  -37.6810  -17.9820 N.ar      1 1B3        -0.2834
      4 N26        22.9510  -38.0340  -15.9920 N.ar      1 1B3        -0.2393
      5 C27        21.8970  -38.0980  -15.2090 C.ar      1 1B3         0.1390
      6 N28        22.0410  -38.2850  -13.8830 N.pl3     1 1B3        -0.3070
      7 C21        20.5570  -37.9670  -15.8580 C.ar      1 1B3         0.0517
      8 C22        20.4830  -37.7560  -17.3050 C.ar      1 1B3         0.0401
      9 C23        19.2340  -37.6050  -17.9360 C.ar      1 1B3        -0.0351
     10 C20        19.3820  -38.0260  -15.1080 C.ar      1 1B3        -0.0411
     11 C19        18.1520  -37.9000  -15.7560 C.ar      1 1B3        -0.0482
     12 C18        18.0820  -37.6820  -17.1460 C.ar      1 1B3        -0.0132
     13 C16        16.7350  -37.4400  -17.7680 C.ar      1 1B3        -0.0121
     14 C17        15.5680  -37.6500  -17.0580 C.ar      1 1B3        -0.0252
     15 C15        16.6910  -36.8100  -19.0280 C.ar      1 1B3        -0.0521
     16 C14        15.4570  -36.5220  -19.6410 C.ar      1 1B3        -0.0581
     17 C13        14.2830  -36.7810  -18.9080 C.ar      1 1B3        -0.0336
     18 C12        14.3330  -37.3400  -17.6240 C.ar      1 1B3         0.1149
     19 S9         12.9530  -37.6460  -16.8100 S.o2      1 1B3         0.0912
     20 O10        12.4830  -38.9620  -17.1960 O.2       1 1B3        -0.1455
     21 O11        13.1840  -37.5910  -15.4180 O.2       1 1B3        -0.1455
     22 N5         11.8100  -36.6400  -17.2340 N.am      1 1B3        -0.1491
     23 C4         11.8770  -35.3430  -16.9080 C.2       1 1B3         0.2470
     24 O8         12.8190  -34.8810  -16.2640 O.2       1 1B3        -0.3891
     25 C3         10.7270  -34.4950  -17.3550 C.3       1 1B3         0.0925
     26 N7         10.3930  -33.4920  -16.3390 N.4       1 1B3         0.2398
     27 C2         11.0990  -33.7180  -18.6200 C.3       1 1B3         0.1120
     28 C1         11.0570  -34.6640  -19.8440 C.3       1 1B3        -0.0314
     29 O6         10.1810  -32.6220  -18.7760 O.3       1 1B3        -0.3840
     30 H1         21.2099  -38.3340  -13.2766 H         1 1B3         0.1876
     31 H2         22.9822  -38.3790  -13.4754 H         1 1B3         0.1876
     32 H3         19.1666  -37.4338  -19.0043 H         1 1B3         0.0619
     33 H4         19.4238  -38.1681  -14.0342 H         1 1B3         0.0682
     34 H5         17.2362  -37.9710  -15.1804 H         1 1B3         0.0623
     35 H6         15.6137  -38.0583  -16.0549 H         1 1B3         0.0653
     36 H7         17.6150  -36.5451  -19.5291 H         1 1B3         0.0634
     37 H8         15.4120  -36.1142  -20.6444 H         1 1B3         0.0621
     38 H9         13.3205  -36.5430  -19.3461 H         1 1B3         0.0646
     39 H10        11.0249  -36.9772  -17.7536 H         1 1B3         0.2147
     40 H11         9.8564  -35.1388  -17.5489 H         1 1B3         0.1125
     41 H12        10.1391  -33.9551  -15.4804 H         1 1B3         0.2016
     42 H13         9.6186  -32.9327  -16.6608 H         1 1B3         0.2016
     43 H14        11.1917  -32.8987  -16.1772 H         1 1B3         0.2016
     44 H15        12.1186  -33.3188  -18.5151 H         1 1B3         0.0674
     45 H16        11.3248  -34.1022  -20.7510 H         1 1B3         0.0258
     46 H17        10.0432  -35.0763  -19.9542 H         1 1B3         0.0258
     47 H18        11.7732  -35.4859  -19.6970 H         1 1B3         0.0258
     48 H19        10.4124  -32.1245  -19.5516 H         1 1B3         0.2102
@<TRIPOS>BOND
     1    1    2 1  
     2    2    3 ar 
     3    2    4 ar 
     4    3    8 ar 
     5    4    5 ar 
     6    5    6 1  
     7    5    7 ar 
     8    7    8 ar 
     9    7   10 ar 
    10    8    9 ar 
    11    9   12 ar 
    12   10   11 ar 
    13   11   12 ar 
    14   12   13 1  
    15   13   14 ar 
    16   13   15 ar 
    17   14   18 ar 
    18   15   16 ar 
    19   16   17 ar 
    20   17   18 ar 
    21   18   19 1  
    22   19   20 2  
    23   19   21 2  
    24   19   22 am 
    25   22   23 am 
    26   23   24 2  
    27   23   25 1  
    28   25   26 1  
    29   25   27 1  
    30   27   28 1  
    31   27   29 1  
    32    6   30 1  
    33    6   31 1  
    34    9   32 1  
    35   10   33 1  
    36   11   34 1  
    37   14   35 1  
    38   15   36 1  
    39   16   37 1  
    40   17   38 1  
    41   22   39 1  
    42   25   40 1  
    43   26   41 1  
    44   26   42 1  
    45   26   43 1  
    46   27   44 1  
    47   28   45 1  
    48   28   46 1  
    49   28   47 1  
    50   29   48 1  
@<TRIPOS>SUBSTRUCTURE
     1 1B3         1

