### 
### Created by X-TOOL on Mon Sep 10 21:13:15 2018
### 

@<TRIPOS>MOLECULE
4hwt_ligand
   45    47     1     0     0
SMALL
GAST_HUCK


@<TRIPOS>ATOM
      1 O8          7.0520  -28.5890  -13.1320 O.2       1 1B2        -0.3891
      2 C4          7.0910  -27.4910  -12.6120 C.2       1 1B2         0.2470
      3 C3          8.0620  -27.2530  -11.4900 C.3       1 1B2         0.0925
      4 C2          9.5310  -27.2730  -11.8740 C.3       1 1B2         0.1120
      5 C1          9.9420  -26.0440  -12.6620 C.3       1 1B2        -0.0314
      6 O6         10.2500  -27.3960  -10.6150 O.3       1 1B2        -0.3840
      7 N7          7.9710  -28.3600  -10.5600 N.4       1 1B2         0.2398
      8 N5          6.2940  -26.4610  -12.9480 N.am      1 1B2        -0.1492
      9 S9          4.7840  -26.5340  -13.5690 S.o2      1 1B2         0.0907
     10 O10         3.8120  -25.9100  -12.7090 O.2       1 1B2        -0.1455
     11 O11         4.3600  -27.8860  -13.7810 O.2       1 1B2        -0.1455
     12 C12         4.7090  -25.7460  -14.9560 C.ar      1 1B2         0.1123
     13 C13         5.5680  -26.0890  -16.0130 C.ar      1 1B2        -0.0359
     14 C14         5.4730  -25.3860  -17.2180 C.ar      1 1B2        -0.0608
     15 C15         4.5280  -24.3540  -17.3620 C.ar      1 1B2        -0.0562
     16 C16         3.6740  -24.0030  -16.3080 C.ar      1 1B2        -0.0222
     17 C17         3.7710  -24.7090  -15.1090 C.ar      1 1B2        -0.0293
     18 C18         2.6660  -22.9000  -16.4730 C.ar      1 1B2        -0.0274
     19 C19         2.9730  -21.7790  -17.2690 C.ar      1 1B2        -0.0553
     20 C20         2.0260  -20.7610  -17.4370 C.ar      1 1B2         0.0109
     21 C26         2.1160  -19.5380  -18.1810 C.2       1 1B2         0.0221
     22 N25         0.9050  -18.9460  -17.9750 N.2       1 1B2        -0.2051
     23 N24         0.0750  -19.7450  -17.1360 N.pl3     1 1B2        -0.2124
     24 C21         0.7150  -20.8740  -16.7710 C.ar      1 1B2         0.0888
     25 C22         0.4270  -21.9950  -15.9840 C.ar      1 1B2        -0.0337
     26 C23         1.4020  -22.9960  -15.8490 C.ar      1 1B2        -0.0617
     27 H1          7.8141  -26.2977  -11.0042 H         1 1B2         0.1125
     28 H2          9.7331  -28.1569  -12.4968 H         1 1B2         0.0674
     29 H3         11.0109  -26.1100  -12.9131 H         1 1B2         0.0258
     30 H4          9.7625  -25.1433  -12.0566 H         1 1B2         0.0258
     31 H5          9.3508  -25.9874  -13.5879 H         1 1B2         0.0258
     32 H6          9.9587  -28.1776  -10.1603 H         1 1B2         0.2102
     33 H7          7.0219  -28.4456  -10.2314 H         1 1B2         0.2016
     34 H8          8.5837  -28.1926   -9.7773 H         1 1B2         0.2016
     35 H9          8.2439  -29.2121  -11.0242 H         1 1B2         0.2016
     36 H10         6.6683  -25.5454  -12.8010 H         1 1B2         0.2147
     37 H11         6.2932  -26.8862  -15.8964 H         1 1B2         0.0626
     38 H12         6.1293  -25.6370  -18.0434 H         1 1B2         0.0615
     39 H13         4.4593  -23.8216  -18.3037 H         1 1B2         0.0611
     40 H14         3.1149  -24.4552  -14.2842 H         1 1B2         0.0631
     41 H15         3.9411  -21.7044  -17.7509 H         1 1B2         0.0604
     42 H16         2.9537  -19.1693  -18.7711 H         1 1B2         0.0718
     43 H17        -0.8817  -19.4945  -16.8482 H         1 1B2         0.2459
     44 H18        -0.5320  -22.0886  -15.4875 H         1 1B2         0.0564
     45 H19         1.1782  -23.8696  -15.2474 H         1 1B2         0.0589
@<TRIPOS>BOND
     1    1    2 2  
     2    2    3 1  
     3    2    8 am 
     4    3    4 1  
     5    3    7 1  
     6    4    5 1  
     7    4    6 1  
     8    8    9 am 
     9    9   10 2  
    10    9   11 2  
    11    9   12 1  
    12   12   13 ar 
    13   12   17 ar 
    14   13   14 ar 
    15   14   15 ar 
    16   15   16 ar 
    17   16   17 ar 
    18   16   18 1  
    19   18   19 ar 
    20   18   26 ar 
    21   19   20 ar 
    22   20   21 1  
    23   20   24 ar 
    24   21   22 2  
    25   22   23 1  
    26   23   24 1  
    27   24   25 ar 
    28   25   26 ar 
    29    3   27 1  
    30    4   28 1  
    31    5   29 1  
    32    5   30 1  
    33    5   31 1  
    34    6   32 1  
    35    7   33 1  
    36    7   34 1  
    37    7   35 1  
    38    8   36 1  
    39   13   37 1  
    40   14   38 1  
    41   15   39 1  
    42   17   40 1  
    43   19   41 1  
    44   21   42 1  
    45   23   43 1  
    46   25   44 1  
    47   26   45 1  
@<TRIPOS>SUBSTRUCTURE
     1 1B2         1

