### 
### Created by X-TOOL on Mon Sep 10 21:13:08 2018
### 

@<TRIPOS>MOLECULE
4hxj_ligand
   48    47     1     0     0
SMALL
GAST_HUCK


@<TRIPOS>ATOM
      1 N          12.9530  -17.0970   14.1460 N.4       1 ARG         0.2379
      2 CA         14.1870  -17.1600   14.9270 C.3       1 ARG         0.0651
      3 C          13.8560  -17.2050   16.4190 C.2       1 ARG         0.2265
      4 O          12.9190  -16.5530   16.8690 O.2       1 ARG        -0.3907
      5 CB         15.0900  -15.9730   14.5920 C.3       1 ARG         0.0110
      6 CG         16.5720  -16.2860   14.6360 C.3       1 ARG        -0.0125
      7 CD         17.3900  -15.1310   14.0820 C.3       1 ARG         0.0629
      8 NE         18.7650  -15.1630   14.5720 N.pl3     1 ARG        -0.2723
      9 CZ         19.7830  -15.7160   13.9200 C.cat     1 ARG         0.2882
     10 NH1        19.5920  -16.2840   12.7360 N.pl3     1 ARG        -0.2849
     11 NH2        20.9970  -15.6960   14.4510 N.pl3     1 ARG        -0.2849
     12 N          14.6310  -17.9720   17.1800 N.am      1 GLY        -0.2637
     13 CA         14.2260  -18.3770   18.5160 C.3       1 GLY         0.1202
     14 C          14.5480  -17.5100   19.7240 C.2       1 GLY         0.2003
     15 O          13.8710  -16.5160   19.9860 O.2       1 GLY        -0.3947
     16 N          15.5970  -17.9030   20.4450 N.am      1 THR        -0.2672
     17 CA         15.8220  -17.5440   21.8500 C.3       1 THR         0.1198
     18 C          15.1770  -18.6270   22.7100 C.2       1 THR         0.0626
     19 O          15.5380  -18.8570   23.8650 O.co2     1 THR        -0.5665
     20 CB         15.2400  -16.1720   22.2580 C.3       1 THR         0.0869
     21 OG1        15.9290  -15.1230   21.5690 O.3       1 THR        -0.3880
     22 CG2        15.3950  -15.9610   23.7540 C.3       1 THR        -0.0352
     23 OXT        14.2650  -19.3110   22.2500 O.co2     1 THR        -0.5665
     24 H1         13.1781  -17.0676   13.1639 H         1 ARG         0.2015
     25 H2         12.4380  -16.2678   14.3976 H         1 ARG         0.2015
     26 H3         12.3919  -17.9122   14.3378 H         1 ARG         0.2015
     27 H4         14.7214  -18.0845   14.6629 H         1 ARG         0.1098
     28 H5         14.8858  -15.1697   15.3152 H         1 ARG         0.0347
     29 H6         14.8411  -15.6258   13.5784 H         1 ARG         0.0347
     30 H7         16.7675  -17.1860   14.0346 H         1 ARG         0.0302
     31 H8         16.8699  -16.4699   15.6788 H         1 ARG         0.0302
     32 H9         16.9235  -14.1834   14.3892 H         1 ARG         0.0689
     33 H10        17.4007  -15.1954   12.9840 H         1 ARG         0.0689
     34 H11        18.9595  -14.7275   15.4849 H         1 ARG         0.2642
     35 H12        20.3847  -16.7108   12.2357 H         1 ARG         0.2615
     36 H13        18.6510  -16.2980   12.3173 H         1 ARG         0.2615
     37 H14        21.1501  -15.2563   15.3697 H         1 ARG         0.2615
     38 H15        21.7875  -16.1202   13.9450 H         1 ARG         0.2615
     39 H16        15.5142  -18.2778   16.8245 H         1 GLY         0.1882
     40 H17        14.6898  -19.3572   18.7008 H         1 GLY         0.0763
     41 H18        13.1319  -18.4877   18.4921 H         1 GLY         0.0763
     42 H19        16.2782  -18.4827   19.9979 H         1 THR         0.1876
     43 H20        16.9063  -17.5250   22.0344 H         1 THR         0.0752
     44 H21        14.1724  -16.1413   21.9948 H         1 THR         0.0632
     45 H22        15.8263  -15.2404   20.6319 H         1 THR         0.2100
     46 H23        14.9773  -14.9819   24.0314 H         1 THR         0.0256
     47 H24        16.4618  -15.9933   24.0203 H         1 THR         0.0256
     48 H25        14.8581  -16.7549   24.2939 H         1 THR         0.0256
@<TRIPOS>BOND
     1    1    2 1  
     2    2    3 1  
     3    2    5 1  
     4    3    4 2  
     5    3   12 am 
     6    5    6 1  
     7    6    7 1  
     8    7    8 1  
     9    8    9 ar 
    10    9   10 ar 
    11    9   11 ar 
    12   12   13 1  
    13   13   14 1  
    14   14   15 2  
    15   14   16 am 
    16   16   17 1  
    17   17   18 1  
    18   17   20 1  
    19   18   19 ar 
    20   18   23 ar 
    21   20   21 1  
    22   20   22 1  
    23    1   24 1  
    24    1   25 1  
    25    1   26 1  
    26    2   27 1  
    27    5   28 1  
    28    5   29 1  
    29    6   30 1  
    30    6   31 1  
    31    7   32 1  
    32    7   33 1  
    33    8   34 1  
    34   10   35 1  
    35   10   36 1  
    36   11   37 1  
    37   11   38 1  
    38   12   39 1  
    39   13   40 1  
    40   13   41 1  
    41   16   42 1  
    42   17   43 1  
    43   20   44 1  
    44   21   45 1  
    45   22   46 1  
    46   22   47 1  
    47   22   48 1  
@<TRIPOS>SUBSTRUCTURE
     1 ARG         1

