### 
### Created by X-TOOL on Mon Sep 10 21:13:13 2018
### 

@<TRIPOS>MOLECULE
4hxl_ligand
   57    60     1     0     0
SMALL
GAST_HUCK


@<TRIPOS>ATOM
      1 CAP         0.2100   -6.4260   -1.8900 C.3       1 1A9        -0.0501
      2 CAM         1.6950   -6.4970   -2.0350 C.3       1 1A9        -0.0528
      3 CAL         2.2020   -7.8820   -2.3090 C.3       1 1A9        -0.0530
      4 CAN         1.2090   -9.0040   -2.2150 C.3       1 1A9        -0.0528
      5 CAQ        -0.1910   -8.7260   -2.6770 C.3       1 1A9        -0.0501
      6 CBE        -0.5190   -7.2810   -2.8850 C.3       1 1A9        -0.0390
      7 CAR        -2.0050   -7.0490   -2.8440 C.3       1 1A9        -0.0327
      8 CAO        -2.6710   -7.8800   -1.8080 C.3       1 1A9         0.0434
      9 CAX        -4.1090   -7.5180   -1.6280 C.2       1 1A9         0.2031
     10 OAA        -4.6690   -6.6810   -2.3270 O.2       1 1A9        -0.3850
     11 NAS        -4.7950   -8.2060   -0.5900 N.am      1 1A9        -0.2385
     12 CAY        -6.1640   -8.0610   -0.2100 C.ar      1 1A9         0.0476
     13 CAI        -6.5760   -8.8980    0.8060 C.ar      1 1A9        -0.0292
     14 CAJ        -7.0510   -7.1530   -0.7750 C.ar      1 1A9        -0.0532
     15 CBA        -8.3580   -7.1240   -0.3100 C.ar      1 1A9        -0.0321
     16 CBB        -9.3230   -6.1630   -0.8920 C.2       1 1A9         0.0642
     17 CAH        -9.0300   -5.1640   -1.8930 C.2       1 1A9         0.0072
     18 SAW       -10.4590   -4.3070   -2.2190 S.3       1 1A9         0.0028
     19 CBD       -11.4250   -5.1310   -1.1390 C.2       1 1A9         0.2684
     20 OAB       -12.6200   -4.9620   -0.8960 O.2       1 1A9        -0.3826
     21 NAU       -10.6710   -6.0610   -0.5480 N.am      1 1A9        -0.2333
     22 CAK        -8.7720   -7.9580    0.7170 C.ar      1 1A9        -0.0555
     23 CAZ        -7.8750   -8.8550    1.2740 C.ar      1 1A9         0.0464
     24 NAT        -8.2370   -9.7190    2.3500 N.am      1 1A9        -0.1913
     25 SBF        -7.4900   -9.4930    3.8030 S.o2      1 1A9         0.0975
     26 OAC        -8.1430  -10.2260    4.8720 O.2       1 1A9        -0.1443
     27 OAD        -6.0990   -9.9560    3.6510 O.2       1 1A9        -0.1443
     28 CBC        -7.4290   -7.7960    4.2970 C.2       1 1A9         0.1660
     29 SAV        -6.5950   -6.6600    3.4740 S.3       1 1A9        -0.0173
     30 CAF        -6.8950   -5.3640    4.4210 C.2       1 1A9        -0.0067
     31 CAE        -7.7190   -5.7470    5.5150 C.2       1 1A9        -0.0774
     32 CAG        -8.0450   -7.2060    5.4670 C.2       1 1A9        -0.0518
     33 H1         -0.1059   -5.3814   -2.0278 H         1 1A9         0.0268
     34 H2         -0.0595   -6.7600   -0.8772 H         1 1A9         0.0268
     35 H3          2.1539   -6.1360   -1.1028 H         1 1A9         0.0265
     36 H4          1.9955   -5.8447   -2.8682 H         1 1A9         0.0265
     37 H5          3.0059   -8.0895   -1.5875 H         1 1A9         0.0265
     38 H6          2.6139   -7.8885   -3.3289 H         1 1A9         0.0265
     39 H7          1.1539   -9.3086   -1.1595 H         1 1A9         0.0265
     40 H8          1.5959   -9.8387   -2.8179 H         1 1A9         0.0265
     41 H9         -0.8840   -9.1269   -1.9227 H         1 1A9         0.0268
     42 H10        -0.3446   -9.2504   -3.6316 H         1 1A9         0.0268
     43 H11        -0.1676   -6.9979   -3.8882 H         1 1A9         0.0302
     44 H12        -2.4305   -7.2991   -3.8270 H         1 1A9         0.0292
     45 H13        -2.1926   -5.9880   -2.6224 H         1 1A9         0.0292
     46 H14        -2.1481   -7.7379   -0.8507 H         1 1A9         0.0508
     47 H15        -2.6072   -8.9366   -2.1073 H         1 1A9         0.0508
     48 H16        -4.2576   -8.8669   -0.0662 H         1 1A9         0.2249
     49 H17        -5.8723   -9.5976    1.2423 H         1 1A9         0.0341
     50 H18        -6.7287   -6.4814   -1.5625 H         1 1A9         0.0346
     51 H19        -8.0607   -4.9905   -2.3580 H         1 1A9         0.0487
     52 H20       -11.0677   -6.6768    0.1328 H         1 1A9         0.2244
     53 H21        -9.7915   -7.9086    1.0821 H         1 1A9         0.0340
     54 H22        -8.9211  -10.4380    2.2273 H         1 1A9         0.2154
     55 H23        -6.5203   -4.3573    4.2417 H         1 1A9         0.0711
     56 H24        -8.0681   -5.0650    6.2889 H         1 1A9         0.0404
     57 H25        -8.6506   -7.7406    6.1974 H         1 1A9         0.0423
@<TRIPOS>BOND
     1    1    2 1  
     2    1    6 1  
     3    2    3 1  
     4    3    4 1  
     5    4    5 1  
     6    5    6 1  
     7    6    7 1  
     8    7    8 1  
     9    8    9 1  
    10    9   10 2  
    11    9   11 am 
    12   11   12 1  
    13   12   13 ar 
    14   12   14 ar 
    15   13   23 ar 
    16   14   15 ar 
    17   15   16 1  
    18   15   22 ar 
    19   16   17 2  
    20   16   21 1  
    21   17   18 1  
    22   18   19 1  
    23   19   20 2  
    24   19   21 am 
    25   22   23 ar 
    26   23   24 1  
    27   24   25 am 
    28   25   26 2  
    29   25   27 2  
    30   25   28 1  
    31   28   29 1  
    32   28   32 2  
    33   29   30 1  
    34   30   31 2  
    35   31   32 1  
    36    1   33 1  
    37    1   34 1  
    38    2   35 1  
    39    2   36 1  
    40    3   37 1  
    41    3   38 1  
    42    4   39 1  
    43    4   40 1  
    44    5   41 1  
    45    5   42 1  
    46    6   43 1  
    47    7   44 1  
    48    7   45 1  
    49    8   46 1  
    50    8   47 1  
    51   11   48 1  
    52   13   49 1  
    53   14   50 1  
    54   17   51 1  
    55   21   52 1  
    56   22   53 1  
    57   24   54 1  
    58   30   55 1  
    59   31   56 1  
    60   32   57 1  
@<TRIPOS>SUBSTRUCTURE
     1 1A9         1

