### 
### Created by X-TOOL on Mon Sep 10 21:13:13 2018
### 

@<TRIPOS>MOLECULE
4hxm_ligand
   44    46     1     0     0
SMALL
GAST_HUCK


@<TRIPOS>ATOM
      1 CAA         2.7340   -8.6040    3.9760 C.3       1 1A8        -0.0632
      2 CAM         2.1750   -7.5330    3.1060 C.3       1 1A8        -0.0384
      3 CAN         2.6260   -7.7690    1.7080 C.3       1 1A8         0.0429
      4 CAT         4.0850   -7.4850    1.5620 C.2       1 1A8         0.2030
      5 OAB         4.6420   -6.6930    2.3070 O.2       1 1A8        -0.3850
      6 NAO         4.7660   -8.1700    0.5200 N.am      1 1A8        -0.2385
      7 CAU         6.1490   -8.0680    0.1710 C.ar      1 1A8         0.0476
      8 CAJ         6.5910   -8.9160   -0.8280 C.ar      1 1A8        -0.0292
      9 CAK         7.0280   -7.1700    0.7630 C.ar      1 1A8        -0.0532
     10 CAW         8.3430   -7.1550    0.3480 C.ar      1 1A8        -0.0321
     11 CAX         9.3090   -6.2040    0.9450 C.2       1 1A8         0.0642
     12 CAI         9.0290   -5.2310    1.9660 C.2       1 1A8         0.0072
     13 SAS        10.4570   -4.3790    2.2890 S.3       1 1A8         0.0028
     14 CAZ        11.4000   -5.1840    1.1640 C.2       1 1A8         0.2684
     15 OAC        12.5880   -5.0180    0.9080 O.2       1 1A8        -0.3826
     16 NAQ        10.6450   -6.0990    0.5710 N.am      1 1A8        -0.2333
     17 CAL         8.7970   -7.9940   -0.6510 C.ar      1 1A8        -0.0555
     18 CAV         7.9150   -8.8780   -1.2380 C.ar      1 1A8         0.0464
     19 NAP         8.3560   -9.7050   -2.3000 N.am      1 1A8        -0.1913
     20 SBA         7.6770   -9.3290   -3.7530 S.o2      1 1A8         0.0975
     21 OAD         6.3710   -9.9480   -3.7540 O.2       1 1A8        -0.1443
     22 OAE         8.3230  -10.0440   -4.8380 O.2       1 1A8        -0.1443
     23 CAY         7.4640   -7.5900   -4.1600 C.2       1 1A8         0.1660
     24 SAR         6.6430   -6.4990   -3.2720 S.3       1 1A8        -0.0173
     25 CAG         6.7420   -5.1400   -4.1570 C.2       1 1A8        -0.0067
     26 CAF         7.4740   -5.4390   -5.3330 C.2       1 1A8        -0.0774
     27 CAH         7.8970   -6.8890   -5.3510 C.2       1 1A8        -0.0518
     28 H1          2.4076   -8.4410    5.0137 H         1 1A8         0.0231
     29 H2          3.8327   -8.5785    3.9289 H         1 1A8         0.0231
     30 H3          2.3747   -9.5838    3.6283 H         1 1A8         0.0231
     31 H4          2.5341   -6.5518    3.4499 H         1 1A8         0.0287
     32 H5          1.0761   -7.5571    3.1493 H         1 1A8         0.0287
     33 H6          2.0617   -7.1101    1.0317 H         1 1A8         0.0507
     34 H7          2.4353   -8.8188    1.4407 H         1 1A8         0.0507
     35 H8          4.2149   -8.7952   -0.0327 H         1 1A8         0.2249
     36 H9          5.9010   -9.6118   -1.2915 H         1 1A8         0.0341
     37 H10         6.6863   -6.4930    1.5375 H         1 1A8         0.0346
     38 H11         8.0659   -5.0698    2.4480 H         1 1A8         0.0487
     39 H12        11.0278   -6.7007   -0.1300 H         1 1A8         0.2244
     40 H13         9.8325   -7.9584   -0.9696 H         1 1A8         0.0340
     41 H14         9.0164  -10.4462   -2.1793 H         1 1A8         0.2154
     42 H15         6.3205   -4.1711   -3.8932 H         1 1A8         0.0711
     43 H16         7.7011   -4.7198   -6.1185 H         1 1A8         0.0404
     44 H17         8.4592   -7.3511   -6.1611 H         1 1A8         0.0423
@<TRIPOS>BOND
     1    1    2 1  
     2    2    3 1  
     3    3    4 1  
     4    4    5 2  
     5    4    6 am 
     6    6    7 1  
     7    7    8 ar 
     8    7    9 ar 
     9    8   18 ar 
    10    9   10 ar 
    11   10   11 1  
    12   10   17 ar 
    13   11   12 2  
    14   11   16 1  
    15   12   13 1  
    16   13   14 1  
    17   14   15 2  
    18   14   16 am 
    19   17   18 ar 
    20   18   19 1  
    21   19   20 am 
    22   20   21 2  
    23   20   22 2  
    24   20   23 1  
    25   23   24 1  
    26   23   27 2  
    27   24   25 1  
    28   25   26 2  
    29   26   27 1  
    30    1   28 1  
    31    1   29 1  
    32    1   30 1  
    33    2   31 1  
    34    2   32 1  
    35    3   33 1  
    36    3   34 1  
    37    6   35 1  
    38    8   36 1  
    39    9   37 1  
    40   12   38 1  
    41   16   39 1  
    42   17   40 1  
    43   19   41 1  
    44   25   42 1  
    45   26   43 1  
    46   27   44 1  
@<TRIPOS>SUBSTRUCTURE
     1 1A8         1

