### 
### Created by X-TOOL on Mon Sep 10 21:13:13 2018
### 

@<TRIPOS>MOLECULE
4hxr_ligand
   31    33     1     0     0
SMALL
GAST_HUCK


@<TRIPOS>ATOM
      1 CAI        -7.8940    7.0590   -5.2510 C.2       1 1A4        -0.0518
      2 CAD        -7.6230    5.5690   -5.4490 C.2       1 1A4        -0.0774
      3 CAF        -6.8090    5.0570   -4.3840 C.2       1 1A4        -0.0067
      4 SAN        -6.4770    6.2540   -3.3590 S.3       1 1A4        -0.0173
      5 CAS        -7.2460    7.4900   -4.0350 C.2       1 1A4         0.1661
      6 SAU        -7.2200    9.1240   -3.3540 S.o2      1 1A4         0.0978
      7 OAB        -5.8420    9.4810   -3.0950 O.2       1 1A4        -0.1442
      8 OAC        -7.7870   10.0630   -4.3390 O.2       1 1A4        -0.1442
      9 NAL        -8.0530    9.2230   -1.9490 N.am      1 1A4        -0.1876
     10 CAP        -7.7160    8.3510   -0.8650 C.ar      1 1A4         0.0596
     11 CAK        -8.6710    7.5100   -0.3230 C.ar      1 1A4        -0.0410
     12 CAG        -6.4300    8.3180   -0.3450 C.ar      1 1A4        -0.0481
     13 CAE        -6.1140    7.4580    0.7020 C.ar      1 1A4        -0.0797
     14 CAH        -7.0780    6.6250    1.2460 C.ar      1 1A4        -0.0732
     15 CAQ        -8.3590    6.6630    0.7290 C.ar      1 1A4        -0.0194
     16 CAR        -9.4310    5.7840    1.2440 C.2       1 1A4         0.0675
     17 CAJ        -9.3510    4.7710    2.2000 C.2       1 1A4         0.0074
     18 SAO       -10.7280    4.0940    2.4010 S.3       1 1A4         0.0027
     19 CAT       -11.6380    4.9300    1.3190 C.2       1 1A4         0.2684
     20 OAA       -12.9510    4.8090    1.0380 O.2       1 1A4        -0.3825
     21 NAM       -10.8070    5.9200    0.6810 N.am      1 1A4        -0.2330
     22 H1         -8.4792    7.6916   -5.9169 H         1 1A4         0.0423
     23 H2         -7.9961    4.9769   -6.2833 H         1 1A4         0.0404
     24 H3         -6.4707    4.0266   -4.2849 H         1 1A4         0.0711
     25 H4         -8.7927    9.8884   -1.8483 H         1 1A4         0.2159
     26 H5         -9.6771    7.5133   -0.7264 H         1 1A4         0.0454
     27 H6         -5.6660    8.9670   -0.7575 H         1 1A4         0.0463
     28 H7         -5.1042    7.4396    1.0957 H         1 1A4         0.0566
     29 H8         -6.8320    5.9556    2.0623 H         1 1A4         0.0459
     30 H9         -8.4424    4.4941    2.7327 H         1 1A4         0.0486
     31 H10       -11.0991    6.5783   -0.0127 H         1 1A4         0.2244
@<TRIPOS>BOND
     1    1    2 1  
     2    1    5 2  
     3    2    3 2  
     4    3    4 1  
     5    4    5 1  
     6    5    6 1  
     7    6    7 2  
     8    6    8 2  
     9    6    9 am 
    10    9   10 1  
    11   10   11 ar 
    12   10   12 ar 
    13   11   15 ar 
    14   12   13 ar 
    15   13   14 ar 
    16   14   15 ar 
    17   15   16 1  
    18   16   17 2  
    19   16   21 1  
    20   17   18 1  
    21   18   19 1  
    22   19   20 2  
    23   19   21 am 
    24    1   22 1  
    25    2   23 1  
    26    3   24 1  
    27    9   25 1  
    28   11   26 1  
    29   12   27 1  
    30   13   28 1  
    31   14   29 1  
    32   17   30 1  
    33   21   31 1  
@<TRIPOS>SUBSTRUCTURE
     1 1A4         1

