### 
### Created by X-TOOL on Mon Sep 10 21:13:13 2018
### 

@<TRIPOS>MOLECULE
4hxs_ligand
   37    39     1     0     0
SMALL
GAST_HUCK


@<TRIPOS>ATOM
      1 CAH        -0.1570    7.1510    1.3790 C.ar      1 1A3        -0.0587
      2 CAE         0.8590    6.2100    1.4720 C.ar      1 1A3        -0.0685
      3 CAD         0.8890    5.3050    2.5210 C.ar      1 1A3        -0.0687
      4 CAF        -0.1020    5.3470    3.4870 C.ar      1 1A3        -0.0685
      5 CAI        -1.1140    6.2930    3.3970 C.ar      1 1A3        -0.0587
      6 CAR        -1.1590    7.1910    2.3410 C.ar      1 1A3        -0.0199
      7 CAN        -2.2500    8.2150    2.2520 C.3       1 1A3         0.1234
      8 SAW        -3.8950    7.5530    2.1480 S.o2      1 1A3         0.0698
      9 OAB        -3.8600    6.1240    2.3200 O.2       1 1A3        -0.1478
     10 OAC        -4.6810    8.1660    3.2260 O.2       1 1A3        -0.1478
     11 NAO        -4.6050    7.9450    0.7230 N.am      1 1A3        -0.1906
     12 CAS        -5.9610    7.7110    0.2690 C.ar      1 1A3         0.0594
     13 CAM        -6.9070    6.8790    0.8890 C.ar      1 1A3        -0.0410
     14 CAJ        -6.3170    8.3700   -0.9000 C.ar      1 1A3        -0.0481
     15 CAG        -7.5770    8.2360   -1.4600 C.ar      1 1A3        -0.0797
     16 CAK        -8.5080    7.4200   -0.8420 C.ar      1 1A3        -0.0732
     17 CAT        -8.1860    6.7490    0.3270 C.ar      1 1A3        -0.0194
     18 CAU        -9.2650    5.8890    0.8950 C.2       1 1A3         0.0675
     19 CAL        -9.1420    4.8800    1.9180 C.2       1 1A3         0.0074
     20 SAQ       -10.5610    4.2290    2.1560 S.3       1 1A3         0.0027
     21 CAV       -11.4740    5.0140    1.0860 C.2       1 1A3         0.2684
     22 OAA       -12.8030    4.8490    0.8610 O.2       1 1A3        -0.3825
     23 NAP       -10.6790    5.9570    0.3950 N.am      1 1A3        -0.2330
     24 H1         -0.1689    7.8554    0.5551 H         1 1A3         0.0557
     25 H2          1.6363    6.1827    0.7170 H         1 1A3         0.0599
     26 H3          1.6827    4.5694    2.5848 H         1 1A3         0.0559
     27 H4         -0.0877    4.6431    4.3113 H         1 1A3         0.0599
     28 H5         -1.8800    6.3304    4.1631 H         1 1A3         0.0557
     29 H6         -2.0713    8.8269    1.3556 H         1 1A3         0.0687
     30 H7         -2.1944    8.8514    3.1475 H         1 1A3         0.0687
     31 H8         -4.0133    8.4164    0.0690 H         1 1A3         0.2157
     32 H9         -6.6512    6.3413    1.7948 H         1 1A3         0.0454
     33 H10        -5.5886    9.0073   -1.3882 H         1 1A3         0.0463
     34 H11        -7.8307    8.7644   -2.3719 H         1 1A3         0.0566
     35 H12        -9.4952    7.3049   -1.2748 H         1 1A3         0.0459
     36 H13        -8.2242    4.6118    2.4392 H         1 1A3         0.0486
     37 H14       -11.0085    6.5754   -0.3185 H         1 1A3         0.2244
@<TRIPOS>BOND
     1    1    2 ar 
     2    1    6 ar 
     3    2    3 ar 
     4    3    4 ar 
     5    4    5 ar 
     6    5    6 ar 
     7    6    7 1  
     8    7    8 1  
     9    8    9 2  
    10    8   10 2  
    11    8   11 am 
    12   11   12 1  
    13   12   13 ar 
    14   12   14 ar 
    15   13   17 ar 
    16   14   15 ar 
    17   15   16 ar 
    18   16   17 ar 
    19   17   18 1  
    20   18   19 2  
    21   18   23 1  
    22   19   20 1  
    23   20   21 1  
    24   21   22 2  
    25   21   23 am 
    26    1   24 1  
    27    2   25 1  
    28    3   26 1  
    29    4   27 1  
    30    5   28 1  
    31    7   29 1  
    32    7   30 1  
    33   11   31 1  
    34   13   32 1  
    35   14   33 1  
    36   15   34 1  
    37   16   35 1  
    38   19   36 1  
    39   23   37 1  
@<TRIPOS>SUBSTRUCTURE
     1 1A3         1

