### 
### Created by X-TOOL on Mon Sep 10 21:13:13 2018
### 

@<TRIPOS>MOLECULE
4hxw_ligand
   49    53     1     0     0
SMALL
GAST_HUCK


@<TRIPOS>ATOM
      1 CL1       -10.2520   -2.0580  -11.6330 Cl        1 1A0        -0.1174
      2 C4        -11.4390   -3.2190  -12.3830 C.2       1 1A0         0.0376
      3 C5        -12.8360   -3.2850  -11.9440 C.2       1 1A0         0.0567
      4 C6        -13.5160   -2.3860  -10.9470 C.3       1 1A0         0.0025
      5 C7        -14.5220   -3.1800  -10.1330 C.3       1 1A0        -0.0522
      6 N1        -13.3700   -4.3050  -12.6490 N.pl3     1 1A0        -0.2613
      7 C3        -11.1370   -4.2570  -13.3710 C.ar      1 1A0         0.0411
      8 C8        -10.0280   -4.8160  -14.2030 C.ar      1 1A0         0.1116
      9 N13        -8.7430   -4.2900  -14.3300 N.pl3     1 1A0        -0.2851
     10 C17        -8.4080   -2.9320  -13.9180 C.3       1 1A0         0.0750
     11 C16        -7.4600   -2.5140  -15.0450 C.3       1 1A0        -0.0013
     12 N18        -8.2050   -1.8840  -16.1230 N.4       1 1A0         0.2223
     13 C15        -6.8560   -3.8070  -15.5810 C.3       1 1A0         0.0129
     14 C14        -7.7370   -4.9760  -15.1360 C.3       1 1A0         0.0377
     15 N9        -10.3350   -5.8590  -14.9960 N.ar      1 1A0        -0.2632
     16 C10       -11.5680   -6.4050  -15.0230 C.ar      1 1A0         0.1398
     17 N11       -12.6020   -5.9440  -14.3050 N.ar      1 1A0        -0.2711
     18 C2        -12.4680   -4.9010  -13.4590 C.ar      1 1A0         0.1239
     19 S19       -11.8630   -7.7780  -15.9510 S.3       1 1A0        -0.0003
     20 C20       -10.6030   -8.1070  -17.0530 C.ar      1 1A0         0.0746
     21 C25        -9.9860   -7.0450  -17.7180 C.ar      1 1A0         0.0393
     22 N24        -9.0010   -7.2200  -18.6120 N.ar      1 1A0        -0.2681
     23 C23        -8.5770   -8.4700  -18.9000 C.ar      1 1A0         0.1407
     24 N26        -7.5850   -8.6720  -19.8070 N.ar      1 1A0        -0.2529
     25 C27        -7.1730   -9.9130  -20.0790 C.ar      1 1A0         0.0460
     26 C28        -7.7580  -11.0140  -19.4530 C.ar      1 1A0         0.0450
     27 N29        -8.7450  -10.8690  -18.5510 N.ar      1 1A0        -0.2651
     28 C22        -9.1980   -9.6380  -18.2290 C.ar      1 1A0         0.0967
     29 C21       -10.2230   -9.4300  -17.3010 C.ar      1 1A0         0.0012
     30 H1        -14.0367   -1.5776  -11.4812 H         1 1A0         0.0465
     31 H2        -12.7620   -1.9537  -10.2727 H         1 1A0         0.0465
     32 H3        -15.0134   -2.5148   -9.4077 H         1 1A0         0.0255
     33 H4        -14.0034   -3.9882   -9.5965 H         1 1A0         0.0255
     34 H5        -15.2781   -3.6121  -10.8050 H         1 1A0         0.0255
     35 H6        -14.3553   -4.5963  -12.5773 H         1 1A0         0.2308
     36 H7         -7.9045   -2.9185  -12.9401 H         1 1A0         0.0583
     37 H8         -9.2998   -2.2891  -13.8802 H         1 1A0         0.0583
     38 H9         -6.6808   -1.8346  -14.6693 H         1 1A0         0.0871
     39 H10        -7.5696   -1.6140  -16.8575 H         1 1A0         0.1997
     40 H11        -8.6786   -1.0667  -15.7712 H         1 1A0         0.1997
     41 H12        -8.8832   -2.5345  -16.4877 H         1 1A0         0.1997
     42 H13        -5.8394   -3.9354  -15.1809 H         1 1A0         0.0341
     43 H14        -6.8157   -3.7701  -16.6796 H         1 1A0         0.0341
     44 H15        -8.1919   -5.4872  -15.9972 H         1 1A0         0.0529
     45 H16        -7.1686   -5.7024  -14.5367 H         1 1A0         0.0529
     46 H17       -10.3173   -6.0356  -17.5025 H         1 1A0         0.0906
     47 H18        -6.3740  -10.0667  -20.7952 H         1 1A0         0.0961
     48 H19        -7.4087  -12.0101  -19.6995 H         1 1A0         0.0955
     49 H20       -10.7032  -10.2596  -16.7948 H         1 1A0         0.0740
@<TRIPOS>BOND
     1    1    2 1  
     2    2    3 2  
     3    2    7 1  
     4    3    4 1  
     5    3    6 1  
     6    4    5 1  
     7    6   18 1  
     8    7    8 ar 
     9    7   18 ar 
    10    8    9 1  
    11    8   15 ar 
    12    9   10 1  
    13    9   14 1  
    14   10   11 1  
    15   11   12 1  
    16   11   13 1  
    17   13   14 1  
    18   15   16 ar 
    19   16   17 ar 
    20   16   19 1  
    21   17   18 ar 
    22   19   20 1  
    23   20   21 ar 
    24   20   29 ar 
    25   21   22 ar 
    26   22   23 ar 
    27   23   24 ar 
    28   23   28 ar 
    29   24   25 ar 
    30   25   26 ar 
    31   26   27 ar 
    32   27   28 ar 
    33   28   29 ar 
    34    4   30 1  
    35    4   31 1  
    36    5   32 1  
    37    5   33 1  
    38    5   34 1  
    39    6   35 1  
    40   10   36 1  
    41   10   37 1  
    42   11   38 1  
    43   12   39 1  
    44   12   40 1  
    45   12   41 1  
    46   13   42 1  
    47   13   43 1  
    48   14   44 1  
    49   14   45 1  
    50   21   46 1  
    51   25   47 1  
    52   26   48 1  
    53   29   49 1  
@<TRIPOS>SUBSTRUCTURE
     1 1A0         1

