### 
### Created by X-TOOL on Mon Sep 10 21:13:16 2018
### 

@<TRIPOS>MOLECULE
4hxz_ligand
   36    38     1     0     0
SMALL
GAST_HUCK


@<TRIPOS>ATOM
      1 O20        15.1290  -36.5950    0.7120 O.2       1 19Y        -0.3898
      2 C19        15.5690  -35.4540    0.8460 C.2       1 19Y         0.0914
      3 C5         14.6590  -34.2730    0.9490 C.2       1 19Y         0.0364
      4 C1         13.1870  -34.2060    0.9360 C.2       1 19Y         0.0714
      5 C21        12.2290  -35.3620    0.8170 C.3       1 19Y         0.0107
      6 C22        10.9600  -34.9380    0.1260 C.3       1 19Y        -0.0499
      7 C4         15.1700  -32.8970    1.1020 C.ar      1 19Y         0.0577
      8 C6         16.4690  -32.2010    1.1940 C.ar      1 19Y         0.1645
      9 O17        17.6620  -32.8740    1.1460 O.3       1 19Y        -0.2982
     10 C18        18.7380  -32.3440    1.9390 C.3       1 19Y         0.0657
     11 N7         16.4440  -30.8460    1.3400 N.ar      1 19Y        -0.2502
     12 C8         15.2970  -30.1030    1.3920 C.ar      1 19Y         0.1447
     13 N9         14.0730  -30.7200    1.3130 N.ar      1 19Y        -0.2652
     14 C3         13.9470  -32.0680    1.1690 C.ar      1 19Y         0.1332
     15 N2         12.8740  -32.8870    1.0730 N.pl3     1 19Y        -0.2504
     16 S10        15.4430  -28.3950    1.5820 S.3       1 19Y        -0.0022
     17 C11        17.0570  -28.0330    2.0300 C.ar      1 19Y         0.0631
     18 C16        17.7570  -28.8550    2.9150 C.ar      1 19Y        -0.0270
     19 C15        19.0740  -28.5170    3.2370 C.ar      1 19Y        -0.0391
     20 C14        19.6830  -27.3870    2.6840 C.ar      1 19Y         0.0046
     21 N13        19.0030  -26.6060    1.8300 N.ar      1 19Y        -0.3030
     22 C12        17.7290  -26.9110    1.5000 C.ar      1 19Y         0.0260
     23 H1         16.6463  -35.3010    0.8906 H         1 19Y         0.1229
     24 H2         11.9847  -35.7326    1.8234 H         1 19Y         0.0497
     25 H3         12.7045  -36.1657    0.2357 H         1 19Y         0.0497
     26 H4         10.2782  -35.7980    0.0515 H         1 19Y         0.0259
     27 H5         11.1973  -34.5698   -0.8830 H         1 19Y         0.0259
     28 H6         10.4775  -34.1366    0.7048 H         1 19Y         0.0259
     29 H7         19.6316  -32.9726    1.8114 H         1 19Y         0.0590
     30 H8         18.4433  -32.3364    2.9987 H         1 19Y         0.0590
     31 H9         18.9624  -31.3175    1.6134 H         1 19Y         0.0590
     32 H10        11.9037  -32.5427    1.1011 H         1 19Y         0.2354
     33 H11        17.2898  -29.7349    3.3424 H         1 19Y         0.0692
     34 H12        19.6319  -29.1406    3.9262 H         1 19Y         0.0694
     35 H13        20.7059  -27.1410    2.9452 H         1 19Y         0.0769
     36 H14        17.2032  -26.2698    0.8019 H         1 19Y         0.0779
@<TRIPOS>BOND
     1    1    2 2  
     2    2    3 1  
     3    3    4 2  
     4    3    7 1  
     5    4    5 1  
     6    4   15 1  
     7    5    6 1  
     8    7    8 ar 
     9    7   14 ar 
    10    8    9 1  
    11    8   11 ar 
    12    9   10 1  
    13   11   12 ar 
    14   12   13 ar 
    15   12   16 1  
    16   13   14 ar 
    17   14   15 1  
    18   16   17 1  
    19   17   18 ar 
    20   17   22 ar 
    21   18   19 ar 
    22   19   20 ar 
    23   20   21 ar 
    24   21   22 ar 
    25    2   23 1  
    26    5   24 1  
    27    5   25 1  
    28    6   26 1  
    29    6   27 1  
    30    6   28 1  
    31   10   29 1  
    32   10   30 1  
    33   10   31 1  
    34   15   32 1  
    35   18   33 1  
    36   19   34 1  
    37   20   35 1  
    38   22   36 1  
@<TRIPOS>SUBSTRUCTURE
     1 19Y         1

