### 
### Created by X-TOOL on Mon Sep 10 21:13:15 2018
### 

@<TRIPOS>MOLECULE
4hy0_ligand
   90    94     1     0     0
SMALL
GAST_HUCK


@<TRIPOS>ATOM
      1 N40        -0.5860    1.0650  -35.5510 N.4       1 1AQ         0.2438
      2 C41        -0.2600   -0.3650  -35.3670 C.3       1 1AQ        -0.0428
      3 C37        -0.8190    1.7640  -34.2770 C.3       1 1AQ         0.0637
      4 C39        -0.8940    3.2770  -34.4810 C.3       1 1AQ        -0.0039
      5 C35        -2.1150    1.2870  -33.6820 C.2       1 1AQ         0.2265
      6 O36        -3.1210    1.2180  -34.3460 O.2       1 1AQ        -0.3907
      7 C30        -3.7440    1.6040  -30.8120 C.2       1 1AQ         0.2070
      8 O31        -2.8940    2.3680  -30.4040 O.2       1 1AQ        -0.3942
      9 C32        -3.2610    0.4440  -31.6520 C.3       1 1AQ         0.1341
     10 N34        -2.1060    0.9380  -32.3920 N.am      1 1AQ        -0.2607
     11 C42        -2.6380   -0.7250  -30.8870 C.3       1 1AQ        -0.0002
     12 C43        -3.2880   -1.1050  -29.5580 C.3       1 1AQ        -0.0406
     13 C44        -2.2940   -2.0640  -28.8800 C.3       1 1AQ         0.0112
     14 C45        -1.9300   -3.2640  -29.7840 C.3       1 1AQ         0.2490
     15 F46        -0.8660   -3.9690  -29.2260 F         1 1AQ        -0.2057
     16 F47        -3.0350   -4.1100  -29.8740 F         1 1AQ        -0.2057
     17 C48        -1.5130   -2.8730  -31.2030 C.3       1 1AQ         0.0112
     18 C49        -2.5900   -1.9630  -31.7900 C.3       1 1AQ        -0.0406
     19 C1        -11.1230   -1.6940  -28.9500 C.3       1 1AQ        -0.0416
     20 C2        -11.4560   -0.2230  -29.2390 C.3       1 1AQ         0.0455
     21 O3        -10.3180    0.6050  -28.9410 O.3       1 1AQ        -0.3714
     22 C4         -9.7770    1.3780  -30.0270 C.3       1 1AQ         0.1034
     23 C6         -8.6680    0.5900  -30.7870 C.3       1 1AQ         0.0235
     24 C7         -7.5250    1.6170  -30.9320 C.3       1 1AQ         0.0030
     25 C9         -6.1410    0.9540  -30.9850 C.3       1 1AQ         0.0798
     26 N10        -5.0520    1.8590  -30.5190 N.am      1 1AQ        -0.2395
     27 C11        -5.3330    3.0550  -29.6980 C.3       1 1AQ         0.1734
     28 C13        -6.7840    3.5530  -29.8050 C.3       1 1AQ         0.0098
     29 N14        -7.6410    2.4010  -29.6760 N.4       1 1AQ         0.2440
     30 C15        -9.0710    2.6360  -29.4700 C.3       1 1AQ        -0.0042
     31 C16        -5.0590    2.7500  -28.2590 C.2       1 1AQ         0.2090
     32 O17        -4.9910    1.5980  -27.8890 O.2       1 1AQ        -0.3942
     33 N18        -4.9000    3.7880  -27.4160 N.am      1 1AQ        -0.2722
     34 C19        -4.6400    3.5980  -25.9890 C.3       1 1AQ         0.0763
     35 C21        -6.0100    3.4290  -25.3180 C.3       1 1AQ         0.0061
     36 C22        -5.9720    3.9200  -23.8650 C.3       1 1AQ         0.0724
     37 O23        -5.5330    5.2810  -23.8350 O.3       1 1AQ        -0.3214
     38 C24        -4.3300    5.5540  -24.4030 C.ar      1 1AQ         0.0950
     39 C25        -3.5870    6.6290  -23.9200 C.ar      1 1AQ        -0.0395
     40 C26        -2.3660    6.9270  -24.4920 C.ar      1 1AQ        -0.0776
     41 C27        -1.8870    6.1510  -25.5380 C.ar      1 1AQ        -0.0796
     42 C28        -2.6220    5.0800  -26.0170 C.ar      1 1AQ        -0.0666
     43 C29        -3.8540    4.7790  -25.4520 C.ar      1 1AQ         0.0114
     44 H1         -1.4188    1.1358  -36.1144 H         1 1AQ         0.2032
     45 H2          0.1814    1.5117  -36.0280 H         1 1AQ         0.2032
     46 H3         -0.0970   -0.8332  -36.3490 H         1 1AQ         0.0777
     47 H4         -1.0933   -0.8681  -34.8548 H         1 1AQ         0.0777
     48 H5          0.6529   -0.4579  -34.7605 H         1 1AQ         0.0777
     49 H6          0.0067    1.5355  -33.5871 H         1 1AQ         0.1096
     50 H7         -1.0684    3.7693  -33.5129 H         1 1AQ         0.0310
     51 H8         -1.7206    3.5140  -35.1670 H         1 1AQ         0.0310
     52 H9          0.0530    3.6366  -34.9099 H         1 1AQ         0.0310
     53 H10        -4.0723    0.0939  -32.3071 H         1 1AQ         0.0803
     54 H11        -1.2414    1.0221  -31.8966 H         1 1AQ         0.1885
     55 H12        -1.6032   -0.4309  -30.6574 H         1 1AQ         0.0348
     56 H13        -4.2516   -1.6070  -29.7298 H         1 1AQ         0.0272
     57 H14        -3.4459   -0.2111  -28.9367 H         1 1AQ         0.0272
     58 H15        -2.7457   -2.4441  -27.9518 H         1 1AQ         0.0323
     59 H16        -1.3746   -1.5097  -28.6402 H         1 1AQ         0.0323
     60 H17        -1.4122   -3.7763  -31.8225 H         1 1AQ         0.0323
     61 H18        -0.5516   -2.3393  -31.1737 H         1 1AQ         0.0323
     62 H19        -2.3277   -1.6754  -32.8188 H         1 1AQ         0.0272
     63 H20        -3.5639   -2.4743  -31.7892 H         1 1AQ         0.0272
     64 H21       -11.9977   -2.3200  -29.1803 H         1 1AQ         0.0252
     65 H22       -10.8595   -1.8086  -27.8882 H         1 1AQ         0.0252
     66 H23       -10.2734   -2.0072  -29.5745 H         1 1AQ         0.0252
     67 H24       -12.3065    0.0878  -28.6145 H         1 1AQ         0.0557
     68 H25       -11.7204   -0.1108  -30.3008 H         1 1AQ         0.0557
     69 H26       -10.5869    1.6596  -30.7160 H         1 1AQ         0.0651
     70 H27        -9.0267    0.2603  -31.7732 H         1 1AQ         0.0348
     71 H28        -8.3389   -0.2838  -30.2055 H         1 1AQ         0.0348
     72 H29        -7.6698    2.2472  -31.8218 H         1 1AQ         0.0872
     73 H30        -5.9321    0.6577  -32.0235 H         1 1AQ         0.0580
     74 H31        -6.1541    0.0601  -30.3442 H         1 1AQ         0.0580
     75 H32        -4.6638    3.8619  -30.0312 H         1 1AQ         0.0857
     76 H33        -6.9458    4.0357  -30.7801 H         1 1AQ         0.0864
     77 H34        -6.9959    4.2722  -29.0001 H         1 1AQ         0.0864
     78 H35        -7.3032    1.8556  -28.8985 H         1 1AQ         0.2040
     79 H36        -9.2907    2.7585  -28.3992 H         1 1AQ         0.0840
     80 H37        -9.3963    3.5337  -30.0162 H         1 1AQ         0.0840
     81 H38        -4.9616    4.7185  -27.7770 H         1 1AQ         0.1878
     82 H39        -4.0471    2.6843  -25.8350 H         1 1AQ         0.0696
     83 H40        -6.2889    2.3650  -25.3314 H         1 1AQ         0.0333
     84 H41        -6.7584    4.0113  -25.8755 H         1 1AQ         0.0333
     85 H42        -5.2754    3.2968  -23.2851 H         1 1AQ         0.0613
     86 H43        -6.9787    3.8494  -23.4272 H         1 1AQ         0.0613
     87 H44        -3.9653    7.2282  -23.0997 H         1 1AQ         0.0521
     88 H45        -1.7836    7.7644  -24.1251 H         1 1AQ         0.0531
     89 H46        -0.9276    6.3858  -25.9846 H         1 1AQ         0.0505
     90 H47        -2.2364    4.4776  -26.8316 H         1 1AQ         0.0526
@<TRIPOS>BOND
     1    1    2 1  
     2    3    1 1  
     3    3    4 1  
     4    5    3 1  
     5    5    6 2  
     6   10    5 am 
     7    7    8 2  
     8    7    9 1  
     9   26    7 am 
    10    9   10 1  
    11    9   11 1  
    12   11   12 1  
    13   11   18 1  
    14   12   13 1  
    15   13   14 1  
    16   14   15 1  
    17   14   16 1  
    18   17   14 1  
    19   18   17 1  
    20   20   19 1  
    21   21   20 1  
    22   22   21 1  
    23   23   22 1  
    24   22   30 1  
    25   24   23 1  
    26   25   24 1  
    27   24   29 1  
    28   25   26 1  
    29   26   27 1  
    30   27   28 1  
    31   27   31 1  
    32   28   29 1  
    33   29   30 1  
    34   31   32 2  
    35   31   33 am 
    36   33   34 1  
    37   34   35 1  
    38   34   43 1  
    39   35   36 1  
    40   36   37 1  
    41   37   38 1  
    42   38   39 ar 
    43   38   43 ar 
    44   39   40 ar 
    45   40   41 ar 
    46   41   42 ar 
    47   42   43 ar 
    48    1   44 1  
    49    1   45 1  
    50    2   46 1  
    51    2   47 1  
    52    2   48 1  
    53    3   49 1  
    54    4   50 1  
    55    4   51 1  
    56    4   52 1  
    57    9   53 1  
    58   10   54 1  
    59   11   55 1  
    60   12   56 1  
    61   12   57 1  
    62   13   58 1  
    63   13   59 1  
    64   17   60 1  
    65   17   61 1  
    66   18   62 1  
    67   18   63 1  
    68   19   64 1  
    69   19   65 1  
    70   19   66 1  
    71   20   67 1  
    72   20   68 1  
    73   22   69 1  
    74   23   70 1  
    75   23   71 1  
    76   24   72 1  
    77   25   73 1  
    78   25   74 1  
    79   27   75 1  
    80   28   76 1  
    81   28   77 1  
    82   29   78 1  
    83   30   79 1  
    84   30   80 1  
    85   33   81 1  
    86   34   82 1  
    87   35   83 1  
    88   35   84 1  
    89   36   85 1  
    90   36   86 1  
    91   39   87 1  
    92   40   88 1  
    93   41   89 1  
    94   42   90 1  
@<TRIPOS>SUBSTRUCTURE
     1 1AQ         1

