### 
### Created by X-TOOL on Mon Sep 10 21:13:16 2018
### 

@<TRIPOS>MOLECULE
4hy1_ligand
   51    55     1     0     0
SMALL
GAST_HUCK


@<TRIPOS>ATOM
      1 O29         6.3450    0.7690  -16.4740 O.2       1 19X        -0.3884
      2 C28         5.9950    0.1290  -15.4050 C.2       1 19X         0.2006
      3 C22         6.8420    0.2250  -14.2080 C.ar      1 19X         0.0482
      4 C21         7.9980    0.8980  -13.8910 C.ar      1 19X        -0.0335
      5 N27         4.8920   -0.6610  -15.2490 N.am      1 19X        -0.2760
      6 C26         4.8810   -1.1760  -13.8540 C.3       1 19X         0.0646
      7 C23         6.0970   -0.6130  -13.2650 C.ar      1 19X        -0.0067
      8 C24         6.5800   -0.7570  -11.9760 C.ar      1 19X        -0.0574
      9 C25         7.7890   -0.1010  -11.6700 C.ar      1 19X        -0.0489
     10 C20         8.4670    0.7250  -12.5780 C.ar      1 19X         0.0335
     11 S19         9.9350    1.4790  -12.1750 S.3       1 19X        -0.0161
     12 C10         9.9650    1.9110  -10.5260 C.ar      1 19X         0.1365
     13 N11        11.1870    2.1850  -10.0260 N.ar      1 19X        -0.2716
     14 C2         11.3350    2.6630   -8.7910 C.ar      1 19X         0.1237
     15 N9          8.8180    2.0220   -9.8440 N.ar      1 19X        -0.2636
     16 C8          8.7810    2.4430   -8.5690 C.ar      1 19X         0.1115
     17 N13         7.5780    2.3260   -7.9160 N.pl3     1 19X        -0.2851
     18 C17         7.4690    2.2020   -6.4470 C.3       1 19X         0.0750
     19 C16         6.3140    1.2200   -6.2490 C.3       1 19X        -0.0013
     20 N18         6.7730   -0.1890   -6.1170 N.4       1 19X         0.2223
     21 C15         5.5230    1.3420   -7.5520 C.3       1 19X         0.0129
     22 C14         6.3900    1.9410   -8.6530 C.3       1 19X         0.0377
     23 C3         10.1020    2.7920   -7.9820 C.ar      1 19X         0.0409
     24 C4         10.7170    3.3170   -6.7770 C.2       1 19X         0.0375
     25 CL1         9.8360    3.9240   -5.3390 Cl        1 19X        -0.1174
     26 C5         12.1690    3.4810   -6.8740 C.2       1 19X         0.0566
     27 N1         12.4370    3.0660   -8.1140 N.pl3     1 19X        -0.2614
     28 C6         13.1050    3.9350   -5.7600 C.3       1 19X         0.0025
     29 C7         14.0900    4.9790   -6.2470 C.3       1 19X        -0.0522
     30 H1          8.5155    1.5233  -14.6095 H         1 19X         0.0603
     31 H2          4.2090   -0.8591  -15.9521 H         1 19X         0.1869
     32 H3          4.9124   -2.2755  -13.8418 H         1 19X         0.0684
     33 H4          3.9873   -0.8286  -13.3149 H         1 19X         0.0684
     34 H5          6.0524   -1.3474  -11.2357 H         1 19X         0.0554
     35 H6          8.2162   -0.2419  -10.6837 H         1 19X         0.0591
     36 H7          7.2395    3.1747   -5.9875 H         1 19X         0.0583
     37 H8          8.3999    1.8039   -6.0171 H         1 19X         0.0583
     38 H9          5.7077    1.4998   -5.3749 H         1 19X         0.0871
     39 H10         5.9752   -0.7917   -5.9891 H         1 19X         0.1997
     40 H11         7.3860   -0.2695   -5.3209 H         1 19X         0.1997
     41 H12         7.2688   -0.4605   -6.9516 H         1 19X         0.1997
     42 H13         4.6507    1.9911   -7.3857 H         1 19X         0.0341
     43 H14         5.1829    0.3432   -7.8631 H         1 19X         0.0341
     44 H15         6.6232    1.1970   -9.4289 H         1 19X         0.0529
     45 H16         5.9048    2.8133   -9.1153 H         1 19X         0.0529
     46 H17        13.3855    3.0534   -8.5154 H         1 19X         0.2308
     47 H18        13.6639    3.0642   -5.3867 H         1 19X         0.0464
     48 H19        12.5057    4.3637   -4.9433 H         1 19X         0.0464
     49 H20        14.7457    5.2800   -5.4167 H         1 19X         0.0255
     50 H21        13.5406    5.8571   -6.6171 H         1 19X         0.0255
     51 H22        14.6987    4.5576   -7.0606 H         1 19X         0.0255
@<TRIPOS>BOND
     1    1    2 2  
     2    2    3 1  
     3    2    5 am 
     4    3    4 ar 
     5    3    7 ar 
     6    4   10 ar 
     7    5    6 1  
     8    6    7 1  
     9    7    8 ar 
    10    8    9 ar 
    11    9   10 ar 
    12   10   11 1  
    13   11   12 1  
    14   12   13 ar 
    15   12   15 ar 
    16   13   14 ar 
    17   14   23 ar 
    18   14   27 1  
    19   15   16 ar 
    20   16   17 1  
    21   16   23 ar 
    22   17   18 1  
    23   17   22 1  
    24   18   19 1  
    25   19   20 1  
    26   19   21 1  
    27   21   22 1  
    28   23   24 1  
    29   24   25 1  
    30   24   26 2  
    31   26   27 1  
    32   26   28 1  
    33   28   29 1  
    34    4   30 1  
    35    5   31 1  
    36    6   32 1  
    37    6   33 1  
    38    8   34 1  
    39    9   35 1  
    40   18   36 1  
    41   18   37 1  
    42   19   38 1  
    43   20   39 1  
    44   20   40 1  
    45   20   41 1  
    46   21   42 1  
    47   21   43 1  
    48   22   44 1  
    49   22   45 1  
    50   27   46 1  
    51   28   47 1  
    52   28   48 1  
    53   29   49 1  
    54   29   50 1  
    55   29   51 1  
@<TRIPOS>SUBSTRUCTURE
     1 19X         1

