### 
### Created by X-TOOL on Mon Sep 10 21:13:12 2018
### 

@<TRIPOS>MOLECULE
4hy4_ligand
   85    89     1     0     0
SMALL
GAST_HUCK


@<TRIPOS>ATOM
      1 N2         23.0060   -4.6830   -9.6420 N.4       1 1BG         0.2438
      2 C1         24.4500   -4.5360   -9.3930 C.3       1 1BG        -0.0428
      3 C3         22.6160   -6.0490  -10.0410 C.3       1 1BG         0.0637
      4 C5         21.0900   -6.1960   -9.9970 C.3       1 1BG        -0.0039
      5 C6         23.1040   -6.3560  -11.4330 C.2       1 1BG         0.2265
      6 O7         23.4170   -5.4390  -12.1780 O.2       1 1BG        -0.3907
      7 N8         23.2020   -7.6530  -11.7760 N.am      1 1BG        -0.2607
      8 C9         23.6430   -8.0910  -13.1150 C.3       1 1BG         0.1341
      9 C17        22.5430   -8.9690  -13.6820 C.2       1 1BG         0.2070
     10 O18        21.7110   -9.4540  -12.9200 O.2       1 1BG        -0.3942
     11 C11        24.9740   -8.8740  -13.0600 C.3       1 1BG        -0.0006
     12 C16        24.8230  -10.2130  -12.3080 C.3       1 1BG        -0.0460
     13 C15        26.1630  -10.9650  -12.2280 C.3       1 1BG        -0.0526
     14 C14        27.1990  -10.0520  -11.5750 C.3       1 1BG        -0.0530
     15 C13        27.4120   -8.7920  -12.4230 C.3       1 1BG        -0.0526
     16 C12        26.0910   -8.0110  -12.4420 C.3       1 1BG        -0.0460
     17 N19        22.4860   -9.2290  -15.0130 N.am      1 1BG        -0.2395
     18 C20        23.5460   -8.7630  -15.9540 C.3       1 1BG         0.0797
     19 C21        22.9340   -8.4860  -17.3150 C.3       1 1BG         0.0005
     20 C23        23.9490   -8.3130  -18.4460 C.3       1 1BG        -0.0030
     21 C24        23.1000   -8.5750  -19.7130 C.3       1 1BG        -0.0074
     22 C25        21.8510   -9.3310  -19.1900 C.3       1 1BG        -0.0311
     23 N26        22.1650   -9.6680  -17.7820 N.4       1 1BG         0.2422
     24 C27        20.9950   -9.9020  -16.9530 C.3       1 1BG         0.0097
     25 C28        21.4480  -10.1490  -15.4810 C.3       1 1BG         0.1734
     26 C30        21.9500  -11.5540  -15.2250 C.2       1 1BG         0.2091
     27 O31        23.1370  -11.8080  -15.0190 O.2       1 1BG        -0.3942
     28 N32        20.9970  -12.5070  -15.1740 N.am      1 1BG        -0.2717
     29 C33        21.2820  -13.9160  -14.8930 C.3       1 1BG         0.0733
     30 C34        21.7370  -14.6430  -16.1710 C.3       1 1BG        -0.0193
     31 C35        20.5390  -15.1450  -16.9800 C.3       1 1BG        -0.0405
     32 C36        19.7640  -16.1770  -16.1430 C.3       1 1BG        -0.0213
     33 C37        19.3520  -15.5670  -14.8110 C.ar      1 1BG        -0.0388
     34 C38        18.2380  -16.0930  -14.1550 C.ar      1 1BG        -0.0668
     35 C39        17.8210  -15.5670  -12.9410 C.ar      1 1BG        -0.0755
     36 C40        18.5230  -14.5010  -12.3800 C.ar      1 1BG        -0.0754
     37 C41        19.6350  -13.9820  -13.0230 C.ar      1 1BG        -0.0647
     38 C42        20.0650  -14.5250  -14.2370 C.ar      1 1BG        -0.0160
     39 H1         22.7425   -4.0475  -10.3787 H         1 1BG         0.2032
     40 H2         22.5102   -4.4430   -8.7979 H         1 1BG         0.2032
     41 H3         24.6679   -3.4980   -9.1013 H         1 1BG         0.0777
     42 H4         25.0071   -4.7843  -10.3084 H         1 1BG         0.0777
     43 H5         24.7535   -5.2158   -8.5832 H         1 1BG         0.0777
     44 H6         23.0665   -6.7654   -9.3383 H         1 1BG         0.1096
     45 H7         20.8113   -7.2172  -10.2960 H         1 1BG         0.0310
     46 H8         20.6319   -5.4736  -10.6885 H         1 1BG         0.0310
     47 H9         20.7323   -6.0028   -8.9749 H         1 1BG         0.0310
     48 H10        22.9667   -8.3483  -11.0968 H         1 1BG         0.1885
     49 H11        23.7802   -7.2091  -13.7580 H         1 1BG         0.0803
     50 H12        25.2652   -9.1070  -14.0948 H         1 1BG         0.0348
     51 H13        24.0913  -10.8407  -12.8377 H         1 1BG         0.0270
     52 H14        24.4636  -10.0123  -11.2879 H         1 1BG         0.0270
     53 H15        26.4956  -11.2374  -13.2405 H         1 1BG         0.0265
     54 H16        26.0404  -11.8766  -11.6247 H         1 1BG         0.0265
     55 H17        28.1525  -10.5928  -11.4839 H         1 1BG         0.0265
     56 H18        26.8458   -9.7602  -10.5749 H         1 1BG         0.0265
     57 H19        27.6948   -9.0740  -13.4479 H         1 1BG         0.0265
     58 H20        28.2064   -8.1730  -11.9806 H         1 1BG         0.0265
     59 H21        25.8139   -7.7400  -11.4126 H         1 1BG         0.0270
     60 H22        26.2176   -7.0968  -13.0404 H         1 1BG         0.0270
     61 H23        24.3171   -9.5415  -16.0512 H         1 1BG         0.0580
     62 H24        24.0024   -7.8414  -15.5637 H         1 1BG         0.0580
     63 H25        22.2914   -7.5965  -17.2383 H         1 1BG         0.0871
     64 H26        24.7669   -9.0434  -18.3593 H         1 1BG         0.0322
     65 H27        24.3656   -7.2950  -18.4520 H         1 1BG         0.0322
     66 H28        23.6559   -9.1932  -20.4333 H         1 1BG         0.0319
     67 H29        22.8099   -7.6273  -20.1902 H         1 1BG         0.0319
     68 H30        21.6793  -10.2454  -19.7768 H         1 1BG         0.0814
     69 H31        20.9600   -8.6882  -19.2436 H         1 1BG         0.0814
     70 H32        22.7415  -10.4943  -17.7506 H         1 1BG         0.2039
     71 H33        20.4525  -10.7842  -17.3235 H         1 1BG         0.0864
     72 H34        20.3352   -9.0227  -16.9918 H         1 1BG         0.0864
     73 H35        20.5580   -9.9931  -14.8536 H         1 1BG         0.0857
     74 H36        20.0476  -12.2380  -15.3363 H         1 1BG         0.1880
     75 H37        22.1125  -13.9671  -14.1735 H         1 1BG         0.0704
     76 H38        22.3654  -15.5013  -15.8909 H         1 1BG         0.0309
     77 H39        22.3217  -13.9471  -16.7905 H         1 1BG         0.0309
     78 H40        20.8929  -15.6153  -17.9092 H         1 1BG         0.0288
     79 H41        19.8795  -14.2994  -17.2251 H         1 1BG         0.0288
     80 H42        20.4050  -17.0519  -15.9597 H         1 1BG         0.0411
     81 H43        18.8646  -16.4902  -16.6934 H         1 1BG         0.0411
     82 H44        17.6941  -16.9195  -14.5979 H         1 1BG         0.0537
     83 H45        16.9574  -15.9809  -12.4332 H         1 1BG         0.0541
     84 H46        18.1975  -14.0767  -11.4371 H         1 1BG         0.0541
     85 H47        20.1740  -13.1510  -12.5826 H         1 1BG         0.0538
@<TRIPOS>BOND
     1    1    2 1  
     2    1    3 1  
     3    3    4 1  
     4    3    5 1  
     5    5    6 2  
     6    5    7 am 
     7    7    8 1  
     8    8    9 1  
     9    8   11 1  
    10    9   10 2  
    11    9   17 am 
    12   11   12 1  
    13   11   16 1  
    14   12   13 1  
    15   13   14 1  
    16   14   15 1  
    17   15   16 1  
    18   17   18 1  
    19   17   25 1  
    20   18   19 1  
    21   19   20 1  
    22   19   23 1  
    23   20   21 1  
    24   21   22 1  
    25   22   23 1  
    26   23   24 1  
    27   24   25 1  
    28   25   26 1  
    29   26   27 2  
    30   26   28 am 
    31   28   29 1  
    32   29   30 1  
    33   29   38 1  
    34   30   31 1  
    35   31   32 1  
    36   32   33 1  
    37   33   34 ar 
    38   33   38 ar 
    39   34   35 ar 
    40   35   36 ar 
    41   36   37 ar 
    42   37   38 ar 
    43    1   39 1  
    44    1   40 1  
    45    2   41 1  
    46    2   42 1  
    47    2   43 1  
    48    3   44 1  
    49    4   45 1  
    50    4   46 1  
    51    4   47 1  
    52    7   48 1  
    53    8   49 1  
    54   11   50 1  
    55   12   51 1  
    56   12   52 1  
    57   13   53 1  
    58   13   54 1  
    59   14   55 1  
    60   14   56 1  
    61   15   57 1  
    62   15   58 1  
    63   16   59 1  
    64   16   60 1  
    65   18   61 1  
    66   18   62 1  
    67   19   63 1  
    68   20   64 1  
    69   20   65 1  
    70   21   66 1  
    71   21   67 1  
    72   22   68 1  
    73   22   69 1  
    74   23   70 1  
    75   24   71 1  
    76   24   72 1  
    77   25   73 1  
    78   28   74 1  
    79   29   75 1  
    80   30   76 1  
    81   30   77 1  
    82   31   78 1  
    83   31   79 1  
    84   32   80 1  
    85   32   81 1  
    86   34   82 1  
    87   35   83 1  
    88   36   84 1  
    89   37   85 1  
@<TRIPOS>SUBSTRUCTURE
     1 1BG         1

