### 
### Created by X-TOOL on Mon Sep 10 21:13:13 2018
### 

@<TRIPOS>MOLECULE
4hy5_ligand
   90    94     1     0     0
SMALL
GAST_HUCK


@<TRIPOS>ATOM
      1 N40         3.1210   26.6040   19.4830 N.4       1 1AQ         0.2438
      2 C41         3.5990   27.8840   18.9130 C.3       1 1AQ        -0.0428
      3 C37         4.0020   26.0860   20.5640 C.3       1 1AQ         0.0637
      4 C39         3.2960   24.9910   21.3860 C.3       1 1AQ        -0.0039
      5 C35         5.2990   25.5280   20.0120 C.2       1 1AQ         0.2265
      6 O36         5.3560   25.0490   18.9000 O.2       1 1AQ        -0.3907
      7 C30         8.1060   24.0310   21.3520 C.2       1 1AQ         0.2070
      8 O31         7.6090   24.0900   22.4630 O.2       1 1AQ        -0.3942
      9 C32         7.6910   25.0470   20.3280 C.3       1 1AQ         0.1341
     10 N34         6.4060   25.5720   20.7770 N.am      1 1AQ        -0.2607
     11 C42         8.7420   26.1470   20.1650 C.3       1 1AQ        -0.0002
     12 C43         8.2600   27.1320   19.0860 C.3       1 1AQ        -0.0406
     13 C44         9.3570   28.1770   18.8390 C.3       1 1AQ         0.0112
     14 C45         9.7230   28.9110   20.1450 C.3       1 1AQ         0.2490
     15 F46        10.8290   29.7360   19.8860 F         1 1AQ        -0.2057
     16 F47         8.6290   29.6970   20.5400 F         1 1AQ        -0.2057
     17 C48        10.0890   27.9400   21.2870 C.3       1 1AQ         0.0112
     18 C49         8.9790   26.8930   21.4960 C.3       1 1AQ        -0.0406
     19 C1         15.3090   19.2410   17.8120 C.3       1 1AQ        -0.0416
     20 C2         13.7840   19.1020   17.7230 C.3       1 1AQ         0.0455
     21 O3         13.1610   20.1560   18.4630 O.3       1 1AQ        -0.3714
     22 C4         11.7360   20.1060   18.5150 C.3       1 1AQ         0.1034
     23 C6         11.1330   21.5180   18.2980 C.3       1 1AQ         0.0235
     24 C7         10.0290   21.5650   19.3790 C.3       1 1AQ         0.0030
     25 C9          9.6560   22.9970   19.7350 C.3       1 1AQ         0.0798
     26 N10         8.9900   23.0520   21.0650 N.am      1 1AQ        -0.2395
     27 C11         9.3350   22.1220   22.1490 C.3       1 1AQ         0.1734
     28 C13         9.8580   20.7550   21.6620 C.3       1 1AQ         0.0098
     29 N14        10.7330   20.9420   20.5220 N.4       1 1AQ         0.2440
     30 C15        11.2710   19.7080   19.9400 C.3       1 1AQ        -0.0042
     31 C16        10.3480   22.7750   23.0510 C.2       1 1AQ         0.2090
     32 O17        10.9930   23.7260   22.6430 O.2       1 1AQ        -0.3942
     33 N18        10.4920   22.3040   24.3040 N.am      1 1AQ        -0.2722
     34 C19        11.4170   22.8940   25.2740 C.3       1 1AQ         0.0763
     35 C21        12.8390   22.3410   25.0930 C.3       1 1AQ         0.0061
     36 C22        13.0870   21.0870   25.9500 C.3       1 1AQ         0.0724
     37 O23        12.7990   21.4060   27.3230 O.3       1 1AQ        -0.3214
     38 C24        11.5600   21.9020   27.5990 C.ar      1 1AQ         0.0950
     39 C25        11.0080   21.6700   28.8630 C.ar      1 1AQ        -0.0395
     40 C26         9.7420   22.1550   29.1520 C.ar      1 1AQ        -0.0776
     41 C27         9.0350   22.8760   28.1940 C.ar      1 1AQ        -0.0796
     42 C28         9.5810   23.1100   26.9440 C.ar      1 1AQ        -0.0666
     43 C29        10.8480   22.6220   26.6510 C.ar      1 1AQ         0.0114
     44 H1          3.0807   25.9186   18.7450 H         1 1AQ         0.2032
     45 H2          2.1974   26.7454   19.8611 H         1 1AQ         0.2032
     46 H3          2.9088   28.2138   18.1225 H         1 1AQ         0.0777
     47 H4          4.6036   27.7435   18.4875 H         1 1AQ         0.0777
     48 H5          3.6397   28.6458   19.7054 H         1 1AQ         0.0777
     49 H6          4.2428   26.9240   21.2347 H         1 1AQ         0.1096
     50 H7          3.9730   24.6306   22.1745 H         1 1AQ         0.0310
     51 H8          3.0244   24.1544   20.7255 H         1 1AQ         0.0310
     52 H9          2.3866   25.4060   21.8450 H         1 1AQ         0.0310
     53 H10         7.5600   24.5515   19.3547 H         1 1AQ         0.0803
     54 H11         6.3451   25.9802   21.6879 H         1 1AQ         0.1885
     55 H12         9.6898   25.6917   19.8421 H         1 1AQ         0.0348
     56 H13         7.3427   27.6338   19.4277 H         1 1AQ         0.0272
     57 H14         8.0538   26.5861   18.1536 H         1 1AQ         0.0272
     58 H15         8.9964   28.9104   18.1028 H         1 1AQ         0.0323
     59 H16        10.2524   27.6731   18.4462 H         1 1AQ         0.0323
     60 H17        10.2238   28.5122   22.2167 H         1 1AQ         0.0323
     61 H18        11.0272   27.4244   21.0344 H         1 1AQ         0.0323
     62 H19         9.2878   26.1766   22.2715 H         1 1AQ         0.0272
     63 H20         8.0515   27.3949   21.8088 H         1 1AQ         0.0272
     64 H21        15.7850   18.4294   17.2422 H         1 1AQ         0.0252
     65 H22        15.6218   19.1821   18.8649 H         1 1AQ         0.0252
     66 H23        15.6139   20.2111   17.3926 H         1 1AQ         0.0252
     67 H24        13.4800   18.1315   18.1421 H         1 1AQ         0.0557
     68 H25        13.4721   19.1605   16.6698 H         1 1AQ         0.0557
     69 H26        11.3595   19.3969   17.7630 H         1 1AQ         0.0651
     70 H27        10.7085   21.6206   17.2884 H         1 1AQ         0.0348
     71 H28        11.8856   22.3035   18.4609 H         1 1AQ         0.0348
     72 H29         9.1339   21.0006   19.0787 H         1 1AQ         0.0872
     73 H30         8.9701   23.3921   18.9711 H         1 1AQ         0.0580
     74 H31        10.5679   23.6116   19.7621 H         1 1AQ         0.0580
     75 H32         8.4207   21.9356   22.7315 H         1 1AQ         0.0857
     76 H33         9.0075   20.1217   21.3695 H         1 1AQ         0.0864
     77 H34        10.4162   20.2670   22.4746 H         1 1AQ         0.0864
     78 H35        11.4959   21.5305   20.8182 H         1 1AQ         0.2040
     79 H36        12.1194   19.3381   20.5344 H         1 1AQ         0.0840
     80 H37        10.4924   18.9326   19.8902 H         1 1AQ         0.0840
     81 H38         9.9432   21.5166   24.5847 H         1 1AQ         0.1878
     82 H39        11.4555   23.9821   25.1173 H         1 1AQ         0.0696
     83 H40        13.5612   23.1179   25.3842 H         1 1AQ         0.0333
     84 H41        12.9864   22.0816   24.0342 H         1 1AQ         0.0333
     85 H42        14.1373   20.7745   25.8545 H         1 1AQ         0.0613
     86 H43        12.4298   20.2718   25.6131 H         1 1AQ         0.0613
     87 H44        11.5651   21.1160   29.6098 H         1 1AQ         0.0521
     88 H45         9.3019   21.9725   30.1257 H         1 1AQ         0.0531
     89 H46         8.0480   23.2576   28.4291 H         1 1AQ         0.0505
     90 H47         9.0248   23.6691   26.2003 H         1 1AQ         0.0526
@<TRIPOS>BOND
     1    1    2 1  
     2    3    1 1  
     3    3    4 1  
     4    5    3 1  
     5    5    6 2  
     6   10    5 am 
     7    7    8 2  
     8    7    9 1  
     9   26    7 am 
    10    9   10 1  
    11    9   11 1  
    12   11   12 1  
    13   11   18 1  
    14   12   13 1  
    15   13   14 1  
    16   14   15 1  
    17   14   16 1  
    18   17   14 1  
    19   18   17 1  
    20   20   19 1  
    21   21   20 1  
    22   22   21 1  
    23   23   22 1  
    24   22   30 1  
    25   24   23 1  
    26   25   24 1  
    27   24   29 1  
    28   25   26 1  
    29   26   27 1  
    30   27   28 1  
    31   27   31 1  
    32   28   29 1  
    33   29   30 1  
    34   31   32 2  
    35   31   33 am 
    36   33   34 1  
    37   34   35 1  
    38   34   43 1  
    39   35   36 1  
    40   36   37 1  
    41   37   38 1  
    42   38   39 ar 
    43   38   43 ar 
    44   39   40 ar 
    45   40   41 ar 
    46   41   42 ar 
    47   42   43 ar 
    48    1   44 1  
    49    1   45 1  
    50    2   46 1  
    51    2   47 1  
    52    2   48 1  
    53    3   49 1  
    54    4   50 1  
    55    4   51 1  
    56    4   52 1  
    57    9   53 1  
    58   10   54 1  
    59   11   55 1  
    60   12   56 1  
    61   12   57 1  
    62   13   58 1  
    63   13   59 1  
    64   17   60 1  
    65   17   61 1  
    66   18   62 1  
    67   18   63 1  
    68   19   64 1  
    69   19   65 1  
    70   19   66 1  
    71   20   67 1  
    72   20   68 1  
    73   22   69 1  
    74   23   70 1  
    75   23   71 1  
    76   24   72 1  
    77   25   73 1  
    78   25   74 1  
    79   27   75 1  
    80   28   76 1  
    81   28   77 1  
    82   29   78 1  
    83   30   79 1  
    84   30   80 1  
    85   33   81 1  
    86   34   82 1  
    87   35   83 1  
    88   35   84 1  
    89   36   85 1  
    90   36   86 1  
    91   39   87 1  
    92   40   88 1  
    93   41   89 1  
    94   42   90 1  
@<TRIPOS>SUBSTRUCTURE
     1 1AQ         1

