### 
### Created by X-TOOL on Mon Sep 10 21:13:15 2018
### 

@<TRIPOS>MOLECULE
4hyf_ligand
   53    57     1     0     0
SMALL
GAST_HUCK


@<TRIPOS>ATOM
      1 CL1       -13.4920   66.7210   16.2410 Cl        1 1AK        -0.0741
      2 C01       -14.0070   69.3450   16.3350 C.ar      1 1AK        -0.0520
      3 C02       -14.8450   70.4940   16.6490 C.ar      1 1AK        -0.0682
      4 C03       -16.1140   70.2990   17.2320 C.ar      1 1AK        -0.0658
      5 C04       -16.5610   69.0300   17.5020 C.ar      1 1AK        -0.0264
      6 C05       -15.7320   67.9010   17.1900 C.ar      1 1AK         0.1168
      7 C06       -14.4590   68.0860   16.6060 C.ar      1 1AK         0.0743
      8 N08       -16.2080   66.5160   17.4800 N.pl3     1 1AK        -0.1649
      9 C09       -16.6210   65.5700   16.5530 C.2       1 1AK         0.1966
     10 N10       -16.9710   64.4440   17.2260 N.2       1 1AK        -0.2333
     11 N11       -16.7740   64.6530   18.5620 N.2       1 1AK        -0.2367
     12 C12       -16.3090   65.9040   18.7380 C.2       1 1AK         0.1750
     13 C13       -15.9800   66.5110   20.0780 C.2       1 1AK         0.0109
     14 C14       -16.4030   65.9100   21.1840 C.2       1 1AK         0.0181
     15 C15       -16.2410   66.5870   22.4970 C.2       1 1AK         0.2186
     16 N16       -16.5550   66.0940   23.7120 N.2       1 1AK        -0.2232
     17 N17       -16.2420   67.0490   24.6540 N.2       1 1AK        -0.2202
     18 C18       -15.7400   68.1110   24.0130 C.2       1 1AK         0.2292
     19 C19       -15.2570   69.4070   24.6330 C.ar      1 1AK         0.0539
     20 C20       -15.0710   69.5070   25.9950 C.ar      1 1AK        -0.0343
     21 C21       -14.6200   70.7310   26.5500 C.ar      1 1AK        -0.0241
     22 C22       -14.3630   71.8200   25.7260 C.ar      1 1AK         0.0969
     23 C23       -14.5440   71.7200   24.3810 C.ar      1 1AK        -0.0241
     24 C24       -14.9970   70.4980   23.8150 C.ar      1 1AK        -0.0343
     25 C25       -13.8860   73.1100   26.3140 C.1       1 1AK         0.1007
     26 N26       -13.5270   74.0850   26.7580 N.1       1 1AK        -0.3286
     27 O27       -15.7350   67.8360   22.6700 O.3       1 1AK        -0.1916
     28 C28       -16.7190   65.7260   15.0110 C.ar      1 1AK         0.1065
     29 C29       -17.6010   66.6180   14.5170 C.ar      1 1AK        -0.0172
     30 C30       -17.7120   66.7600   13.1090 C.ar      1 1AK        -0.0145
     31 C31       -16.9210   65.9720   12.3150 C.ar      1 1AK         0.1171
     32 C32       -16.0570   65.0770   12.8700 C.ar      1 1AK         0.0377
     33 N33       -15.9630   64.9630   14.2090 N.ar      1 1AK        -0.2816
     34 S34       -17.0470   66.1190   10.5480 S.o2      1 1AK         0.0006
     35 O35       -18.3820   66.6000   10.1600 O.2       1 1AK        -0.1684
     36 O36       -17.0260   64.8500    9.9510 O.2       1 1AK        -0.1684
     37 C37       -15.7660   67.1630    9.8560 C.3       1 1AK         0.0608
     38 H1        -13.0297   69.4889   15.8885 H         1 1AK         0.0605
     39 H2        -14.4939   71.4970   16.4350 H         1 1AK         0.0557
     40 H3        -16.7379   71.1536   17.4675 H         1 1AK         0.0601
     41 H4        -17.5370   68.8809   17.9495 H         1 1AK         0.0584
     42 H5        -15.4020   67.4320   20.1384 H         1 1AK         0.0748
     43 H6        -16.8663   64.9260   21.1291 H         1 1AK         0.0735
     44 H7        -15.2681   68.6561   26.6370 H         1 1AK         0.0675
     45 H8        -14.4751   70.8177   27.6208 H         1 1AK         0.0720
     46 H9        -14.3427   72.5721   23.7418 H         1 1AK         0.0720
     47 H10       -15.1397   70.4176   22.7434 H         1 1AK         0.0675
     48 H11       -18.2137   67.2154   15.1824 H         1 1AK         0.0742
     49 H12       -18.4036   67.4724   12.6739 H         1 1AK         0.0759
     50 H13       -15.4421   64.4535   12.2311 H         1 1AK         0.0854
     51 H14       -15.8894   67.2200    8.7644 H         1 1AK         0.0469
     52 H15       -14.7793   66.7378   10.0917 H         1 1AK         0.0469
     53 H16       -15.8428   68.1722   10.2869 H         1 1AK         0.0469
@<TRIPOS>BOND
     1    7    1 1  
     2    2    3 ar 
     3    2    7 ar 
     4    3    4 ar 
     5    4    5 ar 
     6    5    6 ar 
     7    6    7 ar 
     8    6    8 1  
     9    8    9 1  
    10    8   12 1  
    11    9   10 2  
    12    9   28 1  
    13   10   11 1  
    14   11   12 2  
    15   12   13 1  
    16   13   14 2  
    17   14   15 1  
    18   15   16 2  
    19   15   27 1  
    20   16   17 1  
    21   17   18 2  
    22   18   19 1  
    23   18   27 1  
    24   19   20 ar 
    25   19   24 ar 
    26   20   21 ar 
    27   21   22 ar 
    28   22   23 ar 
    29   22   25 1  
    30   23   24 ar 
    31   25   26 3  
    32   28   29 ar 
    33   28   33 ar 
    34   29   30 ar 
    35   30   31 ar 
    36   31   32 ar 
    37   31   34 1  
    38   32   33 ar 
    39   34   35 2  
    40   34   36 2  
    41   34   37 1  
    42    2   38 1  
    43    3   39 1  
    44    4   40 1  
    45    5   41 1  
    46   13   42 1  
    47   14   43 1  
    48   20   44 1  
    49   21   45 1  
    50   23   46 1  
    51   24   47 1  
    52   29   48 1  
    53   30   49 1  
    54   32   50 1  
    55   37   51 1  
    56   37   52 1  
    57   37   53 1  
@<TRIPOS>SUBSTRUCTURE
     1 1AK         1

