### 
### Created by X-TOOL on Mon Sep 10 21:13:15 2018
### 

@<TRIPOS>MOLECULE
4hyh_ligand
   55    59     1     0     0
SMALL
GAST_HUCK


@<TRIPOS>ATOM
      1 C01         7.3560   -5.7320   12.2180 C.ar      1 1AM        -0.0201
      2 N02         6.6110   -4.8270   11.5460 N.ar      1 1AM        -0.3331
      3 C03         7.2810   -3.8990   10.8480 C.ar      1 1AM         0.0163
      4 C04         8.6620   -3.8210   10.7960 C.ar      1 1AM         0.1128
      5 C05         9.4190   -4.7930   11.4630 C.ar      1 1AM         0.0847
      6 C06         8.7420   -5.7620   12.2140 C.ar      1 1AM        -0.0297
      7 N07        10.7960   -4.7060   11.4140 N.pl3     1 1AM        -0.2953
      8 C08        11.5600   -5.9340   11.5830 C.3       1 1AM         0.0670
      9 C09        13.0320   -5.6180   11.3290 C.3       1 1AM        -0.0134
     10 N10        13.5690   -4.6230   12.2750 N.4       1 1AM         0.2298
     11 C11        12.8050   -3.3660   12.0980 C.3       1 1AM        -0.0134
     12 C12        11.3040   -3.5490   12.2530 C.3       1 1AM         0.0670
     13 N13         9.3420   -2.9180    9.9850 N.am      1 1AM        -0.2333
     14 C14         8.8900   -1.7630    9.4320 C.2       1 1AM         0.2213
     15 O15         7.7940   -1.2520    9.5990 O.2       1 1AM        -0.3818
     16 C16         9.9140   -1.1700    8.5690 C.2       1 1AM         0.0731
     17 N17        11.1820   -1.7560    8.4430 N.2       1 1AM        -0.3050
     18 C18        11.9100   -1.0500    7.5910 C.2       1 1AM         0.2135
     19 S19        11.1320    0.2910    6.9040 S.3       1 1AM         0.0251
     20 C20         9.7080   -0.0570    7.7880 C.2       1 1AM         0.0213
     21 N21        13.2380   -1.3570    7.3240 N.am      1 1AM        -0.1692
     22 C22        14.0590   -0.5910    6.4910 C.2       1 1AM         0.2409
     23 C23        15.3990   -1.1980    6.5430 C.ar      1 1AM         0.0541
     24 C24        15.3360   -2.3110    7.4140 C.ar      1 1AM        -0.0031
     25 C25        13.9450   -2.4510    7.9490 C.3       1 1AM         0.0969
     26 C26        16.5710   -0.8160    5.8800 C.ar      1 1AM        -0.0191
     27 C27        17.7040   -1.6100    6.0900 C.ar      1 1AM         0.0891
     28 C28        17.6430   -2.7400    6.9370 C.ar      1 1AM        -0.0349
     29 C29        16.4570   -3.1040    7.6300 C.ar      1 1AM        -0.0599
     30 O30        13.7920    0.4130    5.8380 O.2       1 1AM        -0.3717
     31 O31        18.9310   -1.4070    5.5370 O.3       1 1AM        -0.3247
     32 C32        19.0980   -0.2470    4.7330 C.3       1 1AM         0.0579
     33 H1          6.8353   -6.4847   12.7989 H         1 1AM         0.0652
     34 H2          6.7074   -3.1666   10.2915 H         1 1AM         0.0646
     35 H3          9.2856   -6.5132   12.7755 H         1 1AM         0.0553
     36 H4         11.2122   -6.6909   10.8646 H         1 1AM         0.0567
     37 H5         11.4321   -6.3143   12.6072 H         1 1AM         0.0567
     38 H6         13.1368   -5.2250   10.3070 H         1 1AM         0.0833
     39 H7         13.6137   -6.5465   11.4263 H         1 1AM         0.0833
     40 H8         14.5451   -4.4602   12.0831 H         1 1AM         0.2015
     41 H9         13.4636   -4.9574   13.2200 H         1 1AM         0.2015
     42 H10        13.0068   -2.9734   11.0905 H         1 1AM         0.0833
     43 H11        13.1478   -2.6400   12.8499 H         1 1AM         0.0833
     44 H12        11.0753   -3.7468   13.3106 H         1 1AM         0.0567
     45 H13        10.7966   -2.6265   11.9344 H         1 1AM         0.0567
     46 H14        10.2929   -3.1512    9.7816 H         1 1AM         0.2235
     47 H15         8.7823    0.5145    7.7394 H         1 1AM         0.0721
     48 H16        13.5076   -3.4185    7.6616 H         1 1AM         0.0762
     49 H17        13.9324   -2.3539    9.0446 H         1 1AM         0.0762
     50 H18        16.5997    0.0541    5.2341 H         1 1AM         0.0573
     51 H19        18.5307   -3.3494    7.0621 H         1 1AM         0.0563
     52 H20        16.4279   -3.9593    8.2954 H         1 1AM         0.0544
     53 H21        20.1298   -0.2093    4.3536 H         1 1AM         0.0574
     54 H22        18.8965    0.6499    5.3370 H         1 1AM         0.0574
     55 H23        18.3971   -0.2838    3.8861 H         1 1AM         0.0574
@<TRIPOS>BOND
     1    1    2 ar 
     2    1    6 ar 
     3    2    3 ar 
     4    3    4 ar 
     5    4    5 ar 
     6    4   13 1  
     7    5    6 ar 
     8    5    7 1  
     9    7    8 1  
    10    7   12 1  
    11    8    9 1  
    12    9   10 1  
    13   10   11 1  
    14   11   12 1  
    15   13   14 am 
    16   14   15 2  
    17   14   16 1  
    18   16   17 1  
    19   16   20 2  
    20   17   18 2  
    21   18   19 1  
    22   18   21 1  
    23   19   20 1  
    24   21   22 am 
    25   21   25 1  
    26   22   23 1  
    27   22   30 2  
    28   23   24 ar 
    29   23   26 ar 
    30   24   25 1  
    31   24   29 ar 
    32   26   27 ar 
    33   27   28 ar 
    34   27   31 1  
    35   28   29 ar 
    36   31   32 1  
    37    1   33 1  
    38    3   34 1  
    39    6   35 1  
    40    8   36 1  
    41    8   37 1  
    42    9   38 1  
    43    9   39 1  
    44   10   40 1  
    45   10   41 1  
    46   11   42 1  
    47   11   43 1  
    48   12   44 1  
    49   12   45 1  
    50   13   46 1  
    51   20   47 1  
    52   25   48 1  
    53   25   49 1  
    54   26   50 1  
    55   28   51 1  
    56   29   52 1  
    57   32   53 1  
    58   32   54 1  
    59   32   55 1  
@<TRIPOS>SUBSTRUCTURE
     1 1AM         1

