### 
### Created by X-TOOL on Mon Sep 10 21:13:13 2018
### 

@<TRIPOS>MOLECULE
4hyi_ligand
   50    54     1     0     0
SMALL
GAST_HUCK


@<TRIPOS>ATOM
      1 C01        10.8900   -5.4550   14.4340 C.ar      1 1AO        -0.0892
      2 C02        10.1970   -4.4870   13.7040 C.ar      1 1AO        -0.0890
      3 C03        10.9360   -3.5690   12.9660 C.ar      1 1AO        -0.0522
      4 C04        12.3460   -3.6310   12.9630 C.ar      1 1AO         0.0852
      5 C05        13.0620   -4.6060   13.6880 C.ar      1 1AO         0.0639
      6 C06        12.2820   -5.5370   14.4440 C.ar      1 1AO        -0.0570
      7 N07        14.4650   -4.5870   13.7040 N.pl3     1 1AO        -0.3037
      8 C08        15.1550   -5.8400   13.9340 C.3       1 1AO         0.0643
      9 C09        16.6750   -5.7070   13.9020 C.3       1 1AO        -0.0139
     10 N10        17.1730   -4.6080   14.7990 N.4       1 1AO         0.2297
     11 C11        16.4340   -3.3820   14.5650 C.3       1 1AO        -0.0139
     12 C12        14.9370   -3.4900   14.6590 C.3       1 1AO         0.0643
     13 N13        13.1320   -2.7800   12.1770 N.am      1 1AO        -0.2398
     14 C14        12.7900   -1.5660   11.6460 C.2       1 1AO         0.2223
     15 O15        11.7540   -0.9360   11.8140 O.2       1 1AO        -0.3826
     16 C16        13.8750   -1.0160   10.7870 C.2       1 1AO         0.0878
     17 N17        15.1080   -1.6190   10.6150 N.2       1 1AO        -0.2813
     18 C18        15.8530   -0.8920    9.8010 C.2       1 1AO         0.2492
     19 S19        15.1500    0.5560    9.2660 S.3       1 1AO         0.0399
     20 C20        13.7240    0.1620   10.1160 C.2       1 1AO         0.0313
     21 N21        17.1410   -1.1660    9.5000 N.pl3     1 1AO        -0.1137
     22 N22        17.8760   -0.2240    8.7740 N.2       1 1AO        -0.1803
     23 C23        19.1030   -0.6580    8.7700 C.2       1 1AO         0.0271
     24 C24        19.2390   -1.8680    9.4960 C.ar      1 1AO         0.0159
     25 C25        20.2520   -2.7440    9.7890 C.ar      1 1AO        -0.0624
     26 C26        20.0430   -3.8970   10.5690 C.ar      1 1AO        -0.0709
     27 C27        18.7400   -4.1680   11.0450 C.ar      1 1AO        -0.0687
     28 C28        17.6760   -3.3040   10.7670 C.ar      1 1AO        -0.0298
     29 C29        17.9630   -2.1690    9.9730 C.ar      1 1AO         0.1175
     30 H1         10.3227   -6.1718   15.0166 H         1 1AO         0.0454
     31 H2          9.1136   -4.4522   13.7124 H         1 1AO         0.0466
     32 H3         10.4276   -2.8034   12.3912 H         1 1AO         0.0459
     33 H4         12.7742   -6.3079   15.0259 H         1 1AO         0.0466
     34 H5         14.8506   -6.5543   13.1548 H         1 1AO         0.0562
     35 H6         14.8590   -6.2255   14.9208 H         1 1AO         0.0562
     36 H7         16.9891   -5.4905   12.8703 H         1 1AO         0.0833
     37 H8         17.1199   -6.6585   14.2287 H         1 1AO         0.0833
     38 H9         18.1503   -4.4460   14.6129 H         1 1AO         0.2015
     39 H10        17.0557   -4.8868   15.7606 H         1 1AO         0.2015
     40 H11        16.6835   -3.0255   13.5547 H         1 1AO         0.0833
     41 H12        16.7658   -2.6414   15.3075 H         1 1AO         0.0833
     42 H13        14.6481   -3.7461   15.6890 H         1 1AO         0.0562
     43 H14        14.4781   -2.5309   14.3772 H         1 1AO         0.0562
     44 H15        14.0588   -3.0990   11.9789 H         1 1AO         0.2209
     45 H16        12.8187    0.7672   10.1220 H         1 1AO         0.0793
     46 H17        19.9268   -0.1520    8.2688 H         1 1AO         0.0746
     47 H18        21.2464   -2.5422    9.4076 H         1 1AO         0.0599
     48 H19        20.8655   -4.5642   10.8001 H         1 1AO         0.0540
     49 H20        18.5626   -5.0599   11.6350 H         1 1AO         0.0585
     50 H21        16.6773   -3.4953   11.1427 H         1 1AO         0.0574
@<TRIPOS>BOND
     1    1    2 ar 
     2    1    6 ar 
     3    2    3 ar 
     4    3    4 ar 
     5    4    5 ar 
     6    4   13 1  
     7    5    6 ar 
     8    5    7 1  
     9    7    8 1  
    10    7   12 1  
    11    8    9 1  
    12    9   10 1  
    13   10   11 1  
    14   11   12 1  
    15   13   14 am 
    16   14   15 2  
    17   14   16 1  
    18   16   17 1  
    19   16   20 2  
    20   17   18 2  
    21   18   19 1  
    22   18   21 1  
    23   19   20 1  
    24   21   22 1  
    25   21   29 1  
    26   22   23 2  
    27   23   24 1  
    28   24   25 ar 
    29   24   29 ar 
    30   25   26 ar 
    31   26   27 ar 
    32   27   28 ar 
    33   28   29 ar 
    34    1   30 1  
    35    2   31 1  
    36    3   32 1  
    37    6   33 1  
    38    8   34 1  
    39    8   35 1  
    40    9   36 1  
    41    9   37 1  
    42   10   38 1  
    43   10   39 1  
    44   11   40 1  
    45   11   41 1  
    46   12   42 1  
    47   12   43 1  
    48   13   44 1  
    49   20   45 1  
    50   23   46 1  
    51   25   47 1  
    52   26   48 1  
    53   27   49 1  
    54   28   50 1  
@<TRIPOS>SUBSTRUCTURE
     1 1AO         1

