### 
### Created by X-TOOL on Mon Sep 10 21:13:15 2018
### 

@<TRIPOS>MOLECULE
4hym_ligand
   50    54     1     0     0
SMALL
GAST_HUCK


@<TRIPOS>ATOM
      1 O47         4.0690   -2.5920  -10.9570 O.2       1 CJC        -0.3785
      2 C28         4.7870   -1.8580  -11.6790 C.2       1 CJC         0.2543
      3 C27         4.3380   -1.5180  -12.9650 C.2       1 CJC         0.1045
      4 N29         5.9750   -1.4070  -11.2080 N.am      1 CJC        -0.2166
      5 C22         6.7430   -0.6100  -11.9710 C.ar      1 CJC         0.1210
      6 C23         6.2670   -0.2520  -13.3440 C.ar      1 CJC         0.1380
      7 N26         5.0690   -0.7300  -13.7770 N.2       1 CJC        -0.2547
      8 N24         7.0360    0.5470  -14.1270 N.ar      1 CJC        -0.2946
      9 C25         8.2140    1.0050  -13.6730 C.ar      1 CJC         0.0148
     10 C20         8.7060    0.6970  -12.4000 C.ar      1 CJC         0.0528
     11 C21         7.9660   -0.1190  -11.5350 C.ar      1 CJC        -0.0002
     12 S19        10.2150    1.3420  -11.9480 S.3       1 CJC        -0.0062
     13 C10        10.2250    1.8400  -10.3400 C.ar      1 CJC         0.1393
     14 N9          9.0580    1.9260   -9.6660 N.ar      1 CJC        -0.2632
     15 C8          9.0080    2.3900   -8.3960 C.ar      1 CJC         0.1116
     16 N13         7.7510    2.3370   -7.7800 N.pl3     1 CJC        -0.2851
     17 C14         6.5470    2.1090   -8.5690 C.3       1 CJC         0.0377
     18 C15         5.7370    1.2200   -7.6140 C.3       1 CJC         0.0129
     19 C16         6.4580    1.1530   -6.2620 C.3       1 CJC        -0.0013
     20 N18         7.0300   -0.1890   -6.0450 N.4       1 CJC         0.2223
     21 C17         7.5660    2.2190   -6.3390 C.3       1 CJC         0.0750
     22 C3         10.3330    2.7680   -7.7950 C.ar      1 CJC         0.0411
     23 C2         11.5740    2.6540   -8.5960 C.ar      1 CJC         0.1239
     24 N11        11.4220    2.1620   -9.8270 N.ar      1 CJC        -0.2711
     25 N1         12.6830    3.0830   -7.9210 N.pl3     1 CJC        -0.2614
     26 C5         12.3810    3.4890   -6.6620 C.2       1 CJC         0.0567
     27 C4         10.9300    3.2950   -6.5720 C.2       1 CJC         0.0376
     28 CL1         9.9950    3.8340   -5.1370 Cl        1 CJC        -0.1174
     29 C6         13.2730    3.9990   -5.5470 C.3       1 CJC         0.0025
     30 C7         14.2360    5.0160   -6.1370 C.3       1 CJC        -0.0522
     31 H1          3.3791   -1.8991  -13.3132 H         1 CJC         0.1132
     32 H2          6.2806   -1.6673  -10.2921 H         1 CJC         0.2388
     33 H3          8.8085    1.6399  -14.3199 H         1 CJC         0.0689
     34 H4          8.3400   -0.3617  -10.5470 H         1 CJC         0.0584
     35 H5          6.7736    1.5886   -9.5112 H         1 CJC         0.0529
     36 H6          6.0223    3.0508   -8.7873 H         1 CJC         0.0529
     37 H7          5.6505    0.2080   -8.0363 H         1 CJC         0.0341
     38 H8          4.7326    1.6467   -7.4756 H         1 CJC         0.0341
     39 H9          5.7605    1.3864   -5.4441 H         1 CJC         0.0871
     40 H10         7.4991   -0.2141   -5.1531 H         1 CJC         0.1997
     41 H11         7.6905   -0.3953   -6.7779 H         1 CJC         0.1997
     42 H12         6.2914   -0.8748   -6.0555 H         1 CJC         0.1997
     43 H13         7.2396    3.1714   -5.8958 H         1 CJC         0.0583
     44 H14         8.4864    1.8794   -5.8415 H         1 CJC         0.0583
     45 H15        13.6325    3.0964   -8.3199 H         1 CJC         0.2308
     46 H16        13.8372    3.1623   -5.1092 H         1 CJC         0.0465
     47 H17        12.6598    4.4753   -4.7678 H         1 CJC         0.0465
     48 H18        14.8945    5.4003   -5.3441 H         1 CJC         0.0255
     49 H19        13.6666    5.8484   -6.5762 H         1 CJC         0.0255
     50 H20        14.8440    4.5354   -6.9176 H         1 CJC         0.0255
@<TRIPOS>BOND
     1    1    2 2  
     2    2    3 1  
     3    2    4 am 
     4    3    7 2  
     5    4    5 1  
     6    5    6 ar 
     7    5   11 ar 
     8    6    7 1  
     9    6    8 ar 
    10    8    9 ar 
    11    9   10 ar 
    12   10   11 ar 
    13   10   12 1  
    14   12   13 1  
    15   13   14 ar 
    16   13   24 ar 
    17   14   15 ar 
    18   15   16 1  
    19   15   22 ar 
    20   16   17 1  
    21   16   21 1  
    22   17   18 1  
    23   18   19 1  
    24   19   20 1  
    25   19   21 1  
    26   22   23 ar 
    27   22   27 1  
    28   23   24 ar 
    29   23   25 1  
    30   25   26 1  
    31   26   27 2  
    32   26   29 1  
    33   27   28 1  
    34   29   30 1  
    35    3   31 1  
    36    4   32 1  
    37    9   33 1  
    38   11   34 1  
    39   17   35 1  
    40   17   36 1  
    41   18   37 1  
    42   18   38 1  
    43   19   39 1  
    44   20   40 1  
    45   20   41 1  
    46   20   42 1  
    47   21   43 1  
    48   21   44 1  
    49   25   45 1  
    50   29   46 1  
    51   29   47 1  
    52   30   48 1  
    53   30   49 1  
    54   30   50 1  
@<TRIPOS>SUBSTRUCTURE
     1 CJC         1

