### 
### Created by X-TOOL on Mon Sep 10 21:13:16 2018
### 

@<TRIPOS>MOLECULE
4hys_ligand
   42    45     1     0     0
SMALL
GAST_HUCK


@<TRIPOS>ATOM
      1 N1         -2.1330   -2.2240   10.3770 N.ar      1 1BJ        -0.2673
      2 C2         -2.8040   -1.1460   10.7660 C.ar      1 1BJ         0.1805
      3 N3         -2.5090   -0.5690   11.9330 N.ar      1 1BJ        -0.2264
      4 C4         -1.1550   -2.7350   11.1330 C.ar      1 1BJ         0.0054
      5 C5         -0.8190   -2.1630   12.3390 C.ar      1 1BJ         0.0090
      6 C6         -1.5280   -1.0270   12.7180 C.ar      1 1BJ         0.1799
      7 N7         -1.2380   -0.4240   13.9400 N.pl3     1 1BJ        -0.1329
      8 N8         -3.8280   -0.6430    9.9570 N.pl3     1 1BJ        -0.2881
      9 C9         -4.8260    0.2840   10.5240 C.3       1 1BJ         0.0419
     10 C10        -5.8390   -0.4900   11.3800 C.3       1 1BJ        -0.0273
     11 C11        -6.8740    0.4370   12.0280 C.3       1 1BJ        -0.0247
     12 C12        -7.5610    1.2990   10.9600 C.3       1 1BJ         0.0554
     13 C13        -6.5400    2.0580   10.0820 C.3       1 1BJ        -0.0247
     14 C14        -5.5430    1.0890    9.4250 C.3       1 1BJ        -0.0273
     15 O15        -8.3840    2.2490   11.6370 O.3       1 1BJ        -0.3918
     16 C16        -0.2820   -0.1860   15.9160 C.2       1 1BJ         0.0272
     17 N17        -0.3190   -0.9390   14.8590 N.2       1 1BJ        -0.1829
     18 C18        -1.2390    0.8980   15.7250 C.ar      1 1BJ         0.0158
     19 C19        -1.8210    0.7030   14.4610 C.ar      1 1BJ         0.1140
     20 C20        -2.7820    1.6050   13.9980 C.ar      1 1BJ        -0.0300
     21 C21        -3.1470    2.6660   14.7970 C.ar      1 1BJ        -0.0686
     22 C22        -2.5670    2.8530   16.0450 C.ar      1 1BJ        -0.0708
     23 C23        -1.6220    1.9900   16.5180 C.ar      1 1BJ        -0.0622
     24 H1         -0.6190   -3.6128   10.7907 H         1 1BJ         0.0861
     25 H2         -0.0377   -2.5785   12.9651 H         1 1BJ         0.0618
     26 H3         -3.8854   -0.9194    8.9664 H         1 1BJ         0.1864
     27 H4         -4.2982    0.9962   11.1753 H         1 1BJ         0.0560
     28 H5         -5.2970   -1.0258   12.1732 H         1 1BJ         0.0289
     29 H6         -6.3635   -1.2149   10.7401 H         1 1BJ         0.0289
     30 H7         -6.3701    1.0922   12.7538 H         1 1BJ         0.0291
     31 H8         -7.6309   -0.1703   12.5459 H         1 1BJ         0.0291
     32 H9         -8.1803    0.6565   10.3169 H         1 1BJ         0.0593
     33 H10        -5.9863    2.7710   10.7105 H         1 1BJ         0.0291
     34 H11        -7.0800    2.6052    9.2953 H         1 1BJ         0.0291
     35 H12        -6.0829    0.4015    8.7573 H         1 1BJ         0.0289
     36 H13        -4.8034    1.6593    8.8439 H         1 1BJ         0.0289
     37 H14        -9.0148    1.7903   12.1793 H         1 1BJ         0.2098
     38 H15         0.3507   -0.3368   16.7894 H         1 1BJ         0.0748
     39 H16        -3.2348    1.4716   13.0222 H         1 1BJ         0.0574
     40 H17        -3.8977    3.3651   14.4467 H         1 1BJ         0.0586
     41 H18        -2.8699    3.6979   16.6528 H         1 1BJ         0.0541
     42 H19        -1.1736    2.1459   17.4925 H         1 1BJ         0.0599
@<TRIPOS>BOND
     1    1    2 ar 
     2    1    4 ar 
     3    2    3 ar 
     4    2    8 1  
     5    3    6 ar 
     6    4    5 ar 
     7    5    6 ar 
     8    6    7 1  
     9    7   17 1  
    10    7   19 1  
    11    8    9 1  
    12    9   10 1  
    13    9   14 1  
    14   10   11 1  
    15   11   12 1  
    16   12   13 1  
    17   12   15 1  
    18   13   14 1  
    19   17   16 2  
    20   16   18 1  
    21   18   19 ar 
    22   18   23 ar 
    23   19   20 ar 
    24   20   21 ar 
    25   21   22 ar 
    26   22   23 ar 
    27    4   24 1  
    28    5   25 1  
    29    8   26 1  
    30    9   27 1  
    31   10   28 1  
    32   10   29 1  
    33   11   30 1  
    34   11   31 1  
    35   12   32 1  
    36   13   33 1  
    37   13   34 1  
    38   14   35 1  
    39   14   36 1  
    40   15   37 1  
    41   16   38 1  
    42   20   39 1  
    43   21   40 1  
    44   22   41 1  
    45   23   42 1  
@<TRIPOS>SUBSTRUCTURE
     1 1BJ         1

