### 
### Created by X-TOOL on Mon Sep 10 21:13:15 2018
### 

@<TRIPOS>MOLECULE
4hyu_ligand
   58    61     1     0     0
SMALL
GAST_HUCK


@<TRIPOS>ATOM
      1 N1         -3.8040   -0.8140    9.1230 N.pl3     1 1BK        -0.2882
      2 C2         -2.7750   -1.3060    9.9070 C.ar      1 1BK         0.1803
      3 N3         -2.0520   -2.3430    9.4880 N.ar      1 1BK        -0.2676
      4 C4         -1.0570   -2.8240   10.2380 C.ar      1 1BK         0.0052
      5 C5         -0.7770   -2.2470   11.4680 C.ar      1 1BK         0.0086
      6 C6         -1.5440   -1.1470   11.8740 C.ar      1 1BK         0.1784
      7 N7         -2.5240   -0.7270   11.0730 N.ar      1 1BK        -0.2268
      8 N8         -1.3040   -0.5300   13.1060 N.pl3     1 1BK        -0.1387
      9 N9         -0.4620   -1.0720   14.0760 N.2       1 1BK        -0.1901
     10 C10        -0.4190   -0.3150   15.1230 C.2       1 1BK         0.0239
     11 C11        -1.8460    0.6420   13.6060 C.ar      1 1BK         0.1062
     12 C12        -1.3020    0.8140   14.8920 C.ar      1 1BK         0.0484
     13 C13        -1.6380    1.9200   15.6910 C.ar      1 1BK         0.0955
     14 C14        -2.5420    2.8550   15.2110 C.ar      1 1BK        -0.0421
     15 C15        -3.0790    2.6920   13.9270 C.ar      1 1BK        -0.0791
     16 C16        -2.7410    1.6030   13.1360 C.ar      1 1BK        -0.0424
     17 C17        -4.6630    0.2670    9.6270 C.3       1 1BK         0.0419
     18 C18        -5.7950   -0.3210   10.4870 C.3       1 1BK        -0.0273
     19 C19        -6.6570    0.8140   11.0500 C.3       1 1BK        -0.0247
     20 C20        -7.3030    1.5730    9.8860 C.3       1 1BK         0.0554
     21 C21        -6.2190    2.1600    8.9640 C.3       1 1BK        -0.0247
     22 C22        -5.2600    1.0640    8.4600 C.3       1 1BK        -0.0273
     23 O23        -8.1050    2.6200   10.4300 O.3       1 1BK        -0.3918
     24 O24        -1.0700    1.9530   16.9270 O.3       1 1BK        -0.3163
     25 C25        -0.7940    3.2480   17.4620 C.3       1 1BK         0.0733
     26 C26         0.3710    3.0930   18.4540 C.3       1 1BK        -0.0054
     27 C27        -0.0210    2.0970   19.5430 C.3       1 1BK         0.0679
     28 S28         1.2970    1.8990   20.7850 S.o2      1 1BK        -0.0337
     29 C29         0.4460    0.6790   21.8270 C.3       1 1BK         0.0544
     30 O30         2.4540    1.2920   20.2180 O.2       1 1BK        -0.1746
     31 O31         1.4440    3.1060   21.5260 O.2       1 1BK        -0.1746
     32 H1         -3.9681   -1.2060    8.1848 H         1 1BK         0.1864
     33 H2         -0.4691   -3.6640    9.8861 H         1 1BK         0.0860
     34 H3          0.0141   -2.6368   12.0983 H         1 1BK         0.0616
     35 H4          0.1741   -0.4926   16.0189 H         1 1BK         0.0739
     36 H5         -2.8302    3.7027   15.8221 H         1 1BK         0.0446
     37 H6         -3.7726    3.4317   13.5438 H         1 1BK         0.0557
     38 H7         -3.1747    1.4987   12.1480 H         1 1BK         0.0466
     39 H8         -4.0565    0.9435   10.2471 H         1 1BK         0.0560
     40 H9         -5.3618   -0.8978   11.3174 H         1 1BK         0.0289
     41 H10        -6.4193   -0.9820    9.8679 H         1 1BK         0.0289
     42 H11        -6.0270    1.5010   11.6340 H         1 1BK         0.0291
     43 H12        -7.4412    0.3953   11.6979 H         1 1BK         0.0291
     44 H13        -7.9371    0.8866    9.3057 H         1 1BK         0.0593
     45 H14        -5.6421    2.9119    9.5224 H         1 1BK         0.0291
     46 H15        -6.7037    2.6374    8.0996 H         1 1BK         0.0291
     47 H16        -5.8141    0.3773    7.8032 H         1 1BK         0.0289
     48 H17        -4.4437    1.5351    7.8929 H         1 1BK         0.0289
     49 H18        -8.7697    2.2464   10.9966 H         1 1BK         0.2098
     50 H19        -1.6817    3.6379   17.9816 H         1 1BK         0.0618
     51 H20        -0.5105    3.9372   16.6529 H         1 1BK         0.0618
     52 H21         0.5959    4.0677   18.9116 H         1 1BK         0.0307
     53 H22         1.2600    2.7240   17.9216 H         1 1BK         0.0307
     54 H23        -0.2210    1.1207   19.0774 H         1 1BK         0.0500
     55 H24        -0.9313    2.4575   20.0443 H         1 1BK         0.0500
     56 H25         1.0918    0.4070   22.6749 H         1 1BK         0.0464
     57 H26         0.2236   -0.2194   21.2326 H         1 1BK         0.0464
     58 H27        -0.4927    1.1105   22.2047 H         1 1BK         0.0464
@<TRIPOS>BOND
     1    1    2 1  
     2    1   17 1  
     3    2    3 ar 
     4    2    7 ar 
     5    3    4 ar 
     6    4    5 ar 
     7    5    6 ar 
     8    6    7 ar 
     9    6    8 1  
    10    8    9 1  
    11    8   11 1  
    12    9   10 2  
    13   10   12 1  
    14   11   12 ar 
    15   11   16 ar 
    16   12   13 ar 
    17   13   14 ar 
    18   13   24 1  
    19   14   15 ar 
    20   15   16 ar 
    21   17   18 1  
    22   17   22 1  
    23   18   19 1  
    24   19   20 1  
    25   20   21 1  
    26   20   23 1  
    27   21   22 1  
    28   24   25 1  
    29   25   26 1  
    30   26   27 1  
    31   27   28 1  
    32   28   29 1  
    33   28   30 2  
    34   28   31 2  
    35    1   32 1  
    36    4   33 1  
    37    5   34 1  
    38   10   35 1  
    39   14   36 1  
    40   15   37 1  
    41   16   38 1  
    42   17   39 1  
    43   18   40 1  
    44   18   41 1  
    45   19   42 1  
    46   19   43 1  
    47   20   44 1  
    48   21   45 1  
    49   21   46 1  
    50   22   47 1  
    51   22   48 1  
    52   23   49 1  
    53   25   50 1  
    54   25   51 1  
    55   26   52 1  
    56   26   53 1  
    57   27   54 1  
    58   27   55 1  
    59   29   56 1  
    60   29   57 1  
    61   29   58 1  
@<TRIPOS>SUBSTRUCTURE
     1 1BK         1

