### 
### Created by X-TOOL on Mon Sep 10 21:13:15 2018
### 

@<TRIPOS>MOLECULE
4hz5_ligand
   36    38     1     0     0
SMALL
GAST_HUCK


@<TRIPOS>ATOM
      1 O20         7.4740   66.7360   12.3240 O.2       1 19Y        -0.3898
      2 C19         8.4900   66.9070   12.9750 C.2       1 19Y         0.0914
      3 C5          9.1080   65.7690   13.7000 C.2       1 19Y         0.0364
      4 C1          8.7100   64.3450   13.7660 C.2       1 19Y         0.0714
      5 C21         7.5380   63.6710   13.1010 C.3       1 19Y         0.0107
      6 C22         6.9040   62.6560   14.0380 C.3       1 19Y        -0.0499
      7 C4         10.3250   65.9430   14.5180 C.ar      1 19Y         0.0577
      8 C6         11.2700   67.0110   14.9240 C.ar      1 19Y         0.1645
      9 O17        11.1460   68.3070   14.5100 O.3       1 19Y        -0.2982
     10 C18        12.2970   69.1520   14.4800 C.3       1 19Y         0.0657
     11 N7         12.2870   66.6640   15.7390 N.ar      1 19Y        -0.2502
     12 C8         12.4620   65.3950   16.1800 C.ar      1 19Y         0.1447
     13 N9         11.6260   64.3850   15.8410 N.ar      1 19Y        -0.2652
     14 C3         10.5670   64.5790   15.0310 C.ar      1 19Y         0.1332
     15 N2          9.6210   63.7400   14.5660 N.pl3     1 19Y        -0.2504
     16 S10        13.7650   65.0490   17.2010 S.3       1 19Y        -0.0022
     17 C11        14.8690   66.3390   17.2620 C.ar      1 19Y         0.0631
     18 C16        15.3620   66.9140   16.0950 C.ar      1 19Y        -0.0270
     19 C15        16.2660   67.9720   16.1870 C.ar      1 19Y        -0.0391
     20 C14        16.6580   68.4230   17.4460 C.ar      1 19Y         0.0046
     21 N13        16.1720   67.8470   18.5590 N.ar      1 19Y        -0.3030
     22 C12        15.2990   66.8280   18.4930 C.ar      1 19Y         0.0260
     23 H1          8.9446   67.8953   13.0247 H         1 19Y         0.1229
     24 H2          7.8841   63.1573   12.1920 H         1 19Y         0.0497
     25 H3          6.7896   64.4305   12.8306 H         1 19Y         0.0497
     26 H4          6.0517   62.1754   13.5354 H         1 19Y         0.0259
     27 H5          6.5534   63.1656   14.9476 H         1 19Y         0.0259
     28 H6          7.6479   61.8924   14.3090 H         1 19Y         0.0259
     29 H7         12.0087   70.1517   14.1231 H         1 19Y         0.0590
     30 H8         13.0491   68.7233   13.8014 H         1 19Y         0.0590
     31 H9         12.7197   69.2319   15.4924 H         1 19Y         0.0590
     32 H10         9.5930   62.7364   14.7962 H         1 19Y         0.2354
     33 H11        15.0473   66.5441   15.1259 H         1 19Y         0.0692
     34 H12        16.6588   68.4377   15.2904 H         1 19Y         0.0694
     35 H13        17.3603   69.2447   17.5283 H         1 19Y         0.0769
     36 H14        14.9254   66.3818   19.4075 H         1 19Y         0.0779
@<TRIPOS>BOND
     1    1    2 2  
     2    2    3 1  
     3    3    4 2  
     4    3    7 1  
     5    4    5 1  
     6    4   15 1  
     7    5    6 1  
     8    7    8 ar 
     9    7   14 ar 
    10    8    9 1  
    11    8   11 ar 
    12    9   10 1  
    13   11   12 ar 
    14   12   13 ar 
    15   12   16 1  
    16   13   14 ar 
    17   14   15 1  
    18   16   17 1  
    19   17   18 ar 
    20   17   22 ar 
    21   18   19 ar 
    22   19   20 ar 
    23   20   21 ar 
    24   21   22 ar 
    25    2   23 1  
    26    5   24 1  
    27    5   25 1  
    28    6   26 1  
    29    6   27 1  
    30    6   28 1  
    31   10   29 1  
    32   10   30 1  
    33   10   31 1  
    34   15   32 1  
    35   18   33 1  
    36   19   34 1  
    37   20   35 1  
    38   22   36 1  
@<TRIPOS>SUBSTRUCTURE
     1 19Y         1

