### 
### Created by X-TOOL on Mon Sep 10 21:13:14 2018
### 

@<TRIPOS>MOLECULE
4hzt_ligand
   49    52     1     0     0
SMALL
GAST_HUCK


@<TRIPOS>ATOM
      1 CL1         9.6870  -11.8270    4.4120 Cl        1 0ZA        -0.0657
      2 C6         10.0550  -13.2370    5.4620 C.ar      1 0ZA         0.0414
      3 C5          9.3310  -14.4500    5.2550 C.ar      1 0ZA        -0.0462
      4 C4          9.6060  -15.5400    6.0610 C.ar      1 0ZA        -0.0456
      5 C3         10.6030  -15.3930    7.0600 C.ar      1 0ZA         0.0409
      6 C2         11.3220  -14.1450    7.2610 C.ar      1 0ZA        -0.0183
      7 C1         11.0570  -13.0750    6.4130 C.ar      1 0ZA        -0.0374
      8 C10        10.9560  -16.5400    7.9730 C.2       1 0ZA         0.1115
      9 N9         11.5590  -16.2870    9.0680 N.2       1 0ZA        -0.3556
     10 C8         11.8030  -14.9130    9.5580 C.3       1 0ZA         0.0107
     11 C11        12.8610  -14.9790   10.6480 C.3       1 0ZA        -0.0529
     12 C12        10.5200  -14.2560   10.1820 C.3       1 0ZA        -0.0529
     13 C7         12.3430  -14.0940    8.3810 C.3       1 0ZA        -0.0038
     14 N13        10.6670  -17.7590    7.5330 N.pl3     1 0ZA        -0.2676
     15 C14        10.8430  -18.9120    8.4150 C.3       1 0ZA         0.1431
     16 C25        11.4280  -19.9500    7.5580 C.2       1 0ZA         0.1792
     17 N24        11.6890  -21.2090    8.0090 N.2       1 0ZA        -0.2476
     18 C29        12.1450  -21.8500    6.9430 C.2       1 0ZA         0.3052
     19 O28        12.4930  -23.2490    6.9730 O.2       1 0ZA        -0.3783
     20 O26        12.1110  -21.1010    5.8410 O.3       1 0ZA        -0.1313
     21 N27        11.6480  -19.8830    6.1910 N.pl3     1 0ZA        -0.1244
     22 C18         9.4770  -19.4370    8.9390 C.3       1 0ZA         0.0263
     23 C19         8.9520  -18.4470    9.9640 C.ar      1 0ZA        -0.0374
     24 C24         9.5320  -18.4410   11.2390 C.ar      1 0ZA        -0.0600
     25 C23         9.1220  -17.5360   12.2320 C.ar      1 0ZA        -0.0686
     26 C22         8.1010  -16.6320   11.9530 C.ar      1 0ZA        -0.0687
     27 C21         7.5460  -16.6170   10.6630 C.ar      1 0ZA        -0.0686
     28 C20         7.9380  -17.5330    9.6450 C.ar      1 0ZA        -0.0600
     29 H1          8.5776  -14.5157    4.4784 H         1 0ZA         0.0585
     30 H2          9.0764  -16.4772    5.9335 H         1 0ZA         0.0673
     31 H3         11.6120  -12.1471    6.4905 H         1 0ZA         0.0580
     32 H4         13.0592  -13.9661   11.0283 H         1 0ZA         0.0240
     33 H5         13.7878  -15.4032   10.2343 H         1 0ZA         0.0240
     34 H6         12.5014  -15.6154   11.4700 H         1 0ZA         0.0240
     35 H7         10.7598  -13.2397   10.5279 H         1 0ZA         0.0240
     36 H8         10.1752  -14.8612   11.0333 H         1 0ZA         0.0240
     37 H9          9.7265  -14.2068    9.4218 H         1 0ZA         0.0240
     38 H10        12.5007  -13.0514    8.6941 H         1 0ZA         0.0457
     39 H11        13.2960  -14.5214    8.0360 H         1 0ZA         0.0457
     40 H12        10.3196  -17.8922    6.5725 H         1 0ZA         0.1936
     41 H13        11.5040  -18.6634    9.2584 H         1 0ZA         0.0910
     42 H14        11.4911  -19.0741    5.5729 H         1 0ZA         0.2440
     43 H15         9.6117  -20.4228    9.4080 H         1 0ZA         0.0487
     44 H16         8.7654  -19.5220    8.1045 H         1 0ZA         0.0487
     45 H17        10.3174  -19.1530   11.4652 H         1 0ZA         0.0557
     46 H18         9.5964  -17.5416   13.2067 H         1 0ZA         0.0599
     47 H19         7.7411  -15.9524   12.7170 H         1 0ZA         0.0559
     48 H20         6.7877  -15.8775   10.4324 H         1 0ZA         0.0599
     49 H21         7.4724  -17.5237    8.6661 H         1 0ZA         0.0557
@<TRIPOS>BOND
     1    1    2 1  
     2    2    3 ar 
     3    2    7 ar 
     4    3    4 ar 
     5    4    5 ar 
     6    5    6 ar 
     7    5    8 1  
     8    6    7 ar 
     9    6   13 1  
    10    8    9 2  
    11    8   14 1  
    12    9   10 1  
    13   10   11 1  
    14   10   12 1  
    15   10   13 1  
    16   14   15 1  
    17   15   16 1  
    18   15   22 1  
    19   16   17 2  
    20   16   21 1  
    21   17   18 1  
    22   18   19 2  
    23   18   20 1  
    24   20   21 1  
    25   22   23 1  
    26   23   24 ar 
    27   23   28 ar 
    28   24   25 ar 
    29   25   26 ar 
    30   26   27 ar 
    31   27   28 ar 
    32    3   29 1  
    33    4   30 1  
    34    7   31 1  
    35   11   32 1  
    36   11   33 1  
    37   11   34 1  
    38   12   35 1  
    39   12   36 1  
    40   12   37 1  
    41   13   38 1  
    42   13   39 1  
    43   14   40 1  
    44   15   41 1  
    45   21   42 1  
    46   22   43 1  
    47   22   44 1  
    48   24   45 1  
    49   25   46 1  
    50   26   47 1  
    51   27   48 1  
    52   28   49 1  
@<TRIPOS>SUBSTRUCTURE
     1 0ZA         1

