### 
### Created by X-TOOL on Mon Sep 10 21:13:12 2018
### 

@<TRIPOS>MOLECULE
4hzw_ligand
   46    46     1     0     0
SMALL
GAST_HUCK


@<TRIPOS>ATOM
      1 CAA        -5.4720  -30.1340   35.9800 C.2       1 LNV         0.1099
      2 CAB        -5.7520  -28.7220   35.6010 C.2       1 LNV        -0.0168
      3 CAC        -7.0440  -28.4250   34.8930 C.3       1 LNV         0.1182
      4 CAD        -8.0380  -29.5510   34.7370 C.3       1 LNV         0.1162
      5 CAE        -7.3450  -30.9560   34.6420 C.3       1 LNV         0.1335
      6 OAF        -6.3320  -31.1280   35.5990 O.3       1 LNV        -0.3188
      7 CAG        -4.1950  -30.5290   36.6200 C.2       1 LNV         0.0810
      8 OAH        -3.5490  -29.5940   37.3020 O.co2     1 LNV        -0.5623
      9 OAI        -4.0340  -31.8550   36.7410 O.co2     1 LNV        -0.5623
     10 CAJ        -8.3250  -32.1260   34.7990 C.3       1 LNV         0.1185
     11 CAK        -7.6480  -33.4550   34.5260 C.3       1 LNV         0.1071
     12 CAL        -8.6300  -34.6160   34.6010 C.3       1 LNV         0.0727
     13 OAM        -9.7170  -34.5130   33.8240 O.3       1 LNV        -0.3924
     14 OAW        -8.8360  -32.1360   36.0590 O.3       1 LNV        -0.3741
     15 CAX       -10.1080  -31.8740   36.2410 C.3       1 LNV         0.0370
     16 OAY        -7.1360  -33.4150   33.3120 O.3       1 LNV        -0.3868
     17 NAZ        -7.6020  -27.1350   35.1160 N.pl3     1 LNV        -0.2592
     18 CBA        -8.2930  -26.3700   34.1590 C.cat     1 LNV         0.2902
     19 NBB        -8.0860  -26.5350   32.8770 N.pl3     1 LNV        -0.2847
     20 NBC        -8.9110  -25.3330   34.6050 N.pl3     1 LNV        -0.2847
     21 CBD       -10.2410  -28.7420   34.0310 C.2       1 LNV         0.1735
     22 CBE       -11.1090  -28.6410   32.8570 C.3       1 LNV         0.0257
     23 OBF       -10.6160  -28.5780   35.0710 O.2       1 LNV        -0.3974
     24 NBG        -8.9740  -29.2970   33.7440 N.am      1 LNV        -0.2758
     25 H1         -5.0423  -27.9284   35.8298 H         1 LNV         0.0492
     26 H2         -6.6877  -28.3229   33.8573 H         1 LNV         0.0872
     27 H3         -8.6110  -29.5742   35.6757 H         1 LNV         0.0645
     28 H4         -6.8891  -31.0238   33.6432 H         1 LNV         0.0697
     29 H5         -9.1468  -31.9939   34.0798 H         1 LNV         0.0653
     30 H6         -6.8475  -33.6117   35.2640 H         1 LNV         0.0643
     31 H7         -8.9682  -34.7049   35.6439 H         1 LNV         0.0584
     32 H8         -8.0932  -35.5311   34.3103 H         1 LNV         0.0584
     33 H9         -9.4499  -34.4493   32.9145 H         1 LNV         0.2095
     34 H10       -10.3432  -31.9265   37.3143 H         1 LNV         0.0524
     35 H11       -10.7159  -32.6112   35.6960 H         1 LNV         0.0524
     36 H12       -10.3319  -30.8646   35.8656 H         1 LNV         0.0524
     37 H13        -7.8337  -33.2906   32.6792 H         1 LNV         0.2100
     38 H14        -7.4907  -26.7280   36.0556 H         1 LNV         0.2667
     39 H15        -8.6035  -25.9635   32.1940 H         1 LNV         0.2615
     40 H16        -7.4056  -27.2364   32.5513 H         1 LNV         0.2615
     41 H17        -9.0644  -25.2207   35.6173 H         1 LNV         0.2615
     42 H18        -9.2522  -24.6153   33.9497 H         1 LNV         0.2615
     43 H19       -10.5220  -28.8417   31.9487 H         1 LNV         0.0467
     44 H20       -11.5349  -27.6283   32.8019 H         1 LNV         0.0467
     45 H21       -11.9224  -29.3770   32.9380 H         1 LNV         0.0467
     46 H22        -8.7441  -29.5138   32.7952 H         1 LNV         0.1858
@<TRIPOS>BOND
     1    2    1 2  
     2    6    1 1  
     3    1    7 1  
     4    3    2 1  
     5    4    3 1  
     6    3   17 1  
     7    4    5 1  
     8   24    4 1  
     9    5    6 1  
    10    5   10 1  
    11    7    8 ar 
    12    7    9 ar 
    13   10   11 1  
    14   10   14 1  
    15   11   12 1  
    16   11   16 1  
    17   12   13 1  
    18   14   15 1  
    19   17   18 ar 
    20   18   19 ar 
    21   18   20 ar 
    22   21   22 1  
    23   21   23 2  
    24   21   24 am 
    25    2   25 1  
    26    3   26 1  
    27    4   27 1  
    28    5   28 1  
    29   10   29 1  
    30   11   30 1  
    31   12   31 1  
    32   12   32 1  
    33   13   33 1  
    34   15   34 1  
    35   15   35 1  
    36   15   36 1  
    37   16   37 1  
    38   17   38 1  
    39   19   39 1  
    40   19   40 1  
    41   20   41 1  
    42   20   42 1  
    43   22   43 1  
    44   22   44 1  
    45   22   45 1  
    46   24   46 1  
@<TRIPOS>SUBSTRUCTURE
     1 LNV         1

