### 
### Created by X-TOOL on Mon Sep 10 21:13:12 2018
### 

@<TRIPOS>MOLECULE
4hzx_ligand
   46    46     1     0     0
SMALL
GAST_HUCK


@<TRIPOS>ATOM
      1 C1         30.8180    4.2460  -37.8990 C.2       1 G39         0.0381
      2 O1A        29.9260    3.4960  -38.2630 O.co2     1 G39        -0.5687
      3 O1B        32.1410    3.8620  -38.0300 O.co2     1 G39        -0.5687
      4 C2         30.4790    5.5880  -37.3180 C.3       1 G39         0.0194
      5 C3         29.0310    6.1310  -37.3600 C.3       1 G39         0.0069
      6 C4         28.5890    6.9560  -36.1790 C.3       1 G39         0.0033
      7 C5         29.5840    7.9800  -35.6240 C.3       1 G39         0.1105
      8 N5         29.1640    8.9350  -34.6180 N.am      1 G39        -0.2762
      9 C10        28.6460   10.2110  -35.0130 C.2       1 G39         0.1734
     10 O10        28.5560   10.4920  -36.1960 O.2       1 G39        -0.3974
     11 C11        28.2090   11.2000  -33.9730 C.3       1 G39         0.0257
     12 C6         31.0930    7.6930  -35.8020 C.3       1 G39         0.0888
     13 C7         31.5180    6.3300  -36.4270 C.3       1 G39        -0.0096
     14 O7         31.9990    8.7520  -35.7940 O.3       1 G39        -0.3708
     15 C8         32.5840    9.1580  -34.5870 C.3       1 G39         0.0587
     16 C9         33.3690    8.0760  -33.9020 C.3       1 G39        -0.0294
     17 C81        33.3160   10.4660  -34.6810 C.3       1 G39        -0.0294
     18 C82        32.6060   11.6150  -35.3340 C.3       1 G39        -0.0629
     19 C91        34.5270    7.4860  -34.6370 C.3       1 G39        -0.0629
     20 N4         27.1760    7.1550  -35.9550 N.4       1 G39         0.2225
     21 H1         30.7757    6.1242  -38.2314 H         1 G39         0.0469
     22 H2         28.3526    5.2687  -37.4382 H         1 G39         0.0341
     23 H3         28.9343    6.7564  -38.2597 H         1 G39         0.0341
     24 H4         28.7382    6.1860  -35.4077 H         1 G39         0.0875
     25 H5         29.5024    8.6784  -36.4699 H         1 G39         0.0638
     26 H6         29.2358    8.7032  -33.6479 H         1 G39         0.1857
     27 H7         27.8439   12.1131  -34.4659 H         1 G39         0.0467
     28 H8         29.0609   11.4496  -33.3234 H         1 G39         0.0467
     29 H9         27.4018   10.7625  -33.3672 H         1 G39         0.0467
     30 H10        31.2708    7.3949  -34.7582 H         1 G39         0.0622
     31 H11        32.4085    6.5155  -37.0455 H         1 G39         0.0311
     32 H12        31.7810    5.6562  -35.5983 H         1 G39         0.0311
     33 H13        31.7354    9.3578  -33.9162 H         1 G39         0.0596
     34 H14        32.6709    7.2562  -33.6769 H         1 G39         0.0287
     35 H15        33.7564    8.4962  -32.9622 H         1 G39         0.0287
     36 H16        34.2407   10.2854  -35.2487 H         1 G39         0.0287
     37 H17        33.5693   10.7755  -33.6563 H         1 G39         0.0287
     38 H18        33.2598   12.4996  -35.3307 H         1 G39         0.0231
     39 H19        31.6832   11.8390  -34.7789 H         1 G39         0.0231
     40 H20        32.3545   11.3489  -36.3713 H         1 G39         0.0231
     41 H21        35.0007    6.7126  -34.0146 H         1 G39         0.0231
     42 H22        35.2595    8.2753  -34.8615 H         1 G39         0.0231
     43 H23        34.1740    7.0353  -35.5763 H         1 G39         0.0231
     44 H24        26.6591    6.4008  -36.3794 H         1 G39         0.1998
     45 H25        26.8907    8.0304  -36.3653 H         1 G39         0.1998
     46 H26        26.9921    7.1725  -34.9641 H         1 G39         0.1998
@<TRIPOS>BOND
     1    1    2 ar 
     2    1    3 ar 
     3    1    4 1  
     4    4    5 1  
     5    4   13 1  
     6    5    6 1  
     7    6    7 1  
     8    6   20 1  
     9    7    8 1  
    10    7   12 1  
    11    8    9 am 
    12    9   10 2  
    13    9   11 1  
    14   12   13 1  
    15   12   14 1  
    16   14   15 1  
    17   15   16 1  
    18   15   17 1  
    19   16   19 1  
    20   17   18 1  
    21    4   21 1  
    22    5   22 1  
    23    5   23 1  
    24    6   24 1  
    25    7   25 1  
    26    8   26 1  
    27   11   27 1  
    28   11   28 1  
    29   11   29 1  
    30   12   30 1  
    31   13   31 1  
    32   13   32 1  
    33   15   33 1  
    34   16   34 1  
    35   16   35 1  
    36   17   36 1  
    37   17   37 1  
    38   18   38 1  
    39   18   39 1  
    40   18   40 1  
    41   19   41 1  
    42   19   42 1  
    43   19   43 1  
    44   20   44 1  
    45   20   45 1  
    46   20   46 1  
@<TRIPOS>SUBSTRUCTURE
     1 G39         1

