### 
### Created by X-TOOL on Mon Sep 10 21:13:12 2018
### 

@<TRIPOS>MOLECULE
4hzz_ligand
   39    39     1     0     0
SMALL
GAST_HUCK


@<TRIPOS>ATOM
      1 C1          5.3120   30.5480   38.4730 C.2       1 G39         0.0476
      2 O1A         4.5250   29.7390   38.9070 O.co2     1 G39        -0.5650
      3 O1B         5.0830   31.8970   38.4180 O.co2     1 G39        -0.5650
      4 C2          6.5870   30.0950   37.9010 C.ar      1 G39        -0.0251
      5 C3          6.9330   28.6040   37.8320 C.ar      1 G39        -0.0539
      6 C4          7.9470   28.2170   36.8090 C.ar      1 G39         0.0540
      7 C5          8.9890   29.2350   36.3720 C.ar      1 G39         0.1181
      8 N5          9.9510   28.8640   35.3890 N.am      1 G39        -0.2405
      9 C10        11.2100   28.2800   35.6550 C.2       1 G39         0.1954
     10 O10        11.6360   28.1630   36.7870 O.2       1 G39        -0.3878
     11 C11        12.0150   27.9100   34.4510 C.3       1 G39         0.0306
     12 C6          8.6490   30.7230   36.4130 C.ar      1 G39         0.1059
     13 C7          7.3880   31.1590   37.1490 C.ar      1 G39        -0.0447
     14 O7          9.6490   31.6660   36.3150 O.3       1 G39        -0.3244
     15 C8          9.9930   32.1750   35.0560 C.3       1 G39         0.0770
     16 C9          8.9340   33.0420   34.4270 C.3       1 G39        -0.0256
     17 C81        11.3550   32.8030   35.1500 C.3       1 G39        -0.0256
     18 C82        12.4360   31.9080   35.6930 C.3       1 G39        -0.0626
     19 C91         8.5970   34.3150   35.1380 C.3       1 G39        -0.0626
     20 N4          8.3350   26.8410   36.8400 N.pl3     1 G39        -0.3442
     21 H1          6.4692   27.8750   38.4866 H         1 G39         0.0417
     22 H2          9.7159   29.0306   34.4314 H         1 G39         0.2193
     23 H3         12.9698   27.4668   34.7704 H         1 G39         0.0470
     24 H4         12.2114   28.8104   33.8504 H         1 G39         0.0470
     25 H5         11.4563   27.1805   33.8463 H         1 G39         0.0470
     26 H6          7.0676   32.1945   37.1399 H         1 G39         0.0429
     27 H7         10.0956   31.3092   34.3852 H         1 G39         0.0643
     28 H8          8.0126   32.4452   34.3577 H         1 G39         0.0291
     29 H9          9.2769   33.3060   33.4157 H         1 G39         0.0291
     30 H10        11.2798   33.6827   35.8061 H         1 G39         0.0291
     31 H11        11.6529   33.1228   34.1406 H         1 G39         0.0291
     32 H12        13.3879   32.4585   35.7212 H         1 G39         0.0231
     33 H13        12.5417   31.0258   35.0446 H         1 G39         0.0231
     34 H14        12.1686   31.5856   36.7101 H         1 G39         0.0231
     35 H15         7.8157   34.8512   34.5794 H         1 G39         0.0231
     36 H16         9.4959   34.9452   35.2076 H         1 G39         0.0231
     37 H17         8.2316   34.0844   36.1496 H         1 G39         0.0231
     38 H18         7.6577   26.1214   37.1304 H         1 G39         0.1672
     39 H19         9.2917   26.5695   36.5719 H         1 G39         0.1672
@<TRIPOS>BOND
     1    1    2 ar 
     2    1    3 ar 
     3    1    4 1  
     4    4    5 ar 
     5    4   13 ar 
     6    5    6 ar 
     7    6    7 ar 
     8    6   20 1  
     9    7    8 1  
    10    7   12 ar 
    11    8    9 am 
    12    9   10 2  
    13    9   11 1  
    14   12   13 ar 
    15   12   14 1  
    16   14   15 1  
    17   15   16 1  
    18   15   17 1  
    19   16   19 1  
    20   17   18 1  
    21    5   21 1  
    22    8   22 1  
    23   11   23 1  
    24   11   24 1  
    25   11   25 1  
    26   13   26 1  
    27   15   27 1  
    28   16   28 1  
    29   16   29 1  
    30   17   30 1  
    31   17   31 1  
    32   18   32 1  
    33   18   33 1  
    34   18   34 1  
    35   19   35 1  
    36   19   36 1  
    37   19   37 1  
    38   20   38 1  
    39   20   39 1  
@<TRIPOS>SUBSTRUCTURE
     1 G39         1

