### 
### Created by X-TOOL on Mon Sep 10 21:13:15 2018
### 

@<TRIPOS>MOLECULE
4i0d_ligand
   51    53     1     0     0
SMALL
GAST_HUCK


@<TRIPOS>ATOM
      1 C1         11.1820  -12.7770    6.4880 C.ar      1 1B7        -0.0374
      2 C3         10.7420  -15.1350    6.9290 C.ar      1 1B7         0.0408
      3 C4          9.8430  -15.2070    5.8710 C.ar      1 1B7        -0.0456
      4 C5          9.6270  -14.0700    5.0930 C.ar      1 1B7        -0.0462
      5 C6         10.2780  -12.8850    5.4330 C.ar      1 1B7         0.0414
      6 C7         12.3540  -13.8930    8.4550 C.3       1 1B7        -0.0038
      7 C8         11.7050  -14.7500    9.5660 C.3       1 1B7         0.0107
      8 C10        11.0430  -16.2970    7.7950 C.2       1 1B7         0.1100
      9 C11        12.7000  -14.8220   10.7230 C.3       1 1B7        -0.0529
     10 C12        10.4060  -14.0700   10.0860 C.3       1 1B7        -0.0529
     11 C15        11.5590  -19.7850    7.2680 C.2       1 1B7         0.0623
     12 C18         9.2830  -19.2260    8.1440 C.3       1 1B7         0.0037
     13 C19         8.4910  -18.1930    8.9150 C.2       1 1B7        -0.0532
     14 C20         7.8050  -17.1700    8.2660 C.2       1 1B7        -0.0174
     15 C23         8.4350  -18.1610   10.4120 C.2       1 1B7        -0.0570
     16 CL1         9.9880  -11.4120    4.4860 Cl        1 1B7        -0.0657
     17 C2         11.4370  -13.9080    7.2490 C.ar      1 1B7        -0.0183
     18 N9         11.4520  -16.0860    9.0010 N.2       1 1B7        -0.3557
     19 N13        10.8560  -17.4950    7.2250 N.pl3     1 1B7        -0.2786
     20 C14        10.7610  -18.7350    7.9980 C.3       1 1B7         0.1015
     21 O17        12.0170  -19.5470    6.1300 O.co2     1 1B7        -0.5664
     22 O16        11.6840  -20.9190    7.7680 O.co2     1 1B7        -0.5664
     23 S21         7.1270  -16.2880    9.5700 S.3       1 1B7        -0.0719
     24 C22         7.6800  -17.0930   10.9730 C.2       1 1B7        -0.0175
     25 C24         9.1910  -19.2530   11.1650 C.3       1 1B7        -0.0323
     26 C26         9.9560  -18.8860   12.4250 C.3       1 1B7        -0.0498
     27 C27        10.4350  -20.1480   13.1610 C.3       1 1B7        -0.0640
     28 H1         11.6721  -11.8354    6.7077 H         1 1B7         0.0580
     29 H2          9.3190  -16.1309    5.6546 H         1 1B7         0.0673
     30 H3          8.9630  -14.1070    4.2369 H         1 1B7         0.0585
     31 H4         13.3331  -14.3146    8.1835 H         1 1B7         0.0457
     32 H5         12.4852  -12.8602    8.8101 H         1 1B7         0.0457
     33 H6         12.2728  -15.4262   11.5369 H         1 1B7         0.0240
     34 H7         12.9088  -13.8066   11.0908 H         1 1B7         0.0240
     35 H8         13.6348  -15.2852   10.3744 H         1 1B7         0.0240
     36 H9          9.6727  -14.0068    9.2685 H         1 1B7         0.0240
     37 H10        10.6411  -13.0578   10.4467 H         1 1B7         0.0240
     38 H11         9.9856  -14.6646   10.9104 H         1 1B7         0.0240
     39 H12         8.8396  -19.3606    7.1464 H         1 1B7         0.0415
     40 H13         9.2649  -20.1833    8.6855 H         1 1B7         0.0415
     41 H14         7.7204  -16.9782    7.1974 H         1 1B7         0.0568
     42 H15        10.7756  -17.5459    6.1994 H         1 1B7         0.1914
     43 H16        11.1844  -18.5720    9.0000 H         1 1B7         0.0752
     44 H17         7.5016  -16.8521   12.0199 H         1 1B7         0.0568
     45 H18         9.9177  -19.6853   10.4615 H         1 1B7         0.0374
     46 H19         8.4538  -20.0189   11.4475 H         1 1B7         0.0374
     47 H20         9.2980  -18.3083   13.0908 H         1 1B7         0.0279
     48 H21        10.8289  -18.2750   12.1517 H         1 1B7         0.0279
     49 H22        10.9851  -19.8569   14.0680 H         1 1B7         0.0231
     50 H23        11.0968  -20.7283   12.5013 H         1 1B7         0.0231
     51 H24         9.5659  -20.7617   13.4404 H         1 1B7         0.0231
@<TRIPOS>BOND
     1    1    5 ar 
     2   17    1 ar 
     3    2    3 ar 
     4    8    2 1  
     5    2   17 ar 
     6    3    4 ar 
     7    4    5 ar 
     8    5   16 1  
     9    7    6 1  
    10   17    6 1  
    11    7    9 1  
    12    7   10 1  
    13   18    7 1  
    14    8   18 2  
    15   19    8 1  
    16   20   11 1  
    17   11   21 ar 
    18   11   22 ar 
    19   12   13 1  
    20   20   12 1  
    21   13   14 2  
    22   13   15 1  
    23   14   23 1  
    24   15   24 2  
    25   15   25 1  
    26   19   20 1  
    27   23   24 1  
    28   25   26 1  
    29   26   27 1  
    30    1   28 1  
    31    3   29 1  
    32    4   30 1  
    33    6   31 1  
    34    6   32 1  
    35    9   33 1  
    36    9   34 1  
    37    9   35 1  
    38   10   36 1  
    39   10   37 1  
    40   10   38 1  
    41   12   39 1  
    42   12   40 1  
    43   14   41 1  
    44   19   42 1  
    45   20   43 1  
    46   24   44 1  
    47   25   45 1  
    48   25   46 1  
    49   26   47 1  
    50   26   48 1  
    51   27   49 1  
    52   27   50 1  
    53   27   51 1  
@<TRIPOS>SUBSTRUCTURE
     1 1B7         1

