### 
### Created by X-TOOL on Mon Sep 10 21:13:15 2018
### 

@<TRIPOS>MOLECULE
4i0f_ligand
   49    52     1     0     0
SMALL
GAST_HUCK


@<TRIPOS>ATOM
      1 CL1         9.9610  -11.3380    4.5550 Cl        1 1BF        -0.0657
      2 C2         10.3020  -12.7740    5.5610 C.ar      1 1BF         0.0414
      3 C3          9.5710  -13.9400    5.3360 C.ar      1 1BF        -0.0462
      4 C4          9.7600  -15.0860    6.0900 C.ar      1 1BF        -0.0456
      5 C7         11.2740  -12.6430    6.5280 C.ar      1 1BF        -0.0374
      6 C6         11.4970  -13.7740    7.3240 C.ar      1 1BF        -0.0183
      7 C5         10.7310  -14.9860    7.0900 C.ar      1 1BF         0.0408
      8 C11        12.5080  -13.7890    8.4520 C.3       1 1BF        -0.0038
      9 C10        11.9110  -14.5950    9.5930 C.3       1 1BF         0.0107
     10 C28        12.9480  -14.6400   10.6960 C.3       1 1BF        -0.0529
     11 C29        10.6760  -13.8810   10.1890 C.3       1 1BF        -0.0529
     12 N9         11.5830  -15.9400    9.1050 N.2       1 1BF        -0.3557
     13 C8         11.0570  -16.1600    7.9690 C.2       1 1BF         0.1100
     14 N12        10.8080  -17.3620    7.4480 N.pl3     1 1BF        -0.2785
     15 C13        10.8320  -18.6080    8.2490 C.3       1 1BF         0.1018
     16 C25        11.5300  -19.6260    7.4030 C.2       1 1BF         0.0623
     17 O26        11.7920  -20.7450    7.8910 O.co2     1 1BF        -0.5664
     18 O27        11.7850  -19.4380    6.2100 O.co2     1 1BF        -0.5664
     19 C14         9.4280  -19.1070    8.6540 C.3       1 1BF         0.0040
     20 C15         9.0840  -18.2970    9.9050 C.2       1 1BF        -0.0539
     21 C16         9.6050  -18.5940   11.1740 C.2       1 1BF        -0.0153
     22 S17         9.0380  -17.3900   12.3000 S.3       1 1BF        -0.0649
     23 C18         8.0440  -16.4370   11.2510 C.2       1 1BF        -0.0126
     24 C19         8.1860  -17.0770   10.0060 C.2       1 1BF        -0.0448
     25 C20         7.5530  -16.4480    8.7970 C.2       1 1BF        -0.0156
     26 C21         7.4140  -15.0330    8.6720 C.2       1 1BF         0.0528
     27 N22         6.8870  -14.8100    7.4390 N.pl3     1 1BF        -0.2212
     28 N23         6.7150  -16.0870    6.8270 N.2       1 1BF        -0.2189
     29 C24         7.1460  -17.1040    7.6620 C.2       1 1BF         0.0009
     30 H1          8.8303  -13.9496    4.5446 H         1 1BF         0.0585
     31 H2          9.1955  -15.9951    5.9170 H         1 1BF         0.0673
     32 H3         11.8311  -11.7232    6.6645 H         1 1BF         0.0580
     33 H4         12.7128  -12.7611    8.7859 H         1 1BF         0.0457
     34 H5         13.4433  -14.2571    8.1113 H         1 1BF         0.0457
     35 H6         12.5545  -15.2170   11.5458 H         1 1BF         0.0240
     36 H7         13.1792  -13.6158   11.0239 H         1 1BF         0.0240
     37 H8         13.8633  -15.1199   10.3194 H         1 1BF         0.0240
     38 H9          9.8850  -13.8192    9.4271 H         1 1BF         0.0240
     39 H10        10.9575  -12.8667   10.5083 H         1 1BF         0.0240
     40 H11        10.3067  -14.4491   11.0556 H         1 1BF         0.0240
     41 H12        10.5892  -17.4270    6.4436 H         1 1BF         0.1914
     42 H13        11.4105  -18.4324    9.1680 H         1 1BF         0.0752
     43 H14         9.4474  -20.1833    8.8801 H         1 1BF         0.0419
     44 H15         8.6998  -18.9138    7.8525 H         1 1BF         0.0419
     45 H16        10.2540  -19.4348   11.4146 H         1 1BF         0.0571
     46 H17         7.4524  -15.5560   11.4954 H         1 1BF         0.0643
     47 H18         7.6774  -14.2823    9.4156 H         1 1BF         0.0975
     48 H19         6.6563  -13.8950    7.0261 H         1 1BF         0.2577
     49 H20         7.1590  -18.1748    7.4643 H         1 1BF         0.0657
@<TRIPOS>BOND
     1    1    2 1  
     2    2    3 ar 
     3    2    5 ar 
     4    3    4 ar 
     5    4    7 ar 
     6    5    6 ar 
     7    6    7 ar 
     8    6    8 1  
     9    7   13 1  
    10    8    9 1  
    11    9   10 1  
    12    9   11 1  
    13    9   12 1  
    14   12   13 2  
    15   13   14 1  
    16   14   15 1  
    17   15   16 1  
    18   15   19 1  
    19   16   17 ar 
    20   16   18 ar 
    21   19   20 1  
    22   20   21 2  
    23   20   24 1  
    24   21   22 1  
    25   22   23 1  
    26   23   24 2  
    27   24   25 1  
    28   25   26 2  
    29   25   29 1  
    30   26   27 1  
    31   27   28 1  
    32   28   29 2  
    33    3   30 1  
    34    4   31 1  
    35    5   32 1  
    36    8   33 1  
    37    8   34 1  
    38   10   35 1  
    39   10   36 1  
    40   10   37 1  
    41   11   38 1  
    42   11   39 1  
    43   11   40 1  
    44   14   41 1  
    45   15   42 1  
    46   19   43 1  
    47   19   44 1  
    48   21   45 1  
    49   23   46 1  
    50   26   47 1  
    51   27   48 1  
    52   29   49 1  
@<TRIPOS>SUBSTRUCTURE
     1 1BF         1

