### 
### Created by X-TOOL on Mon Sep 10 21:13:15 2018
### 

@<TRIPOS>MOLECULE
4i0r_ligand
   49    51     1     0     0
SMALL
GAST_HUCK


@<TRIPOS>ATOM
      1 C1          0.3090   -0.3010   14.6460 C.ar      1 1B4        -0.0276
      2 N2          3.6160   -1.2230   16.1340 N.ar      1 1B4        -0.2602
      3 C3          2.3220   -1.2460   15.8490 C.ar      1 1B4         0.0299
      4 C4          1.7670   -0.3020   14.9670 C.ar      1 1B4         0.0503
      5 N5          2.5640    0.6280   14.4440 N.ar      1 1B4        -0.2929
      6 C6          4.4130   -0.2950   15.6070 C.ar      1 1B4         0.1686
      7 C7          3.8630    0.6600   14.7310 C.ar      1 1B4         0.0840
      8 C8          4.9790    1.5340   14.3210 C.2       1 1B4         0.0751
      9 C9          6.0920    1.0710   14.9710 C.2       1 1B4         0.0619
     10 N10         5.7580   -0.0150   15.7200 N.pl3     1 1B4        -0.2471
     11 C11        -0.5480   -1.2460   15.2280 C.ar      1 1B4        -0.0406
     12 C12        -1.9110   -1.2420   14.9510 C.ar      1 1B4         0.1149
     13 C13        -2.4410   -0.2760   14.0760 C.ar      1 1B4         0.1510
     14 C14        -1.5990    0.6890   13.4970 C.ar      1 1B4         0.1149
     15 C15        -0.2300    0.6670   13.7830 C.ar      1 1B4        -0.0406
     16 O16        -2.7650   -2.1500   15.5210 O.3       1 1B4        -0.3274
     17 C17        -2.0680   -3.1450   16.2900 C.3       1 1B4         0.0565
     18 O18        -3.7860   -0.2320   13.8070 O.3       1 1B4        -0.3268
     19 C19        -4.1840   -1.2350   12.8690 C.3       1 1B4         0.0552
     20 O20        -2.1650    1.6100   12.6470 O.3       1 1B4        -0.3274
     21 C21        -1.2110    2.5530   12.1350 C.3       1 1B4         0.0565
     22 C22         4.8680    2.7140   13.4470 C.2       1 1B4         0.1827
     23 N23         3.6280    3.2260   13.2900 N.am      1 1B4        -0.2890
     24 O24         5.8470    3.2280   12.9320 O.2       1 1B4        -0.4019
     25 C25         3.3090    4.4210   12.5080 C.3       1 1B4         0.0351
     26 C26         2.0450    4.1830   11.6790 C.3       1 1B4        -0.0424
     27 C27         3.0240    5.5300   13.5400 C.3       1 1B4        -0.0424
     28 H1          1.6859   -1.9991   16.2998 H         1 1B4         0.0833
     29 H2          7.0886    1.5042   14.8996 H         1 1B4         0.1145
     30 H3          6.4210   -0.5551   16.2941 H         1 1B4         0.2387
     31 H4         -0.1424   -1.9904   15.9036 H         1 1B4         0.0446
     32 H5          0.4229    1.4061   13.3330 H         1 1B4         0.0446
     33 H6         -2.7943   -3.8473   16.7251 H         1 1B4         0.0572
     34 H7         -1.5028   -2.6554   17.0968 H         1 1B4         0.0572
     35 H8         -1.3737   -3.6936   15.6365 H         1 1B4         0.0572
     36 H9         -5.2662   -1.1584   12.6874 H         1 1B4         0.0570
     37 H10        -3.9499   -2.2302   13.2749 H         1 1B4         0.0570
     38 H11        -3.6422   -1.0881   11.9230 H         1 1B4         0.0570
     39 H12        -1.7193    3.2613   11.4642 H         1 1B4         0.0572
     40 H13        -0.4286    2.0172   11.5775 H         1 1B4         0.0572
     41 H14        -0.7542    3.1031   12.9709 H         1 1B4         0.0572
     42 H15         2.8715    2.7532   13.7419 H         1 1B4         0.1836
     43 H16         4.1483    4.6958   11.8522 H         1 1B4         0.0549
     44 H17         1.8139    5.0863   11.0953 H         1 1B4         0.0252
     45 H18         1.2038    3.9550   12.3501 H         1 1B4         0.0252
     46 H19         2.2086    3.3368   10.9956 H         1 1B4         0.0252
     47 H20         2.7752    6.4641   13.0151 H         1 1B4         0.0252
     48 H21         3.9153    5.6870   14.1652 H         1 1B4         0.0252
     49 H22         2.1781    5.2304   14.1761 H         1 1B4         0.0252
@<TRIPOS>BOND
     1    4    1 1  
     2    1   11 ar 
     3    1   15 ar 
     4    3    2 ar 
     5    2    6 ar 
     6    3    4 ar 
     7    4    5 ar 
     8    5    7 ar 
     9    6    7 ar 
    10    6   10 1  
    11    7    8 1  
    12    8    9 2  
    13    8   22 1  
    14    9   10 1  
    15   11   12 ar 
    16   12   13 ar 
    17   12   16 1  
    18   13   14 ar 
    19   13   18 1  
    20   14   15 ar 
    21   14   20 1  
    22   16   17 1  
    23   18   19 1  
    24   20   21 1  
    25   22   23 am 
    26   22   24 2  
    27   23   25 1  
    28   25   26 1  
    29   25   27 1  
    30    3   28 1  
    31    9   29 1  
    32   10   30 1  
    33   11   31 1  
    34   15   32 1  
    35   17   33 1  
    36   17   34 1  
    37   17   35 1  
    38   19   36 1  
    39   19   37 1  
    40   19   38 1  
    41   21   39 1  
    42   21   40 1  
    43   21   41 1  
    44   23   42 1  
    45   25   43 1  
    46   26   44 1  
    47   26   45 1  
    48   26   46 1  
    49   27   47 1  
    50   27   48 1  
    51   27   49 1  
@<TRIPOS>SUBSTRUCTURE
     1 1B4         1

