### 
### Created by X-TOOL on Mon Sep 10 21:13:15 2018
### 

@<TRIPOS>MOLECULE
4i0s_ligand
   43    46     1     0     0
SMALL
GAST_HUCK


@<TRIPOS>ATOM
      1 C1          2.5200   -1.6630   15.6980 C.ar      1 1B5         0.0321
      2 C2          1.8720   -0.6930   14.9270 C.ar      1 1B5         0.0709
      3 N3          2.5460    0.3630   14.4720 N.ar      1 1B5        -0.2911
      4 C4          3.8390    0.4800   14.7590 C.ar      1 1B5         0.0842
      5 C5          4.4860   -0.4990   15.5400 C.ar      1 1B5         0.1690
      6 N6          3.7990   -1.5470   15.9810 N.ar      1 1B5        -0.2597
      7 C7          4.8710    1.4780   14.4430 C.2       1 1B5         0.0752
      8 C8          6.0240    1.0490   15.0380 C.2       1 1B5         0.0621
      9 N9          5.7950   -0.1200   15.6760 N.pl3     1 1B5        -0.2469
     10 C10         0.4310   -0.8640   14.6440 C.2       1 1B5         0.0847
     11 C11         4.6840    2.7160   13.6830 C.2       1 1B5         0.1828
     12 O12         5.6520    3.4280   13.4810 O.2       1 1B5        -0.4019
     13 N13         3.4380    3.0500   13.2630 N.am      1 1B5        -0.2890
     14 C14         3.1460    4.2830   12.5240 C.3       1 1B5         0.0351
     15 N15        -0.2980   -1.8720   15.0550 N.2       1 1B5        -0.1871
     16 N16        -1.6170   -1.7210   14.6260 N.pl3     1 1B5        -0.1976
     17 C17        -1.7230   -0.5540   13.9170 C.ar      1 1B5         0.0945
     18 C18        -0.4440    0.0440   13.8950 C.ar      1 1B5         0.0208
     19 C19        -2.7800    0.0820   13.2740 C.ar      1 1B5        -0.0201
     20 C20        -2.5660    1.2810   12.6320 C.ar      1 1B5         0.0324
     21 C21        -1.3060    1.8760   12.6080 C.ar      1 1B5        -0.0580
     22 C22        -0.2470    1.2660   13.2300 C.ar      1 1B5        -0.0624
     23 C23        -2.6950   -2.6770   14.9100 C.3       1 1B5         0.0575
     24 CL2        -3.9120    2.0410   11.8460 Cl        1 1B5        -0.0743
     25 C25         2.1320    3.9890   11.4150 C.3       1 1B5        -0.0424
     26 C26         2.5110    5.2850   13.4960 C.3       1 1B5        -0.0424
     27 H1          1.9635   -2.5176   16.0654 H         1 1B5         0.0837
     28 H2          6.9801    1.5691   15.0033 H         1 1B5         0.1145
     29 H3          6.5078   -0.6533   16.1940 H         1 1B5         0.2388
     30 H4          2.6833    2.4264   13.4668 H         1 1B5         0.1836
     31 H5          4.0704    4.6962   12.0942 H         1 1B5         0.0549
     32 H6         -3.7678   -0.3645   13.2784 H         1 1B5         0.0568
     33 H7         -1.1630    2.8215   12.0974 H         1 1B5         0.0541
     34 H8          0.7355    1.7235   13.2088 H         1 1B5         0.0592
     35 H9         -3.6315   -2.3186   14.4577 H         1 1B5         0.0585
     36 H10        -2.8255   -2.7699   15.9983 H         1 1B5         0.0585
     37 H11        -2.4356   -3.6586   14.4867 H         1 1B5         0.0585
     38 H12         1.9145    4.9148   10.8622 H         1 1B5         0.0252
     39 H13         1.2039    3.6012   11.8601 H         1 1B5         0.0252
     40 H14         2.5491    3.2399   10.7259 H         1 1B5         0.0252
     41 H15         2.2830    6.2194   12.9623 H         1 1B5         0.0252
     42 H16         3.2121    5.4937   14.3175 H         1 1B5         0.0252
     43 H17         1.5824    4.8607   13.9053 H         1 1B5         0.0252
@<TRIPOS>BOND
     1    1    2 ar 
     2    1    6 ar 
     3    2    3 ar 
     4    2   10 1  
     5    3    4 ar 
     6    4    5 ar 
     7    4    7 1  
     8    5    6 ar 
     9    5    9 1  
    10    7    8 2  
    11    7   11 1  
    12    8    9 1  
    13   10   15 2  
    14   10   18 1  
    15   11   12 2  
    16   11   13 am 
    17   13   14 1  
    18   14   25 1  
    19   14   26 1  
    20   15   16 1  
    21   16   17 1  
    22   16   23 1  
    23   17   18 ar 
    24   17   19 ar 
    25   18   22 ar 
    26   19   20 ar 
    27   20   21 ar 
    28   20   24 1  
    29   21   22 ar 
    30    1   27 1  
    31    8   28 1  
    32    9   29 1  
    33   13   30 1  
    34   14   31 1  
    35   19   32 1  
    36   21   33 1  
    37   22   34 1  
    38   23   35 1  
    39   23   36 1  
    40   23   37 1  
    41   25   38 1  
    42   25   39 1  
    43   25   40 1  
    44   26   41 1  
    45   26   42 1  
    46   26   43 1  
@<TRIPOS>SUBSTRUCTURE
     1 1B5         1

