### 
### Created by X-TOOL on Mon Sep 10 21:13:15 2018
### 

@<TRIPOS>MOLECULE
4i0t_ligand
   47    50     1     0     0
SMALL
GAST_HUCK


@<TRIPOS>ATOM
      1 N1          3.0170   -1.8210   16.0550 N.ar      1 1B6        -0.2662
      2 C2          1.7270   -1.8220   15.7100 C.ar      1 1B6         0.0224
      3 C3          1.2110   -0.7470   14.9500 C.ar      1 1B6         0.0420
      4 N4          2.0450    0.2590   14.5790 N.ar      1 1B6        -0.3073
      5 C5          3.3240    0.2430   14.9310 C.ar      1 1B6         0.0739
      6 C6          3.8210   -0.8440   15.6850 C.ar      1 1B6         0.1626
      7 C7          4.4820    1.1440   14.7150 C.2       1 1B6         0.0721
      8 C8          5.5500    0.5900   15.3370 C.2       1 1B6         0.0603
      9 N9          5.1690   -0.5870   15.8910 N.pl3     1 1B6        -0.2501
     10 C10        -0.2380   -0.7500   14.5900 C.2       1 1B6         0.0439
     11 C11         4.4460    2.4760   14.0500 C.2       1 1B6         0.1823
     12 N12         3.2430    2.8630   13.5690 N.am      1 1B6        -0.2864
     13 O13         5.4630    3.1660   14.1050 O.2       1 1B6        -0.4022
     14 C14         2.9220    4.1610   12.9430 C.3       1 1B6         0.0434
     15 C15         3.1120    5.2860   13.9450 C.3       1 1B6        -0.0398
     16 C16         3.7650    4.5200   11.7260 C.3       1 1B6        -0.0398
     17 N17        -1.1990   -1.6020   15.0920 N.2       1 1B6        -0.3258
     18 C18        -2.3590   -1.3460   14.5930 C.2       1 1B6         0.0966
     19 N19        -2.2150   -0.3100   13.7140 N.pl3     1 1B6        -0.2366
     20 C20        -0.8750    0.0580   13.7140 C.2       1 1B6         0.0801
     21 C21         1.4560    4.1240   12.5690 C.3       1 1B6        -0.0398
     22 C22        -3.2570    0.3150   12.8580 C.3       1 1B6         0.0613
     23 C23        -2.7120    1.4970   12.0060 C.3       1 1B6        -0.0223
     24 C24        -1.2400    1.3450   11.6510 C.3       1 1B6        -0.0366
     25 C25        -0.3290    1.1840   12.8870 C.3       1 1B6         0.0113
     26 H1          1.0813   -2.6394   16.0098 H         1 1B6         0.0791
     27 H2          6.5497    1.0193   15.3842 H         1 1B6         0.1138
     28 H3          5.8041   -1.2154   16.4035 H         1 1B6         0.2374
     29 H4          2.4952    2.2034   13.6450 H         1 1B6         0.1839
     30 H5          2.8701    6.2470   13.4675 H         1 1B6         0.0254
     31 H6          4.1573    5.2995   14.2873 H         1 1B6         0.0254
     32 H7          2.4462    5.1265   14.8060 H         1 1B6         0.0254
     33 H8          3.4488    5.4991   11.3368 H         1 1B6         0.0254
     34 H9          3.6295    3.7549   10.9474 H         1 1B6         0.0254
     35 H10         4.8254    4.5654   12.0149 H         1 1B6         0.0254
     36 H11        -3.2879   -1.8629   14.8295 H         1 1B6         0.1192
     37 H12         1.1738    5.0768   12.0971 H         1 1B6         0.0254
     38 H13         0.8504    3.9697   13.4742 H         1 1B6         0.0254
     39 H14         1.2782    3.2988   11.8638 H         1 1B6         0.0254
     40 H15        -4.0633    0.6912   13.5048 H         1 1B6         0.0625
     41 H16        -3.6591   -0.4511   12.1787 H         1 1B6         0.0625
     42 H17        -2.8406    2.4288   12.5763 H         1 1B6         0.0295
     43 H18        -3.2932    1.5545   11.0739 H         1 1B6         0.0295
     44 H19        -0.9204    2.2389   11.0954 H         1 1B6         0.0293
     45 H20        -1.1242    0.4561   11.0134 H         1 1B6         0.0293
     46 H21         0.6974    0.9505   12.5677 H         1 1B6         0.0479
     47 H22        -0.3277    2.1138   13.4747 H         1 1B6         0.0479
@<TRIPOS>BOND
     1    1    2 ar 
     2    1    6 ar 
     3    2    3 ar 
     4    3    4 ar 
     5    3   10 1  
     6    4    5 ar 
     7    5    6 ar 
     8    5    7 1  
     9    6    9 1  
    10    7    8 2  
    11    7   11 1  
    12    8    9 1  
    13   10   17 1  
    14   10   20 2  
    15   11   12 am 
    16   11   13 2  
    17   12   14 1  
    18   14   15 1  
    19   14   16 1  
    20   14   21 1  
    21   17   18 2  
    22   18   19 1  
    23   19   20 1  
    24   19   22 1  
    25   20   25 1  
    26   22   23 1  
    27   23   24 1  
    28   24   25 1  
    29    2   26 1  
    30    8   27 1  
    31    9   28 1  
    32   12   29 1  
    33   15   30 1  
    34   15   31 1  
    35   15   32 1  
    36   16   33 1  
    37   16   34 1  
    38   16   35 1  
    39   18   36 1  
    40   21   37 1  
    41   21   38 1  
    42   21   39 1  
    43   22   40 1  
    44   22   41 1  
    45   23   42 1  
    46   23   43 1  
    47   24   44 1  
    48   24   45 1  
    49   25   46 1  
    50   25   47 1  
@<TRIPOS>SUBSTRUCTURE
     1 1B6         1

