### 
### Created by X-TOOL on Mon Sep 10 21:13:15 2018
### 

@<TRIPOS>MOLECULE
4i0z_ligand
   53    56     1     0     0
SMALL
GAST_HUCK


@<TRIPOS>ATOM
      1 CL1         9.6970  -11.8940    4.2690 Cl        1 1BB        -0.0657
      2 C1         10.0760  -13.2970    5.2830 C.ar      1 1BB         0.0414
      3 C2         11.0310  -13.1180    6.3260 C.ar      1 1BB        -0.0374
      4 C3         11.2370  -14.1990    7.1450 C.ar      1 1BB        -0.0183
      5 C4         10.5660  -15.3790    6.8830 C.ar      1 1BB         0.0409
      6 C5          9.5960  -15.5200    5.8520 C.ar      1 1BB        -0.0456
      7 C6          9.3590  -14.4640    4.9890 C.ar      1 1BB        -0.0462
      8 C9         12.2140  -14.1390    8.2860 C.3       1 1BB        -0.0038
      9 C10        11.6850  -14.9340    9.4720 C.3       1 1BB         0.0107
     10 N11        11.4390  -16.2990    8.9650 N.2       1 1BB        -0.3556
     11 C12        10.9000  -16.5170    7.7940 C.2       1 1BB         0.1114
     12 N13        10.6340  -17.7530    7.3220 N.pl3     1 1BB        -0.2699
     13 C14        10.9150  -18.9600    8.1250 C.3       1 1BB         0.1272
     14 C15         9.5850  -19.4920    8.7820 C.3       1 1BB         0.0239
     15 C27        12.8240  -14.9370   10.5270 C.3       1 1BB        -0.0529
     16 C28        10.3870  -14.2890   10.0350 C.3       1 1BB        -0.0529
     17 C7         11.3690  -20.0000    7.1650 C.2       1 1BB         0.1255
     18 N8         11.2760  -19.7740    5.8020 N.2       1 1BB        -0.2401
     19 C11        11.5740  -20.7400    4.9000 C.2       1 1BB         0.0831
     20 C13        11.8780  -22.0330    5.3250 C.3       1 1BB         0.2289
     21 C19        11.9510  -22.2580    6.7810 C.2       1 1BB         0.2051
     22 N24        11.6830  -21.2180    7.6350 N.2       1 1BB        -0.2524
     23 O25        12.2140  -23.3860    7.1930 O.2       1 1BB        -0.3882
     24 C26         9.1100  -18.5280    9.8990 C.ar      1 1BB        -0.0376
     25 C29         9.8100  -18.5650   11.1120 C.ar      1 1BB        -0.0600
     26 C30         9.5350  -17.7190   12.2230 C.ar      1 1BB        -0.0686
     27 C31         8.4270  -16.8150   12.0660 C.ar      1 1BB        -0.0687
     28 C32         7.7080  -16.7850   10.8450 C.ar      1 1BB        -0.0686
     29 C33         8.0220  -17.6240    9.7250 C.ar      1 1BB        -0.0600
     30 C8         12.1430  -22.9960    4.4930 C.1       1 1BB         0.1432
     31 N9         12.3580  -23.8810    3.7430 N.1       1 1BB        -0.2955
     32 H1         11.5627  -12.1835    6.4637 H         1 1BB         0.0580
     33 H2          9.0463  -16.4479    5.7430 H         1 1BB         0.0673
     34 H3          8.6733  -14.5345    4.1524 H         1 1BB         0.0585
     35 H4         12.3583  -13.0907    8.5864 H         1 1BB         0.0457
     36 H5         13.1761  -14.5639    7.9636 H         1 1BB         0.0457
     37 H6         10.2264  -17.8567    6.3818 H         1 1BB         0.1935
     38 H7         11.6765  -18.7553    8.8919 H         1 1BB         0.0882
     39 H8          9.7675  -20.4865    9.2152 H         1 1BB         0.0485
     40 H9          8.8041  -19.5656    8.0108 H         1 1BB         0.0485
     41 H10        12.5002  -15.5004   11.4145 H         1 1BB         0.0240
     42 H11        13.0593  -13.9019   10.8155 H         1 1BB         0.0240
     43 H12        13.7195  -15.4108   10.0985 H         1 1BB         0.0240
     44 H13        10.0247  -14.8798   10.8892 H         1 1BB         0.0240
     45 H14         9.6169  -14.2694    9.2498 H         1 1BB         0.0240
     46 H15        10.6011  -13.2616   10.3644 H         1 1BB         0.0240
     47 H16        11.5762  -20.5054    3.8366 H         1 1BB         0.1441
     48 H17        10.8130  -22.3078    5.3102 H         1 1BB         0.1172
     49 H18        10.6140  -19.2854   11.2109 H         1 1BB         0.0557
     50 H19        10.1245  -17.7537   13.1320 H         1 1BB         0.0599
     51 H20         8.1426  -16.1580   12.8800 H         1 1BB         0.0559
     52 H21         6.8788  -16.0929   10.7530 H         1 1BB         0.0599
     53 H22         7.4629  -17.5734    8.7977 H         1 1BB         0.0557
@<TRIPOS>BOND
     1    1    2 1  
     2    2    3 ar 
     3    2    7 ar 
     4    3    4 ar 
     5    4    5 ar 
     6    4    8 1  
     7    5    6 ar 
     8    5   11 1  
     9    6    7 ar 
    10    8    9 1  
    11    9   10 1  
    12    9   15 1  
    13    9   16 1  
    14   10   11 2  
    15   11   12 1  
    16   12   13 1  
    17   13   14 1  
    18   13   17 1  
    19   14   24 1  
    20   17   18 1  
    21   17   22 2  
    22   18   19 2  
    23   19   20 1  
    24   20   21 1  
    25   20   30 1  
    26   21   22 1  
    27   21   23 2  
    28   24   25 ar 
    29   24   29 ar 
    30   25   26 ar 
    31   26   27 ar 
    32   27   28 ar 
    33   28   29 ar 
    34   30   31 3  
    35    3   32 1  
    36    6   33 1  
    37    7   34 1  
    38    8   35 1  
    39    8   36 1  
    40   12   37 1  
    41   13   38 1  
    42   14   39 1  
    43   14   40 1  
    44   15   41 1  
    45   15   42 1  
    46   15   43 1  
    47   16   44 1  
    48   16   45 1  
    49   16   46 1  
    50   19   47 1  
    51   20   48 1  
    52   25   49 1  
    53   26   50 1  
    54   27   51 1  
    55   28   52 1  
    56   29   53 1  
@<TRIPOS>SUBSTRUCTURE
     1 1BB         1

