### 
### Created by X-TOOL on Mon Sep 10 21:13:13 2018
### 

@<TRIPOS>MOLECULE
4i10_ligand
   57    61     1     0     0
SMALL
GAST_HUCK


@<TRIPOS>ATOM
      1 CL1         9.8280  -11.9200    4.1360 Cl        1 1BS        -0.0657
      2 C1         10.1030  -13.3540    5.1540 C.ar      1 1BS         0.0414
      3 C2         11.0370  -13.1690    6.2190 C.ar      1 1BS        -0.0374
      4 C3         11.2540  -14.2180    7.0790 C.ar      1 1BS        -0.0183
      5 C4         10.6130  -15.4220    6.8500 C.ar      1 1BS         0.0409
      6 C5          9.6690  -15.5970    5.8120 C.ar      1 1BS        -0.0456
      7 C6          9.4220  -14.5680    4.8960 C.ar      1 1BS        -0.0462
      8 C9         12.2670  -14.1140    8.2210 C.3       1 1BS        -0.0038
      9 C10        11.7460  -14.9490    9.4060 C.3       1 1BS         0.0107
     10 N11        11.5780  -16.3210    8.9200 N.2       1 1BS        -0.3556
     11 C12        10.9890  -16.5600    7.7840 C.2       1 1BS         0.1115
     12 N13        10.7720  -17.8000    7.2990 N.pl3     1 1BS        -0.2674
     13 C14        10.9670  -19.0650    8.0430 C.3       1 1BS         0.1452
     14 C15         9.6080  -19.5730    8.6530 C.3       1 1BS         0.0266
     15 C27        12.6950  -14.9120   10.6240 C.3       1 1BS        -0.0529
     16 C28        10.3650  -14.3340    9.8270 C.3       1 1BS        -0.0529
     17 C7         11.3870  -20.0710    7.0820 C.2       1 1BS         0.1722
     18 N8         11.3450  -19.7620    5.7320 N.pl3     1 1BS        -0.2177
     19 C19        11.9630  -22.3430    6.6760 C.2       1 1BS         0.1650
     20 N24        11.7140  -21.3070    7.5340 N.2       1 1BS        -0.2645
     21 O25        12.2530  -23.4860    7.0960 O.2       1 1BS        -0.3995
     22 C26         9.1110  -18.6070    9.7370 C.ar      1 1BS        -0.0374
     23 C29         9.7460  -18.6310   11.0030 C.ar      1 1BS        -0.0600
     24 C30         9.3960  -17.7750   12.0660 C.ar      1 1BS        -0.0686
     25 C31         8.3500  -16.8600   11.8330 C.ar      1 1BS        -0.0687
     26 C32         7.7340  -16.8750   10.5760 C.ar      1 1BS        -0.0686
     27 C33         8.0610  -17.6980    9.4830 C.ar      1 1BS        -0.0600
     28 C8         11.9050  -22.0510    5.2140 C.ar      1 1BS         0.0874
     29 C16        11.6150  -20.7290    4.8050 C.ar      1 1BS         0.1147
     30 C17        11.6280  -20.4240    3.4110 C.ar      1 1BS        -0.0020
     31 C18        11.9320  -21.4430    2.4730 C.ar      1 1BS         0.0047
     32 N20        12.2420  -22.7030    2.9040 N.ar      1 1BS        -0.3055
     33 C21        12.2420  -23.0340    4.2490 C.ar      1 1BS         0.0197
     34 H1         11.5596  -12.2277    6.3449 H         1 1BS         0.0580
     35 H2          9.1327  -16.5350    5.7250 H         1 1BS         0.0673
     36 H3          8.7566  -14.6918    4.0493 H         1 1BS         0.0585
     37 H4         12.3770  -13.0630    8.5263 H         1 1BS         0.0457
     38 H5         13.2412  -14.5039    7.8909 H         1 1BS         0.0457
     39 H6         10.4418  -17.8730    6.3261 H         1 1BS         0.1937
     40 H7         11.7189  -18.9311    8.8346 H         1 1BS         0.0913
     41 H8          9.7599  -20.5679    9.0969 H         1 1BS         0.0487
     42 H9          8.8548  -19.6390    7.8541 H         1 1BS         0.0487
     43 H10        12.2735  -15.5230   11.4358 H         1 1BS         0.0240
     44 H11        12.8095  -13.8736   10.9682 H         1 1BS         0.0240
     45 H12        13.6777  -15.3132   10.3355 H         1 1BS         0.0240
     46 H13         9.9539  -14.9019   10.6746 H         1 1BS         0.0240
     47 H14         9.6669  -14.3850    8.9784 H         1 1BS         0.0240
     48 H15        10.5062  -13.2841   10.1232 H         1 1BS         0.0240
     49 H16        11.1109  -18.8061    5.4280 H         1 1BS         0.2376
     50 H17        10.5444  -19.3466   11.1626 H         1 1BS         0.0557
     51 H18         9.9084  -17.8184   13.0203 H         1 1BS         0.0599
     52 H19         8.0323  -16.1663   12.6030 H         1 1BS         0.0559
     53 H20         6.9173  -16.1775   10.4291 H         1 1BS         0.0599
     54 H21         7.5509  -17.6393    8.5283 H         1 1BS         0.0557
     55 H22        11.4067  -19.4188    3.0710 H         1 1BS         0.0654
     56 H23        11.9186  -21.2225    1.4117 H         1 1BS         0.0818
     57 H24        12.4984  -24.0395    4.5624 H         1 1BS         0.0846
@<TRIPOS>BOND
     1    1    2 1  
     2    2    3 ar 
     3    2    7 ar 
     4    3    4 ar 
     5    4    5 ar 
     6    4    8 1  
     7    5    6 ar 
     8    5   11 1  
     9    6    7 ar 
    10    8    9 1  
    11    9   10 1  
    12    9   15 1  
    13    9   16 1  
    14   10   11 2  
    15   11   12 1  
    16   12   13 1  
    17   13   14 1  
    18   13   17 1  
    19   14   22 1  
    20   17   18 1  
    21   17   20 2  
    22   18   29 1  
    23   20   19 1  
    24   19   21 2  
    25   19   28 1  
    26   22   23 ar 
    27   22   27 ar 
    28   23   24 ar 
    29   24   25 ar 
    30   25   26 ar 
    31   26   27 ar 
    32   28   29 ar 
    33   28   33 ar 
    34   29   30 ar 
    35   30   31 ar 
    36   31   32 ar 
    37   32   33 ar 
    38    3   34 1  
    39    6   35 1  
    40    7   36 1  
    41    8   37 1  
    42    8   38 1  
    43   12   39 1  
    44   13   40 1  
    45   14   41 1  
    46   14   42 1  
    47   15   43 1  
    48   15   44 1  
    49   15   45 1  
    50   16   46 1  
    51   16   47 1  
    52   16   48 1  
    53   18   49 1  
    54   23   50 1  
    55   24   51 1  
    56   25   52 1  
    57   26   53 1  
    58   27   54 1  
    59   30   55 1  
    60   31   56 1  
    61   33   57 1  
@<TRIPOS>SUBSTRUCTURE
     1 1BS         1

