### 
### Created by X-TOOL on Mon Sep 10 21:13:15 2018
### 

@<TRIPOS>MOLECULE
4i11_ligand
   45    47     1     0     0
SMALL
GAST_HUCK


@<TRIPOS>ATOM
      1 O17        11.8020  -21.2750    8.0160 O.co2     1 1CH        -0.5664
      2 C15        11.4320  -20.1590    7.5660 C.2       1 1CH         0.0628
      3 O16        11.5610  -19.8490    6.3610 O.co2     1 1CH        -0.5664
      4 C14        10.7090  -19.1670    8.4250 C.3       1 1CH         0.1051
      5 C18         9.3610  -19.6940    8.9380 C.3       1 1CH         0.0166
      6 C19         8.9190  -18.7200   10.0370 C.ar      1 1CH        -0.0391
      7 C24         7.8710  -17.8000    9.8080 C.ar      1 1CH        -0.0602
      8 C23         7.4970  -16.8750   10.8160 C.ar      1 1CH        -0.0686
      9 C22         8.1500  -16.8960   12.0530 C.ar      1 1CH        -0.0687
     10 C21         9.2030  -17.8160   12.2810 C.ar      1 1CH        -0.0686
     11 C20         9.5750  -18.7170   11.2720 C.ar      1 1CH        -0.0602
     12 N13        10.4870  -17.9640    7.6280 N.pl3     1 1CH        -0.2780
     13 C10        10.8020  -16.7090    8.0040 C.2       1 1CH         0.1101
     14 N9         11.3770  -16.4300    9.1270 N.2       1 1CH        -0.3556
     15 C8         11.6190  -15.0480    9.5440 C.3       1 1CH         0.0107
     16 C12        10.3000  -14.3980   10.0430 C.3       1 1CH        -0.0529
     17 C11        12.6380  -14.9880   10.6630 C.3       1 1CH        -0.0529
     18 C7         12.1300  -14.1820    8.3740 C.3       1 1CH        -0.0037
     19 C2         11.1250  -14.2810    7.2370 C.ar      1 1CH        -0.0185
     20 C3         10.4430  -15.5840    7.0550 C.ar      1 1CH         0.0409
     21 C4          9.5170  -15.7250    6.0010 C.ar      1 1CH        -0.0459
     22 C5          9.2580  -14.6340    5.1430 C.ar      1 1CH        -0.0601
     23 C6          9.9070  -13.4040    5.3200 C.ar      1 1CH        -0.0615
     24 C1         10.8420  -13.2200    6.3690 C.ar      1 1CH        -0.0512
     25 H1         11.3405  -18.9218    9.2917 H         1 1CH         0.0758
     26 H2          9.4780  -20.7074    9.3495 H         1 1CH         0.0467
     27 H3          8.6222  -19.7121    8.1232 H         1 1CH         0.0467
     28 H4          7.3504  -17.8013    8.8572 H         1 1CH         0.0557
     29 H5          6.7086  -16.1549   10.6287 H         1 1CH         0.0599
     30 H6          7.8506  -16.2090   12.8363 H         1 1CH         0.0559
     31 H7          9.7204  -17.8237   13.2335 H         1 1CH         0.0599
     32 H8         10.3808  -19.4194   11.4519 H         1 1CH         0.0557
     33 H9         10.0536  -18.0847    6.7014 H         1 1CH         0.1915
     34 H10        10.4966  -13.3610   10.3527 H         1 1CH         0.0240
     35 H11         9.9109  -14.9688   10.8990 H         1 1CH         0.0240
     36 H12         9.5582  -14.4037    9.2308 H         1 1CH         0.0240
     37 H13        12.7999  -13.9401   10.9556 H         1 1CH         0.0240
     38 H14        13.5875  -15.4232   10.3180 H         1 1CH         0.0240
     39 H15        12.2666  -15.5570   11.5280 H         1 1CH         0.0240
     40 H16        13.1103  -14.5508    8.0379 H         1 1CH         0.0458
     41 H17        12.2236  -13.1351    8.6984 H         1 1CH         0.0458
     42 H18         9.0053  -16.6686    5.8498 H         1 1CH         0.0673
     43 H19         8.5456  -14.7493    4.3341 H         1 1CH         0.0580
     44 H20         9.6909  -12.5831    4.6458 H         1 1CH         0.0657
     45 H21        11.3350  -12.2633    6.4984 H         1 1CH         0.0576
@<TRIPOS>BOND
     1    1    2 ar 
     2    2    3 ar 
     3    2    4 1  
     4    4    5 1  
     5    4   12 1  
     6    5    6 1  
     7    6    7 ar 
     8    6   11 ar 
     9    7    8 ar 
    10    8    9 ar 
    11    9   10 ar 
    12   10   11 ar 
    13   12   13 1  
    14   13   14 2  
    15   13   20 1  
    16   14   15 1  
    17   15   16 1  
    18   15   17 1  
    19   15   18 1  
    20   18   19 1  
    21   19   20 ar 
    22   19   24 ar 
    23   20   21 ar 
    24   21   22 ar 
    25   22   23 ar 
    26   23   24 ar 
    27    4   25 1  
    28    5   26 1  
    29    5   27 1  
    30    7   28 1  
    31    8   29 1  
    32    9   30 1  
    33   10   31 1  
    34   11   32 1  
    35   12   33 1  
    36   16   34 1  
    37   16   35 1  
    38   16   36 1  
    39   17   37 1  
    40   17   38 1  
    41   17   39 1  
    42   18   40 1  
    43   18   41 1  
    44   21   42 1  
    45   22   43 1  
    46   23   44 1  
    47   24   45 1  
@<TRIPOS>SUBSTRUCTURE
     1 1CH         1

