### 
### Created by X-TOOL on Mon Sep 10 21:13:15 2018
### 

@<TRIPOS>MOLECULE
4i12_ligand
   65    69     1     0     0
SMALL
GAST_HUCK


@<TRIPOS>ATOM
      1 CL1         9.9810  -11.2150    4.3850 Cl        1 1BC        -0.0657
      2 C1         10.2980  -12.6850    5.3870 C.ar      1 1BC         0.0414
      3 C6          9.6420  -13.9080    5.1110 C.ar      1 1BC        -0.0462
      4 C5          9.8880  -15.0330    5.9210 C.ar      1 1BC        -0.0456
      5 C4         10.7580  -14.8680    6.9950 C.ar      1 1BC         0.0410
      6 C12        11.0070  -16.0470    7.8810 C.2       1 1BC         0.1118
      7 N11        11.5550  -15.8350    8.9990 N.pl3     1 1BC        -0.2878
      8 C10        11.5380  -14.4460    9.3660 C.3       1 1BC         0.0597
      9 C28        12.6600  -14.5370   10.4690 C.3       1 1BC        -0.0366
     10 C27        10.5110  -13.8740   10.3470 C.3       1 1BC        -0.0366
     11 C9         12.2820  -13.5050    8.4920 C.3       1 1BC         0.0123
     12 C3         11.4090  -13.6440    7.2660 C.ar      1 1BC        -0.0166
     13 C2         11.1660  -12.5230    6.4850 C.ar      1 1BC        -0.0373
     14 N13        10.7190  -17.2650    7.4280 N.2       1 1BC        -0.3323
     15 C14        10.7420  -18.4690    8.1950 C.3       1 1BC         0.0918
     16 C15         9.2860  -18.8990    8.4760 C.3       1 1BC        -0.0089
     17 C11         8.7080  -17.9920    9.5580 C.2       1 1BC        -0.0561
     18 C13         7.7700  -16.8010    9.4450 C.2       1 1BC        -0.0584
     19 C16         7.3830  -16.0800   10.5430 C.2       1 1BC        -0.0228
     20 S17         8.1410  -16.8760   11.8430 S.3       1 1BC        -0.0609
     21 C18         9.0280  -18.1320   10.9810 C.2       1 1BC         0.0068
     22 C19         9.8940  -19.1720   11.6710 C.3       1 1BC        -0.0144
     23 C20        10.0040  -19.1470   13.1910 C.3       1 1BC        -0.0465
     24 C21        10.6750  -20.4550   13.6360 C.3       1 1BC        -0.0635
     25 C23         7.2890  -16.3070    8.1490 C.2       1 1BC        -0.0185
     26 C24         7.0330  -14.9680    7.8930 C.2       1 1BC         0.0528
     27 N25         6.6640  -14.9400    6.5680 N.pl3     1 1BC        -0.2210
     28 N26         6.7280  -16.2800    6.0800 N.2       1 1BC        -0.2188
     29 C29         7.1060  -17.1290    7.0600 C.2       1 1BC         0.0007
     30 C30        11.3810  -19.5060    7.2930 C.2       1 1BC         0.1571
     31 N31        11.3200  -20.8030    7.6050 N.2       1 1BC        -0.2698
     32 C32        11.8500  -21.7740    6.7930 C.2       1 1BC         0.1216
     33 C33        12.4210  -21.4130    5.5590 C.2       1 1BC         0.0008
     34 C34        12.4600  -20.0450    5.2410 C.2       1 1BC         0.0610
     35 N35        11.9160  -19.1420    6.1140 N.pl3     1 1BC        -0.2230
     36 O36        11.7880  -22.9690    7.1580 O.2       1 1BC        -0.4308
     37 H1          8.9518  -13.9786    4.2781 H         1 1BC         0.0585
     38 H2          9.4190  -15.9887    5.7166 H         1 1BC         0.0673
     39 H3         11.9684  -16.5759    9.5830 H         1 1BC         0.1897
     40 H4         12.8235  -13.5420   10.9086 H         1 1BC         0.0257
     41 H5         13.5948  -14.8943   10.0125 H         1 1BC         0.0257
     42 H6         12.3447  -15.2381   11.2558 H         1 1BC         0.0257
     43 H7         10.6885  -12.7962   10.4766 H         1 1BC         0.0257
     44 H8         10.6095  -14.3812   11.3181 H         1 1BC         0.0257
     45 H9          9.4972  -14.0336    9.9511 H         1 1BC         0.0257
     46 H10        13.3162  -13.8319    8.3090 H         1 1BC         0.0474
     47 H11        12.2865  -12.4791    8.8889 H         1 1BC         0.0474
     48 H12        11.6232  -11.5661    6.7095 H         1 1BC         0.0580
     49 H13        11.3045  -18.3431    9.1318 H         1 1BC         0.0687
     50 H14         9.2685  -19.9435    8.8205 H         1 1BC         0.0389
     51 H15         8.6887  -18.8058    7.5570 H         1 1BC         0.0389
     52 H16         6.7400  -15.2018   10.5767 H         1 1BC         0.0535
     53 H17        10.9128  -19.0603   11.2717 H         1 1BC         0.0421
     54 H18         9.4970  -20.1593   11.3922 H         1 1BC         0.0421
     55 H19         9.0016  -19.0703   13.6373 H         1 1BC         0.0284
     56 H20        10.6132  -18.2876   13.5078 H         1 1BC         0.0284
     57 H21        10.7679  -20.4650   14.7320 H         1 1BC         0.0231
     58 H22        11.6746  -20.5270   13.1826 H         1 1BC         0.0231
     59 H23        10.0630  -21.3097   13.3121 H         1 1BC         0.0231
     60 H24         7.1072  -14.1295    8.5839 H         1 1BC         0.0977
     61 H25         6.3918  -14.1063    6.0279 H         1 1BC         0.2578
     62 H26         7.2354  -18.2087    7.0023 H         1 1BC         0.0658
     63 H27        12.8171  -22.1641    4.8772 H         1 1BC         0.0401
     64 H28        12.9171  -19.7075    4.3120 H         1 1BC         0.1201
     65 H29        11.9164  -18.1443    5.8579 H         1 1BC         0.2451
@<TRIPOS>BOND
     1    1    2 1  
     2    2    3 ar 
     3    2   13 ar 
     4    3    4 ar 
     5    4    5 ar 
     6    5    6 1  
     7    5   12 ar 
     8    6    7 1  
     9    6   14 2  
    10    7    8 1  
    11    8    9 1  
    12    8   10 1  
    13    8   11 1  
    14   11   12 1  
    15   12   13 ar 
    16   14   15 1  
    17   15   16 1  
    18   15   30 1  
    19   16   17 1  
    20   17   18 1  
    21   17   21 2  
    22   18   19 2  
    23   18   25 1  
    24   19   20 1  
    25   20   21 1  
    26   21   22 1  
    27   22   23 1  
    28   23   24 1  
    29   25   26 2  
    30   25   29 1  
    31   26   27 1  
    32   27   28 1  
    33   28   29 2  
    34   30   31 2  
    35   30   35 1  
    36   31   32 1  
    37   32   33 1  
    38   32   36 2  
    39   33   34 2  
    40   34   35 1  
    41    3   37 1  
    42    4   38 1  
    43    7   39 1  
    44    9   40 1  
    45    9   41 1  
    46    9   42 1  
    47   10   43 1  
    48   10   44 1  
    49   10   45 1  
    50   11   46 1  
    51   11   47 1  
    52   13   48 1  
    53   15   49 1  
    54   16   50 1  
    55   16   51 1  
    56   19   52 1  
    57   22   53 1  
    58   22   54 1  
    59   23   55 1  
    60   23   56 1  
    61   24   57 1  
    62   24   58 1  
    63   24   59 1  
    64   26   60 1  
    65   27   61 1  
    66   29   62 1  
    67   33   63 1  
    68   34   64 1  
    69   35   65 1  
@<TRIPOS>SUBSTRUCTURE
     1 1BC         1

