### 
### Created by X-TOOL on Mon Sep 10 21:13:15 2018
### 

@<TRIPOS>MOLECULE
4i1c_ligand
   58    61     1     0     0
SMALL
GAST_HUCK


@<TRIPOS>ATOM
      1 CL1         9.8200  -11.2420    4.3270 Cl        1 1BE        -0.0657
      2 C1         10.1090  -12.7120    5.2590 C.ar      1 1BE         0.0414
      3 C6          9.4430  -13.9080    4.9480 C.ar      1 1BE        -0.0462
      4 C5          9.7060  -15.0280    5.7700 C.ar      1 1BE        -0.0456
      5 C4         10.5780  -14.9050    6.8570 C.ar      1 1BE         0.0408
      6 C12        10.8830  -16.0650    7.7680 C.2       1 1BE         0.1100
      7 N11        11.3660  -15.8300    8.9300 N.2       1 1BE        -0.3557
      8 C10        11.6200  -14.5080    9.4450 C.3       1 1BE         0.0107
      9 C28        12.7100  -14.5800   10.5360 C.3       1 1BE        -0.0529
     10 C27        10.3130  -13.9170   10.0460 C.3       1 1BE        -0.0529
     11 C9         12.1100  -13.5980    8.3250 C.3       1 1BE        -0.0038
     12 C3         11.1970  -13.6880    7.1480 C.ar      1 1BE        -0.0183
     13 C2         10.9790  -12.5760    6.3580 C.ar      1 1BE        -0.0374
     14 N13        10.6010  -17.2930    7.3600 N.pl3     1 1BE        -0.2788
     15 C14        10.5220  -18.5440    8.1600 C.3       1 1BE         0.0996
     16 C15         9.0690  -19.0050    8.3950 C.3       1 1BE        -0.0021
     17 C7         11.1850  -19.6560    7.3920 C.2       1 1BE         0.0620
     18 O8         11.2640  -20.8200    7.8450 O.co2     1 1BE        -0.5664
     19 O9         11.5920  -19.3290    6.2630 O.co2     1 1BE        -0.5664
     20 C11         8.5330  -18.0350    9.4230 C.2       1 1BE        -0.0561
     21 C13         7.6860  -16.8050    9.2610 C.2       1 1BE        -0.0584
     22 C16         7.3120  -16.0770   10.3660 C.2       1 1BE        -0.0228
     23 S17         8.0380  -16.8850   11.6980 S.3       1 1BE        -0.0609
     24 C18         8.8150  -18.2080   10.8600 C.2       1 1BE         0.0067
     25 C19         9.6620  -19.2920   11.5260 C.3       1 1BE        -0.0145
     26 C20         9.8760  -19.1650   13.0140 C.3       1 1BE        -0.0465
     27 C21        10.4760  -20.4440   13.5950 C.3       1 1BE        -0.0635
     28 C23         7.1970  -16.2870    7.9560 C.2       1 1BE        -0.0185
     29 C24         7.0030  -17.0570    6.8560 C.2       1 1BE         0.0007
     30 N25         6.6360  -16.1810    5.9090 N.2       1 1BE        -0.2188
     31 N26         6.6340  -14.8870    6.4350 N.pl3     1 1BE        -0.2210
     32 C29         7.0080  -14.9510    7.7310 C.2       1 1BE         0.0528
     33 H1          8.7555  -13.9703    4.1122 H         1 1BE         0.0585
     34 H2          9.2329  -15.9801    5.5583 H         1 1BE         0.0673
     35 H3         12.9032  -13.5707   10.9284 H         1 1BE         0.0240
     36 H4         13.6352  -14.9885   10.1036 H         1 1BE         0.0240
     37 H5         12.3682  -15.2320   11.3534 H         1 1BE         0.0240
     38 H6         10.5127  -12.9085   10.4373 H         1 1BE         0.0240
     39 H7          9.9597  -14.5638   10.8626 H         1 1BE         0.0240
     40 H8          9.5422  -13.8606    9.2632 H         1 1BE         0.0240
     41 H9         13.1220  -13.9061    8.0236 H         1 1BE         0.0457
     42 H10        12.1352  -12.5593    8.6861 H         1 1BE         0.0457
     43 H11        11.4615  -11.6303    6.5767 H         1 1BE         0.0580
     44 H12        10.4108  -17.3953    6.3529 H         1 1BE         0.1914
     45 H13        11.0247  -18.3883    9.1259 H         1 1BE         0.0749
     46 H14         9.0441  -20.0349    8.7805 H         1 1BE         0.0388
     47 H15         8.4863  -18.9478    7.4638 H         1 1BE         0.0388
     48 H16         6.6908  -15.1829   10.3916 H         1 1BE         0.0535
     49 H17        10.6513  -19.2847   11.0451 H         1 1BE         0.0421
     50 H18         9.1715  -20.2591   11.3411 H         1 1BE         0.0421
     51 H19         8.9092  -18.9687   13.5005 H         1 1BE         0.0284
     52 H20        10.5611  -18.3266   13.2081 H         1 1BE         0.0284
     53 H21        10.6203  -20.3219   14.6786 H         1 1BE         0.0231
     54 H22        11.4458  -20.6445   13.1162 H         1 1BE         0.0231
     55 H23         9.7939  -21.2866   13.4086 H         1 1BE         0.0231
     56 H24         7.1185  -18.1359    6.7634 H         1 1BE         0.0658
     57 H25         6.3886  -14.0288    5.9210 H         1 1BE         0.2578
     58 H26         7.1308  -14.1289    8.4345 H         1 1BE         0.0977
@<TRIPOS>BOND
     1    1    2 1  
     2    2    3 ar 
     3    2   13 ar 
     4    3    4 ar 
     5    4    5 ar 
     6    5    6 1  
     7    5   12 ar 
     8    6    7 2  
     9    6   14 1  
    10    7    8 1  
    11    8    9 1  
    12    8   10 1  
    13    8   11 1  
    14   11   12 1  
    15   12   13 ar 
    16   14   15 1  
    17   15   16 1  
    18   15   17 1  
    19   16   20 1  
    20   17   18 ar 
    21   17   19 ar 
    22   20   21 1  
    23   20   24 2  
    24   21   22 2  
    25   21   28 1  
    26   22   23 1  
    27   23   24 1  
    28   24   25 1  
    29   25   26 1  
    30   26   27 1  
    31   28   29 1  
    32   28   32 2  
    33   29   30 2  
    34   30   31 1  
    35   31   32 1  
    36    3   33 1  
    37    4   34 1  
    38    9   35 1  
    39    9   36 1  
    40    9   37 1  
    41   10   38 1  
    42   10   39 1  
    43   10   40 1  
    44   11   41 1  
    45   11   42 1  
    46   13   43 1  
    47   14   44 1  
    48   15   45 1  
    49   16   46 1  
    50   16   47 1  
    51   22   48 1  
    52   25   49 1  
    53   25   50 1  
    54   26   51 1  
    55   26   52 1  
    56   27   53 1  
    57   27   54 1  
    58   27   55 1  
    59   29   56 1  
    60   31   57 1  
    61   32   58 1  
@<TRIPOS>SUBSTRUCTURE
     1 1BE         1

