### 
### Created by X-TOOL on Mon Sep 10 21:13:15 2018
### 

@<TRIPOS>MOLECULE
4i1r_ligand
   52    55     1     0     0
SMALL
GAST_HUCK


@<TRIPOS>ATOM
      1 CAA       -28.9170  -13.1650   23.9130 C.3       1 LZU        -0.0428
      2 CAB       -29.9090  -19.8230   21.3180 C.3       1 LZU        -0.0058
      3 CAC       -27.5770  -12.1240   17.7870 C.ar      1 LZU        -0.0795
      4 CAD       -26.1820  -11.9450   17.6790 C.ar      1 LZU        -0.0803
      5 CAE       -32.6390  -13.2430   21.8850 C.3       1 LZU        -0.0432
      6 CAF       -32.2090  -12.3470   22.9850 C.3       1 LZU        -0.0123
      7 CAG       -31.5610  -13.8190   21.0570 C.3       1 LZU        -0.0094
      8 CAH       -28.0530  -13.3290   18.3290 C.ar      1 LZU        -0.0451
      9 CAI       -25.2980  -12.9410   18.0650 C.ar      1 LZU        -0.0581
     10 CAJ       -25.7950  -19.1670   20.5200 C.ar      1 LZU        -0.0681
     11 CAK       -25.0050  -18.0850   20.1230 C.ar      1 LZU        -0.0636
     12 CAL       -29.2510  -14.6600   20.9990 C.3       1 LZU         0.0134
     13 CAM       -31.0580  -12.9110   23.7670 C.3       1 LZU        -0.0319
     14 CAN       -29.2080  -15.4370   19.6170 C.3       1 LZU         0.0471
     15 CAO       -27.8300  -17.8570   20.1300 C.ar      1 LZU        -0.0332
     16 CAP       -30.4000  -14.3770   21.8570 C.3       1 LZU        -0.0190
     17 CAQ       -27.2120  -19.0750   20.5060 C.ar      1 LZU        -0.0023
     18 CAR       -27.1440  -14.3480   18.7690 C.ar      1 LZU         0.0747
     19 CAS       -27.0370  -16.7180   19.7330 C.ar      1 LZU         0.0690
     20 CAT       -25.7920  -14.1850   18.6650 C.ar      1 LZU         0.0495
     21 CAU       -25.6770  -16.8210   19.7510 C.ar      1 LZU         0.0437
     22 NAV       -29.9790  -13.4090   22.9020 N.4       1 LZU         0.2353
     23 NAW       -27.7510  -15.5700   19.2230 N.pl3     1 LZU        -0.2653
     24 SAX       -28.2720  -20.4300   20.9920 S.3       1 LZU        -0.1131
     25 SAY       -24.7670  -15.3730   19.4760 S.3       1 LZU        -0.0609
     26 H1        -29.1259  -12.2250   24.4447 H         1 LZU         0.0778
     27 H2        -27.9415  -13.0927   23.4099 H         1 LZU         0.0778
     28 H3        -28.8977  -13.9967   24.6326 H         1 LZU         0.0778
     29 H4        -30.5576  -20.6598   21.6166 H         1 LZU         0.0364
     30 H5        -30.3130  -19.3519   20.4098 H         1 LZU         0.0364
     31 H6        -29.8703  -19.0815   22.1295 H         1 LZU         0.0364
     32 H7        -28.2637  -11.3516   17.4602 H         1 LZU         0.0529
     33 H8        -25.7940  -11.0118   17.2871 H         1 LZU         0.0494
     34 H9        -33.3008  -12.6669   21.2216 H         1 LZU         0.0269
     35 H10       -33.2018  -14.0763   22.3309 H         1 LZU         0.0269
     36 H11       -33.0579  -12.1932   23.6675 H         1 LZU         0.0317
     37 H12       -31.9044  -11.3813   22.5552 H         1 LZU         0.0317
     38 H13       -31.1763  -13.0310   20.3929 H         1 LZU         0.0320
     39 H14       -31.9869  -14.6329   20.4519 H         1 LZU         0.0320
     40 H15       -29.1212  -13.4913   18.4160 H         1 LZU         0.0502
     41 H16       -24.2328  -12.7992   17.9222 H         1 LZU         0.0528
     42 H17       -25.3209  -20.0870   20.8423 H         1 LZU         0.0443
     43 H18       -23.9249  -18.1700   20.0885 H         1 LZU         0.0513
     44 H19       -28.8296  -13.6701   20.7701 H         1 LZU         0.0342
     45 H20       -28.5553  -15.2138   21.6465 H         1 LZU         0.0342
     46 H21       -31.4260  -13.7426   24.3859 H         1 LZU         0.0814
     47 H22       -30.6528  -12.1215   24.4170 H         1 LZU         0.0814
     48 H23       -29.7558  -14.8710   18.8492 H         1 LZU         0.0559
     49 H24       -29.6601  -16.4333   19.7305 H         1 LZU         0.0559
     50 H25       -28.9112  -17.7794   20.1405 H         1 LZU         0.0451
     51 H26       -30.7239  -15.3107   22.3399 H         1 LZU         0.0852
     52 H27       -29.7792  -12.6520   22.2671 H         1 LZU         0.2033
@<TRIPOS>BOND
     1   22    1 1  
     2   24    2 1  
     3    3    4 ar 
     4    8    3 ar 
     5    9    4 ar 
     6    5    6 1  
     7    7    5 1  
     8   13    6 1  
     9   16    7 1  
    10   18    8 ar 
    11   20    9 ar 
    12   11   10 ar 
    13   17   10 ar 
    14   21   11 ar 
    15   14   12 1  
    16   12   16 1  
    17   22   13 1  
    18   23   14 1  
    19   15   17 ar 
    20   19   15 ar 
    21   16   22 1  
    22   17   24 1  
    23   18   20 ar 
    24   23   18 1  
    25   19   21 ar 
    26   19   23 1  
    27   20   25 1  
    28   21   25 1  
    29    1   26 1  
    30    1   27 1  
    31    1   28 1  
    32    2   29 1  
    33    2   30 1  
    34    2   31 1  
    35    3   32 1  
    36    4   33 1  
    37    5   34 1  
    38    5   35 1  
    39    6   36 1  
    40    6   37 1  
    41    7   38 1  
    42    7   39 1  
    43    8   40 1  
    44    9   41 1  
    45   10   42 1  
    46   11   43 1  
    47   12   44 1  
    48   12   45 1  
    49   13   46 1  
    50   13   47 1  
    51   14   48 1  
    52   14   49 1  
    53   15   50 1  
    54   16   51 1  
    55   22   52 1  
@<TRIPOS>SUBSTRUCTURE
     1 LZU         1

