### 
### Created by X-TOOL on Mon Sep 10 21:13:09 2018
### 

@<TRIPOS>MOLECULE
4i47_ligand
   19    20     1     0     0
SMALL
GAST_HUCK


@<TRIPOS>ATOM
      1 C1         22.0220    7.7740    9.2430 C.3       1 MY6         0.0447
      2 N2         23.0830    4.5280    7.8470 N.2       1 MY6        -0.3094
      3 C3         22.7730    5.8660    7.7720 C.2       1 MY6         0.0994
      4 N4         22.3960    6.3410    8.9950 N.pl3     1 MY6        -0.2481
      5 C5         22.4570    5.2810    9.8750 C.2       1 MY6         0.1487
      6 C6         22.1850    5.1400   11.2820 C.2       1 MY6         0.2405
      7 O7         21.7840    6.1700   12.1180 O.2       1 MY6        -0.4030
      8 N8         22.3710    3.8890   11.8390 N.am      1 MY6        -0.1836
      9 C9         22.8030    2.7890   11.0930 C.2       1 MY6         0.2257
     10 N10        22.9930    1.5680   11.6830 N.pl3     1 MY6        -0.2836
     11 N11        23.0630    2.9170    9.7380 N.2       1 MY6        -0.3093
     12 C12        22.8920    4.1600    9.1510 C.2       1 MY6         0.0503
     13 H1         22.0857    8.3379    8.3007 H         1 MY6         0.0579
     14 H2         22.7126    8.2111    9.9792 H         1 MY6         0.0579
     15 H3         20.9937    7.8228    9.6307 H         1 MY6         0.0579
     16 H4         22.8216    6.4636    6.8629 H         1 MY6         0.1279
     17 H5         22.1893    3.7660   12.8146 H         1 MY6         0.2501
     18 H6         23.3118    0.7674   11.1188 H         1 MY6         0.1881
     19 H7         22.8172    1.4502   12.6910 H         1 MY6         0.1881
@<TRIPOS>BOND
     1    4    1 1  
     2    3    2 2  
     3    2   12 1  
     4    3    4 1  
     5    4    5 1  
     6    5    6 1  
     7    5   12 2  
     8    6    7 2  
     9    6    8 am 
    10    8    9 am 
    11    9   10 1  
    12    9   11 2  
    13   11   12 1  
    14    1   13 1  
    15    1   14 1  
    16    1   15 1  
    17    3   16 1  
    18    8   17 1  
    19   10   18 1  
    20   10   19 1  
@<TRIPOS>SUBSTRUCTURE
     1 MY6         1

