### 
### Created by X-TOOL on Mon Sep 10 21:13:12 2018
### 

@<TRIPOS>MOLECULE
4i4e_ligand
   59    63     1     0     0
SMALL
GAST_HUCK


@<TRIPOS>ATOM
      1 C1          9.2900    3.4580   24.3610 C.3       1 1BQ         0.0477
      2 N2          7.9180    3.5940   24.8730 N.am      1 1BQ        -0.1738
      3 C3          7.3540    2.5910   25.6880 C.ar      1 1BQ         0.0844
      4 C4          8.2010    1.7770   26.4590 C.ar      1 1BQ        -0.0388
      5 C5          7.6730    0.7900   27.2720 C.ar      1 1BQ        -0.0662
      6 C6          6.2810    0.5680   27.3440 C.ar      1 1BQ        -0.0298
      7 C7          5.4260    1.3740   26.5940 C.ar      1 1BQ        -0.0551
      8 C8          5.9640    2.3770   25.7800 C.ar      1 1BQ         0.0344
      9 C9          5.0340    3.1940   25.0070 C.2       1 1BQ         0.1065
     10 N10         3.7360    2.9960   24.7620 N.pl3     1 1BQ        -0.2188
     11 N12         3.2890    4.0610   23.9630 N.2       1 1BQ        -0.2235
     12 C13         4.2890    4.8980   23.7520 C.2       1 1BQ         0.0177
     13 C14         5.3860    4.3870   24.3980 C.2       1 1BQ         0.1293
     14 S15         7.0420    4.9810   24.5140 S.o2      1 1BQ         0.0810
     15 O16         7.1160    5.8300   25.6570 O.2       1 1BQ        -0.1486
     16 O17         7.3800    5.4510   23.2180 O.2       1 1BQ        -0.1486
     17 C18         5.7200   -0.4780   28.2450 C.ar      1 1BQ        -0.0243
     18 C19         4.3310   -0.6890   28.3610 C.ar      1 1BQ        -0.0530
     19 C20         3.8390   -1.6640   29.2170 C.ar      1 1BQ        -0.0446
     20 C21         4.7420   -2.4360   29.9700 C.ar      1 1BQ         0.0469
     21 C22         6.1170   -2.2000   29.8750 C.ar      1 1BQ        -0.0446
     22 C23         6.6030   -1.2370   29.0130 C.ar      1 1BQ        -0.0530
     23 C24         4.2970   -3.4650   30.9370 C.2       1 1BQ         0.2051
     24 O25         3.7140   -3.0740   31.9320 O.2       1 1BQ        -0.3861
     25 N26         4.5330   -4.7850   30.7920 N.am      1 1BQ        -0.2729
     26 C27         4.0670   -5.7290   31.8260 C.3       1 1BQ         0.0335
     27 C28         3.2840   -6.9060   31.2240 C.3       1 1BQ        -0.0296
     28 C29         3.9280   -7.4240   29.9340 C.3       1 1BQ        -0.0353
     29 C30         2.9990   -8.4420   29.2780 C.3       1 1BQ        -0.0268
     30 C31         3.7490   -9.7720   29.3060 C.3       1 1BQ         0.0445
     31 O32         4.3370   -9.9710   28.0200 O.3       1 1BQ        -0.3950
     32 C33         4.2230   -6.2780   28.9580 C.3       1 1BQ        -0.0296
     33 C34         5.2290   -5.3440   29.6210 C.3       1 1BQ         0.0335
     34 H1          9.7103    2.4961   24.6896 H         1 1BQ         0.0528
     35 H2          9.9093    4.2803   24.7487 H         1 1BQ         0.0528
     36 H3          9.2766    3.4958   23.2617 H         1 1BQ         0.0528
     37 H4          9.2743    1.9232   26.4165 H         1 1BQ         0.0495
     38 H5          8.3409    0.1756   27.8649 H         1 1BQ         0.0598
     39 H6          4.3533    1.2250   26.6410 H         1 1BQ         0.0595
     40 H7          3.1666    2.2061   25.0979 H         1 1BQ         0.2522
     41 H8          4.2499    5.8201   23.1740 H         1 1BQ         0.0670
     42 H9          3.6436   -0.0864   27.7784 H         1 1BQ         0.0610
     43 H10         2.7712   -1.8288   29.3044 H         1 1BQ         0.0661
     44 H11         6.8057   -2.7767   30.4819 H         1 1BQ         0.0661
     45 H12         7.6712   -1.0708   28.9331 H         1 1BQ         0.0610
     46 H13         3.4138   -5.1911   32.5288 H         1 1BQ         0.0522
     47 H14         4.9406   -6.1234   32.3658 H         1 1BQ         0.0522
     48 H15         2.2594   -6.5738   31.0008 H         1 1BQ         0.0287
     49 H16         3.2524   -7.7242   31.9585 H         1 1BQ         0.0287
     50 H17         4.8767   -7.9191   30.1886 H         1 1BQ         0.0303
     51 H18         2.7804   -8.1479   28.2409 H         1 1BQ         0.0290
     52 H19         2.0584   -8.5213   29.8427 H         1 1BQ         0.0290
     53 H20         3.0492  -10.5912   29.5278 H         1 1BQ         0.0557
     54 H21         4.5344   -9.7421   30.0755 H         1 1BQ         0.0557
     55 H22         4.9369   -9.2583   27.8336 H         1 1BQ         0.2094
     56 H23         3.2959   -5.7301   28.7340 H         1 1BQ         0.0287
     57 H24         4.6454   -6.6807   28.0256 H         1 1BQ         0.0287
     58 H25         6.1230   -5.9024   29.9353 H         1 1BQ         0.0522
     59 H26         5.5227   -4.5412   28.9287 H         1 1BQ         0.0522
@<TRIPOS>BOND
     1    1    2 1  
     2    2    3 1  
     3    2   14 am 
     4    3    4 ar 
     5    3    8 ar 
     6    4    5 ar 
     7    5    6 ar 
     8    6    7 ar 
     9    6   17 1  
    10    7    8 ar 
    11    8    9 1  
    12    9   10 1  
    13    9   13 2  
    14   10   11 1  
    15   11   12 2  
    16   12   13 1  
    17   13   14 1  
    18   14   15 2  
    19   14   16 2  
    20   17   18 ar 
    21   17   22 ar 
    22   18   19 ar 
    23   19   20 ar 
    24   20   21 ar 
    25   20   23 1  
    26   21   22 ar 
    27   23   24 2  
    28   23   25 am 
    29   25   26 1  
    30   25   33 1  
    31   26   27 1  
    32   27   28 1  
    33   28   29 1  
    34   28   32 1  
    35   29   30 1  
    36   30   31 1  
    37   32   33 1  
    38    1   34 1  
    39    1   35 1  
    40    1   36 1  
    41    4   37 1  
    42    5   38 1  
    43    7   39 1  
    44   10   40 1  
    45   12   41 1  
    46   18   42 1  
    47   19   43 1  
    48   21   44 1  
    49   22   45 1  
    50   26   46 1  
    51   26   47 1  
    52   27   48 1  
    53   27   49 1  
    54   28   50 1  
    55   29   51 1  
    56   29   52 1  
    57   30   53 1  
    58   30   54 1  
    59   31   55 1  
    60   32   56 1  
    61   32   57 1  
    62   33   58 1  
    63   33   59 1  
@<TRIPOS>SUBSTRUCTURE
     1 1BQ         1

