### 
### Created by X-TOOL on Mon Sep 10 21:13:14 2018
### 

@<TRIPOS>MOLECULE
4i4f_ligand
   55    58     1     0     0
SMALL
GAST_HUCK


@<TRIPOS>ATOM
      1 C1        -10.3180   -1.1070  -15.5770 C.3       1 1BR         0.0437
      2 N2        -11.1020    0.0190  -15.0940 N.am      1 1BR        -0.1833
      3 C3        -11.0790    1.2690  -15.7690 C.ar      1 1BR         0.0684
      4 C4        -11.0680    1.2500  -17.1730 C.ar      1 1BR        -0.0517
      5 C5        -10.9780    2.4660  -17.8810 C.ar      1 1BR        -0.0573
      6 C6        -10.9100    3.6870  -17.1760 C.ar      1 1BR         0.0248
      7 N7        -10.8750    4.9040  -17.8950 N.pl3     1 1BR        -0.3153
      8 C8        -10.1840    6.1430  -17.4240 C.3       1 1BR         0.0699
      9 C9         -9.7710    6.8800  -18.6980 C.ar      1 1BR         0.0095
     10 C10        -8.7010    6.3810  -19.4410 C.ar      1 1BR        -0.0266
     11 C11        -8.3030    7.0250  -20.6040 C.ar      1 1BR        -0.0449
     12 C12        -9.0020    8.1520  -21.0590 C.ar      1 1BR        -0.0568
     13 C13       -10.0640    8.6550  -20.3030 C.ar      1 1BR        -0.0449
     14 C14       -10.4770    8.0010  -19.1160 C.ar      1 1BR        -0.0266
     15 C15        -8.5590    8.8140  -22.3590 C.3       1 1BR        -0.0520
     16 C16        -8.7320    7.8230  -23.5310 C.3       1 1BR        -0.0877
     17 C17        -9.3960   10.0560  -22.6790 C.3       1 1BR        -0.0877
     18 C18        -7.0890    9.2540  -22.2770 C.3       1 1BR        -0.0877
     19 C19       -10.9470    3.6960  -15.7870 C.ar      1 1BR        -0.0478
     20 C20       -10.9960    2.4910  -15.0580 C.ar      1 1BR         0.0205
     21 C21       -11.0060    2.4930  -13.5710 C.2       1 1BR         0.1052
     22 C22       -11.4010    1.3650  -12.8590 C.2       1 1BR         0.1282
     23 C23       -11.2890    1.6150  -11.4960 C.2       1 1BR         0.0177
     24 N24       -10.8120    2.8260  -11.3520 N.2       1 1BR        -0.2214
     25 N25       -10.6370    3.3960  -12.6200 N.pl3     1 1BR        -0.2085
     26 C26       -10.1240    4.7490  -12.8000 C.3       1 1BR         0.0576
     27 S27       -11.9390   -0.0720  -13.6790 S.o2      1 1BR         0.0778
     28 O28       -13.3140    0.1420  -14.0330 O.2       1 1BR        -0.1494
     29 O29       -11.6000   -1.2660  -12.9940 O.2       1 1BR        -0.1494
     30 H1         -9.8419   -0.8395  -16.5319 H         1 1BR         0.0518
     31 H2        -10.9766   -1.9753  -15.7263 H         1 1BR         0.0518
     32 H3         -9.5425   -1.3577  -14.8382 H         1 1BR         0.0518
     33 H4        -11.1282    0.3090  -17.7077 H         1 1BR         0.0458
     34 H5        -10.9611    2.4632  -18.9649 H         1 1BR         0.0489
     35 H6        -11.3579    4.9391  -18.8041 H         1 1BR         0.1743
     36 H7         -9.2993    5.8865  -16.8227 H         1 1BR         0.0744
     37 H8        -10.8678    6.7620  -16.8247 H         1 1BR         0.0744
     38 H9         -8.1802    5.4898  -19.1098 H         1 1BR         0.0653
     39 H10        -7.4499    6.6560  -21.1618 H         1 1BR         0.0833
     40 H11       -10.5764    9.5535  -20.6275 H         1 1BR         0.0833
     41 H12       -11.3242    8.3668  -18.5472 H         1 1BR         0.0653
     42 H13        -8.4117    8.3031  -24.4674 H         1 1BR         0.0126
     43 H14        -9.7896    7.5314  -23.6116 H         1 1BR         0.0126
     44 H15        -8.1179    6.9288  -23.3488 H         1 1BR         0.0126
     45 H16        -9.2960   10.7860  -21.8622 H         1 1BR         0.0126
     46 H17       -10.4523    9.7686  -22.7865 H         1 1BR         0.0126
     47 H18        -9.0409   10.5056  -23.6180 H         1 1BR         0.0126
     48 H19        -6.4578    8.3828  -22.0477 H         1 1BR         0.0126
     49 H20        -6.9756   10.0079  -21.4840 H         1 1BR         0.0126
     50 H21        -6.7813    9.6862  -23.2406 H         1 1BR         0.0126
     51 H22       -10.9381    4.6418  -15.2575 H         1 1BR         0.0471
     52 H23       -11.5508    0.9277  -10.6929 H         1 1BR         0.0670
     53 H24        -9.9270    5.2003  -11.8164 H         1 1BR         0.0594
     54 H25       -10.8677    5.3545  -13.3388 H         1 1BR         0.0594
     55 H26        -9.1904    4.7130  -13.3805 H         1 1BR         0.0594
@<TRIPOS>BOND
     1    1    2 1  
     2    2    3 1  
     3    2   27 am 
     4    3    4 ar 
     5    3   20 ar 
     6    4    5 ar 
     7    5    6 ar 
     8    6    7 1  
     9    6   19 ar 
    10    7    8 1  
    11    8    9 1  
    12    9   10 ar 
    13    9   14 ar 
    14   10   11 ar 
    15   11   12 ar 
    16   12   13 ar 
    17   12   15 1  
    18   13   14 ar 
    19   15   16 1  
    20   15   17 1  
    21   15   18 1  
    22   19   20 ar 
    23   20   21 1  
    24   21   22 2  
    25   21   25 1  
    26   22   23 1  
    27   22   27 1  
    28   23   24 2  
    29   24   25 1  
    30   25   26 1  
    31   27   28 2  
    32   27   29 2  
    33    1   30 1  
    34    1   31 1  
    35    1   32 1  
    36    4   33 1  
    37    5   34 1  
    38    7   35 1  
    39    8   36 1  
    40    8   37 1  
    41   10   38 1  
    42   11   39 1  
    43   13   40 1  
    44   14   41 1  
    45   16   42 1  
    46   16   43 1  
    47   16   44 1  
    48   17   45 1  
    49   17   46 1  
    50   17   47 1  
    51   18   48 1  
    52   18   49 1  
    53   18   50 1  
    54   19   51 1  
    55   23   52 1  
    56   26   53 1  
    57   26   54 1  
    58   26   55 1  
@<TRIPOS>SUBSTRUCTURE
     1 1BR         1

