### 
### Created by X-TOOL on Mon Sep 10 21:13:14 2018
### 

@<TRIPOS>MOLECULE
4i54_ligand
   48    50     1     0     0
SMALL
GAST_HUCK


@<TRIPOS>ATOM
      1 N01         1.2740  -15.2430  -10.4490 N.pl3     1 1C1        -0.2849
      2 C02         0.6000  -15.0000  -11.5220 C.cat     1 1C1         0.2883
      3 N03        -0.2250  -13.7910  -11.5970 N.pl3     1 1C1        -0.2717
      4 C04        -1.0110  -13.5350  -12.8070 C.3       1 1C1         0.0708
      5 C05        -2.5080  -13.5520  -12.5310 C.3       1 1C1         0.0326
      6 C06        -3.2220  -13.0970  -13.7630 C.3       1 1C1        -0.0117
      7 C07        -4.0830  -14.2770  -14.1700 C.ar      1 1C1        -0.0382
      8 C08        -4.9710  -14.4140  -15.3670 C.ar      1 1C1        -0.0668
      9 C09        -5.6850  -15.6250  -15.5130 C.ar      1 1C1        -0.0755
     10 C10        -5.5940  -16.6800  -14.5970 C.ar      1 1C1        -0.0754
     11 C11        -4.7510  -16.5720  -13.4540 C.ar      1 1C1        -0.0646
     12 C12        -3.9690  -15.3000  -13.2700 C.ar      1 1C1        -0.0153
     13 C13        -3.0270  -14.8770  -12.1630 C.3       1 1C1         0.0817
     14 N14        -3.8440  -14.7360  -10.9620 N.am      1 1C1        -0.2610
     15 C15        -3.4230  -15.3060   -9.6900 C.2       1 1C1         0.2927
     16 O16        -2.2400  -15.5290   -9.5030 O.2       1 1C1        -0.3579
     17 C17        -4.4040  -15.2100   -8.5580 C.2       1 1C1         0.3121
     18 O18        -5.4940  -14.6720   -8.7980 O.2       1 1C1        -0.3460
     19 N19        -3.9410  -15.5040   -7.2040 N.am      1 1C1        -0.2228
     20 C20        -4.5280  -14.9470   -6.0090 C.ar      1 1C1         0.0659
     21 C21        -5.8440  -14.8140   -5.9380 C.ar      1 1C1        -0.0073
     22 C22        -6.5380  -14.5910   -4.7640 C.ar      1 1C1         0.1334
     23 F23        -7.8580  -14.4480   -4.6500 F         1 1C1        -0.1867
     24 C24        -5.6980  -14.5200   -3.5880 C.ar      1 1C1         0.0570
     25 CL1        -6.5530  -14.2210   -2.1190 Cl        1 1C1        -0.0860
     26 C26        -4.2970  -14.6550   -3.6810 C.ar      1 1C1        -0.0630
     27 C27        -3.7470  -14.8680   -4.9320 C.ar      1 1C1        -0.0442
     28 N28         0.6480  -15.8380  -12.5580 N.pl3     1 1C1        -0.2849
     29 H1          1.8565  -16.0903  -10.3875 H         1 1C1         0.2615
     30 H2          1.2296  -14.5897   -9.6539 H         1 1C1         0.2615
     31 H3         -0.2520  -13.1290  -10.8084 H         1 1C1         0.2642
     32 H4         -0.7787  -14.3106  -13.5517 H         1 1C1         0.0695
     33 H5         -0.7352  -12.5482  -13.2071 H         1 1C1         0.0695
     34 H6         -2.7170  -12.8548  -11.7063 H         1 1C1         0.0398
     35 H7         -2.5034  -12.8492  -14.5581 H         1 1C1         0.0417
     36 H8         -3.8468  -12.2180  -13.5464 H         1 1C1         0.0417
     37 H9         -5.0630  -13.6152  -16.0940 H         1 1C1         0.0537
     38 H10        -6.3330  -15.7424  -16.3740 H         1 1C1         0.0541
     39 H11        -6.1688  -17.5847  -14.7587 H         1 1C1         0.0541
     40 H12        -4.6751  -17.3823  -12.7379 H         1 1C1         0.0538
     41 H13        -2.2131  -15.6023  -12.0162 H         1 1C1         0.0711
     42 H14        -4.7098  -14.2382  -11.0136 H         1 1C1         0.1893
     43 H15        -3.1688  -16.1306   -7.0985 H         1 1C1         0.2273
     44 H16        -6.4122  -14.8845   -6.8585 H         1 1C1         0.0488
     45 H17        -3.6703  -14.5937   -2.7986 H         1 1C1         0.0575
     46 H18        -2.6731  -14.9714   -5.0372 H         1 1C1         0.0472
     47 H19         1.2275  -16.6880  -12.5064 H         1 1C1         0.2615
     48 H20         0.1056  -15.6354  -13.4099 H         1 1C1         0.2615
@<TRIPOS>BOND
     1    1    2 ar 
     2    2    3 ar 
     3    2   28 ar 
     4    3    4 1  
     5    4    5 1  
     6    5    6 1  
     7    5   13 1  
     8    6    7 1  
     9    7    8 ar 
    10    7   12 ar 
    11    8    9 ar 
    12    9   10 ar 
    13   10   11 ar 
    14   11   12 ar 
    15   12   13 1  
    16   13   14 1  
    17   14   15 am 
    18   15   16 2  
    19   15   17 1  
    20   17   18 2  
    21   17   19 am 
    22   19   20 1  
    23   20   21 ar 
    24   20   27 ar 
    25   21   22 ar 
    26   22   23 1  
    27   22   24 ar 
    28   24   25 1  
    29   24   26 ar 
    30   26   27 ar 
    31    1   29 1  
    32    1   30 1  
    33    3   31 1  
    34    4   32 1  
    35    4   33 1  
    36    5   34 1  
    37    6   35 1  
    38    6   36 1  
    39    8   37 1  
    40    9   38 1  
    41   10   39 1  
    42   11   40 1  
    43   13   41 1  
    44   14   42 1  
    45   19   43 1  
    46   21   44 1  
    47   26   45 1  
    48   27   46 1  
    49   28   47 1  
    50   28   48 1  
@<TRIPOS>SUBSTRUCTURE
     1 1C1         1

