### 
### Created by X-TOOL on Mon Sep 10 21:13:14 2018
### 

@<TRIPOS>MOLECULE
4i5c_ligand
   38    41     1     0     0
SMALL
GAST_HUCK


@<TRIPOS>ATOM
      1 C1         16.9340    2.7000    0.8260 C.2       1 C5I        -0.0584
      2 C2         17.7230    1.6120    0.9920 C.2       1 C5I         0.0230
      3 N3         17.1230    0.5000    0.4520 N.pl3     1 C5I        -0.2717
      4 C5         15.8970    0.8540   -0.0830 C.ar      1 C5I         0.1259
      5 C6         15.7310    2.2500    0.1330 C.ar      1 C5I         0.0291
      6 C7         14.5300    2.8750   -0.2970 C.ar      1 C5I         0.1225
      7 C8         13.5410    2.0940   -0.9170 C.ar      1 C5I         0.0885
      8 C9         13.7950    0.7150   -1.1020 C.ar      1 C5I         0.0070
      9 N10        14.9290    0.1560   -0.6940 N.ar      1 C5I        -0.2965
     10 N11        12.4910    2.9120   -1.1910 N.2       1 C5I        -0.2013
     11 N12        12.7080    4.1080   -0.7560 N.2       1 C5I        -0.0772
     12 N13        14.0050    4.1420   -0.2280 N.pl3     1 C5I        -0.1540
     13 C14        14.6350    5.2730    0.4650 C.3       1 C5I         0.1078
     14 C16        14.3930    5.0550    1.9890 C.3       1 C5I        -0.0168
     15 C17        15.0090    6.1800    2.8150 C.3       1 C5I        -0.0296
     16 C18        14.4010    7.5160    2.3370 C.3       1 C5I         0.0341
     17 N19        14.6630    7.6370    0.8800 N.am      1 C5I        -0.2684
     18 C20        14.0510    6.6220    0.0060 C.3       1 C5I         0.0662
     19 C21        15.5320    8.5620    0.3730 C.2       1 C5I         0.2047
     20 O22        15.7550    8.6080   -0.8370 O.2       1 C5I        -0.3945
     21 C23        16.1850    9.5720    1.2950 C.3       1 C5I         0.1612
     22 C24        17.2760   10.3050    0.6320 C.1       1 C5I         0.1115
     23 N25        18.1180   10.8680    0.1250 N.1       1 C5I        -0.3008
     24 H1         17.1550    3.7165    1.1481 H         1 C5I         0.0302
     25 H2         18.6948    1.6176    1.4835 H         1 C5I         0.0921
     26 H3         17.5234   -0.4490    0.4464 H         1 C5I         0.2298
     27 H4         13.0467    0.0996   -1.5882 H         1 C5I         0.0748
     28 H5         15.7156    5.2710    0.2593 H         1 C5I         0.0692
     29 H6         14.8466    4.0994    2.2907 H         1 C5I         0.0297
     30 H7         13.3100    5.0229    2.1788 H         1 C5I         0.0297
     31 H8         16.0994    6.1941    2.6708 H         1 C5I         0.0286
     32 H9         14.7820    6.0274    3.8804 H         1 C5I         0.0286
     33 H10        14.8707    8.3541    2.8727 H         1 C5I         0.0522
     34 H11        13.3171    7.5224    2.5243 H         1 C5I         0.0522
     35 H12        12.9570    6.6258    0.1209 H         1 C5I         0.0554
     36 H13        14.3099    6.8145   -1.0456 H         1 C5I         0.0554
     37 H14        16.5934    9.0425    2.1684 H         1 C5I         0.0800
     38 H15        15.4237   10.2934    1.6265 H         1 C5I         0.0800
@<TRIPOS>BOND
     1    1    2 2  
     2    1    5 1  
     3    2    3 1  
     4    3    4 1  
     5    4    5 ar 
     6    4    9 ar 
     7    5    6 ar 
     8    6    7 ar 
     9    6   12 1  
    10    7    8 ar 
    11    7   10 1  
    12    8    9 ar 
    13   10   11 2  
    14   11   12 1  
    15   12   13 1  
    16   13   14 1  
    17   13   18 1  
    18   14   15 1  
    19   15   16 1  
    20   16   17 1  
    21   17   18 1  
    22   17   19 am 
    23   19   20 2  
    24   19   21 1  
    25   21   22 1  
    26   22   23 3  
    27    1   24 1  
    28    2   25 1  
    29    3   26 1  
    30    8   27 1  
    31   13   28 1  
    32   14   29 1  
    33   14   30 1  
    34   15   31 1  
    35   15   32 1  
    36   16   33 1  
    37   16   34 1  
    38   18   35 1  
    39   18   36 1  
    40   21   37 1  
    41   21   38 1  
@<TRIPOS>SUBSTRUCTURE
     1 C5I         1

