### 
### Created by X-TOOL on Mon Sep 10 21:13:15 2018
### 

@<TRIPOS>MOLECULE
4i5h_ligand
   55    59     1     0     0
SMALL
GAST_HUCK


@<TRIPOS>ATOM
      1 FBF       -12.5520   75.7480  133.5100 F         1 G17        -0.2197
      2 CBE       -12.1840   74.9720  132.4960 C.3       1 G17         0.3783
      3 FBG       -11.2990   75.6620  131.7440 F         1 G17        -0.2197
      4 FBH       -11.5340   74.0510  132.9460 F         1 G17        -0.2197
      5 CAW       -13.3940   74.5770  131.7800 C.ar      1 G17         0.0540
      6 CAV       -14.5430   74.1430  132.4710 C.ar      1 G17        -0.0107
      7 CAX       -13.4510   74.6600  130.3990 C.ar      1 G17        -0.0278
      8 CAY       -14.6390   74.2980  129.7390 C.ar      1 G17        -0.0272
      9 CAZ       -15.7710   73.8570  130.4480 C.ar      1 G17        -0.0142
     10 CAU       -15.7640   73.7580  131.8580 C.ar      1 G17         0.0849
     11 CAT       -16.8820   73.3300  132.6260 C.2       1 G17         0.2376
     12 OBA       -16.9800   73.7410  133.7720 O.2       1 G17        -0.3732
     13 NAS       -17.8560   72.5100  132.0500 N.am      1 G17        -0.2365
     14 CAP       -18.9120   71.9790  132.7330 C.ar      1 G17         0.0597
     15 CAQ       -19.5060   72.4710  133.8980 C.ar      1 G17        -0.0398
     16 CAO       -19.3990   70.7730  132.2350 C.ar      1 G17        -0.0468
     17 CAN       -20.4310   70.1190  132.8620 C.ar      1 G17        -0.0718
     18 CAM       -21.0050   70.6340  134.0190 C.ar      1 G17        -0.0512
     19 CAR       -22.0650   69.9300  134.5950 C.3       1 G17        -0.0365
     20 CAL       -20.5420   71.8340  134.5660 C.ar      1 G17        -0.0279
     21 CAI       -21.1530   72.3700  135.7140 C.ar      1 G17        -0.0183
     22 CAH       -20.9630   71.8560  137.0060 C.ar      1 G17        -0.0383
     23 CAJ       -22.0150   73.4710  135.5650 C.ar      1 G17        -0.0498
     24 CAK       -22.6800   74.0250  136.6560 C.ar      1 G17        -0.0407
     25 C4        -22.4910   73.5140  137.9410 C.ar      1 G17         0.0408
     26 N3        -23.1230   74.0520  139.0170 N.ar      1 G17        -0.2671
     27 C5        -21.6290   72.4220  138.0960 C.ar      1 G17         0.0220
     28 C6        -21.4620   71.9010  139.3830 C.ar      1 G17         0.0324
     29 N1        -22.1270   72.4780  140.4660 N.ar      1 G17        -0.2426
     30 C2        -22.9290   73.5320  140.2580 C.ar      1 G17         0.1880
     31 NAG       -23.5190   74.0200  141.3130 N.pl3     1 G17        -0.2859
     32 CBD       -24.4730   75.1070  141.1810 C.3       1 G17         0.0425
     33 CBC       -23.9000   76.5000  141.3190 C.3       1 G17        -0.0273
     34 CBB       -24.7250   75.8900  142.4450 C.3       1 G17        -0.0273
     35 H1        -14.4904   74.0999  133.5529 H         1 G17         0.0912
     36 H2        -12.5907   74.9997  129.8337 H         1 G17         0.0883
     37 H3        -14.6834   74.3604  128.6577 H         1 G17         0.0708
     38 H4        -16.6676   73.5874  129.9016 H         1 G17         0.0902
     39 H5        -17.7743   72.2988  131.0760 H         1 G17         0.2230
     40 H6        -19.1357   73.4054  134.3039 H         1 G17         0.0484
     41 H7        -18.9582   70.3454  131.3417 H         1 G17         0.0492
     42 H8        -20.8033   69.1884  132.4492 H         1 G17         0.0521
     43 H9        -22.2636   69.0213  134.0079 H         1 G17         0.0370
     44 H10       -22.9639   70.5639  134.6048 H         1 G17         0.0370
     45 H11       -21.8023   69.6503  135.6259 H         1 G17         0.0370
     46 H12       -20.2960   71.0154  137.1591 H         1 G17         0.0670
     47 H13       -22.1651   73.8976  134.5798 H         1 G17         0.0677
     48 H14       -23.3518   74.8623  136.5056 H         1 G17         0.0618
     49 H15       -20.8140   71.0463  139.5400 H         1 G17         0.1001
     50 H16       -23.3077   73.6331  142.2439 H         1 G17         0.1874
     51 H17       -25.2748   74.8735  140.4650 H         1 G17         0.0561
     52 H18       -24.3104   77.3266  140.7205 H         1 G17         0.0289
     53 H19       -22.8161   76.6403  141.4435 H         1 G17         0.0289
     54 H20       -24.2375   75.5904  143.3844 H         1 G17         0.0289
     55 H21       -25.7318   76.2767  142.6614 H         1 G17         0.0289
@<TRIPOS>BOND
     1    1    2 1  
     2    2    3 1  
     3    2    4 1  
     4    2    5 1  
     5    5    6 ar 
     6    5    7 ar 
     7    6   10 ar 
     8    7    8 ar 
     9    8    9 ar 
    10    9   10 ar 
    11   10   11 1  
    12   11   12 2  
    13   11   13 am 
    14   13   14 1  
    15   14   15 ar 
    16   14   16 ar 
    17   15   20 ar 
    18   16   17 ar 
    19   17   18 ar 
    20   18   19 1  
    21   18   20 ar 
    22   20   21 1  
    23   21   22 ar 
    24   21   23 ar 
    25   22   27 ar 
    26   23   24 ar 
    27   24   25 ar 
    28   25   26 ar 
    29   25   27 ar 
    30   26   30 ar 
    31   27   28 ar 
    32   28   29 ar 
    33   29   30 ar 
    34   30   31 1  
    35   31   32 1  
    36   32   33 1  
    37   32   34 1  
    38   33   34 1  
    39    6   35 1  
    40    7   36 1  
    41    8   37 1  
    42    9   38 1  
    43   13   39 1  
    44   15   40 1  
    45   16   41 1  
    46   17   42 1  
    47   19   43 1  
    48   19   44 1  
    49   19   45 1  
    50   22   46 1  
    51   23   47 1  
    52   24   48 1  
    53   28   49 1  
    54   31   50 1  
    55   32   51 1  
    56   33   52 1  
    57   33   53 1  
    58   34   54 1  
    59   34   55 1  
@<TRIPOS>SUBSTRUCTURE
     1 G17         1

