### 
### Created by X-TOOL on Mon Sep 10 21:13:16 2018
### 

@<TRIPOS>MOLECULE
4i5m_ligand
   78    82     1     0     0
SMALL
GAST_HUCK


@<TRIPOS>ATOM
      1 N1          7.7260    4.7640   10.1320 N.ar      1 R78        -0.2878
      2 N3         11.2980    6.8590   10.6660 N.pl3     1 R78        -0.2687
      3 C4          8.8630    4.0640    9.9880 C.ar      1 R78         0.0200
      4 C5         12.6150    6.1830   10.5120 C.3       1 R78         0.1354
      5 C6         12.5520    4.7250   10.2100 C.2       1 R78         0.2284
      6 C7          6.2180    7.9830   10.8810 C.ar      1 R78         0.0980
      7 C8         11.1610    8.2950   11.0310 C.3       1 R78         0.0438
      8 C10        12.7550    6.5100    7.9810 C.3       1 R78        -0.0610
      9 C13        12.5750   10.2340   11.6210 C.3       1 R78        -0.0509
     10 C15        11.1030    9.2870    9.8750 C.3       1 R78        -0.0296
     11 C17         4.5000    9.7790   10.9460 C.ar      1 R78        -0.0230
     12 C20         7.1320    8.8750   11.4580 C.ar      1 R78        -0.0405
     13 C21         5.0200   12.0380   11.8530 C.2       1 R78         0.1937
     14 C22         5.1490   14.4400   11.4380 C.3       1 R78         0.0509
     15 C24         4.2150   16.4250   10.2000 C.3       1 R78        -0.0300
     16 C28         5.5600   16.7450   12.3440 C.3       1 R78        -0.0300
     17 O2          4.0820   12.1810   12.6220 O.2       1 R78        -0.3904
     18 N6          5.6590   13.0830   11.3210 N.am      1 R78        -0.2846
     19 C29         6.1500   15.3460   12.1510 C.3       1 R78         0.0106
     20 N7          5.1230   17.2180   11.0290 N.4       1 R78         0.2332
     21 C30         5.5870   18.5100   10.5400 C.3       1 R78        -0.0431
     22 C23         4.8400   15.0350   10.0650 C.3       1 R78         0.0106
     23 C18         5.4420   10.6350   11.5130 C.ar      1 R78         0.0285
     24 C16         4.8330    8.4660   10.6180 C.ar      1 R78         0.1199
     25 O3          3.9060    7.6240   10.0530 O.3       1 R78        -0.3244
     26 C31         2.5080    7.9190   10.0930 C.3       1 R78         0.0570
     27 C19         6.7430   10.1830   11.7680 C.ar      1 R78        -0.0628
     28 N5          6.5070    6.6910   10.5570 N.pl3     1 R78        -0.2527
     29 C1          7.7180    6.0890   10.4380 C.ar      1 R78         0.1779
     30 N2          8.8830    6.7630   10.6130 N.ar      1 R78        -0.2512
     31 C2         10.0840    6.1460   10.4900 C.ar      1 R78         0.1459
     32 C14        11.6410   10.6020   10.4410 C.3       1 R78        -0.0509
     33 C12        12.2400    8.7830   12.0050 C.3       1 R78        -0.0296
     34 C9         13.3960    6.7900    9.3310 C.3       1 R78        -0.0147
     35 O1         13.6410    4.1110   10.0740 O.2       1 R78        -0.3839
     36 N4         11.3270    4.0300   10.0150 N.am      1 R78        -0.2208
     37 C11        11.3470    2.5970    9.6830 C.3       1 R78         0.0423
     38 C3         10.0930    4.7020   10.1540 C.ar      1 R78         0.1273
     39 H1          8.8255    3.0085    9.7440 H         1 R78         0.0703
     40 H2         13.1774    6.3284   11.4461 H         1 R78         0.0806
     41 H3         10.1965    8.3706   11.5545 H         1 R78         0.0559
     42 H4         13.3602    6.9691    7.1855 H         1 R78         0.0232
     43 H5         11.7406    6.9350    7.9615 H         1 R78         0.0232
     44 H6         12.7005    5.4233    7.8193 H         1 R78         0.0232
     45 H7         12.3928   10.9047   12.4736 H         1 R78         0.0266
     46 H8         13.6276   10.3120   11.3114 H         1 R78         0.0266
     47 H9         10.0670    9.4129    9.5275 H         1 R78         0.0288
     48 H10        11.7305    8.9421    9.0400 H         1 R78         0.0288
     49 H11         3.4950   10.1390   10.7576 H         1 R78         0.0553
     50 H12         8.1452    8.5502   11.6652 H         1 R78         0.0514
     51 H13         4.2200   14.4088   12.0261 H         1 R78         0.0559
     52 H14         4.1050   16.8886    9.2086 H         1 R78         0.0815
     53 H15         3.2289   16.3516   10.6819 H         1 R78         0.0815
     54 H16         6.3238   17.4226   12.7531 H         1 R78         0.0815
     55 H17         4.7029   16.7005   13.0320 H         1 R78         0.0815
     56 H18         6.5145   12.9277   10.8270 H         1 R78         0.1844
     57 H19         7.0666   15.4193   11.5472 H         1 R78         0.0339
     58 H20         6.3919   14.9159   13.1341 H         1 R78         0.0339
     59 H21         5.9142   16.7628   10.6014 H         1 R78         0.2030
     60 H22         5.1611   18.6994    9.5437 H         1 R78         0.0777
     61 H23         6.6850   18.5044   10.4743 H         1 R78         0.0777
     62 H24         5.2651   19.3014   11.2328 H         1 R78         0.0777
     63 H25         4.1375   14.3742    9.5360 H         1 R78         0.0339
     64 H26         5.7735   15.1144    9.4886 H         1 R78         0.0339
     65 H27         1.9497    7.1185    9.5855 H         1 R78         0.0573
     66 H28         2.3205    8.8761    9.5843 H         1 R78         0.0573
     67 H29         2.1779    7.9893   11.1399 H         1 R78         0.0573
     68 H30         7.4627   10.8597   12.2143 H         1 R78         0.0548
     69 H31         5.6925    6.0867   10.3773 H         1 R78         0.2125
     70 H32        12.2042   11.1446    9.6675 H         1 R78         0.0266
     71 H33        10.8101   11.2287   10.7972 H         1 R78         0.0266
     72 H34        13.1379    8.1534   11.9193 H         1 R78         0.0288
     73 H35        11.8618    8.7439   13.0372 H         1 R78         0.0288
     74 H36        14.4117    6.3678    9.3298 H         1 R78         0.0310
     75 H37        13.4519    7.8795    9.4720 H         1 R78         0.0310
     76 H38        12.3889    2.2505    9.6169 H         1 R78         0.0544
     77 H39        10.8455    2.4373    8.7171 H         1 R78         0.0544
     78 H40        10.8217    2.0316   10.4668 H         1 R78         0.0544
@<TRIPOS>BOND
     1    1    3 ar 
     2   29    1 ar 
     3    2    4 1  
     4    2    7 1  
     5   31    2 1  
     6    3   38 ar 
     7    4    5 1  
     8    4   34 1  
     9    5   35 2  
    10    5   36 am 
    11    6   12 ar 
    12    6   24 ar 
    13   28    6 1  
    14    7   10 1  
    15    7   33 1  
    16   34    8 1  
    17    9   32 1  
    18   33    9 1  
    19   10   32 1  
    20   11   23 ar 
    21   24   11 ar 
    22   12   27 ar 
    23   13   17 2  
    24   13   18 am 
    25   23   13 1  
    26   18   14 1  
    27   14   19 1  
    28   14   22 1  
    29   15   20 1  
    30   22   15 1  
    31   19   16 1  
    32   16   20 1  
    33   20   21 1  
    34   27   23 ar 
    35   24   25 1  
    36   25   26 1  
    37   29   28 1  
    38   30   29 ar 
    39   30   31 ar 
    40   31   38 ar 
    41   36   37 1  
    42   36   38 1  
    43    3   39 1  
    44    4   40 1  
    45    7   41 1  
    46    8   42 1  
    47    8   43 1  
    48    8   44 1  
    49    9   45 1  
    50    9   46 1  
    51   10   47 1  
    52   10   48 1  
    53   11   49 1  
    54   12   50 1  
    55   14   51 1  
    56   15   52 1  
    57   15   53 1  
    58   16   54 1  
    59   16   55 1  
    60   18   56 1  
    61   19   57 1  
    62   19   58 1  
    63   20   59 1  
    64   21   60 1  
    65   21   61 1  
    66   21   62 1  
    67   22   63 1  
    68   22   64 1  
    69   26   65 1  
    70   26   66 1  
    71   26   67 1  
    72   27   68 1  
    73   28   69 1  
    74   32   70 1  
    75   32   71 1  
    76   33   72 1  
    77   33   73 1  
    78   34   74 1  
    79   34   75 1  
    80   37   76 1  
    81   37   77 1  
    82   37   78 1  
@<TRIPOS>SUBSTRUCTURE
     1 R78         1

