### 
### Created by X-TOOL on Mon Sep 10 21:13:15 2018
### 

@<TRIPOS>MOLECULE
4i5p_ligand
   47    50     1     0     0
SMALL
GAST_HUCK


@<TRIPOS>ATOM
      1 O23        13.6090    4.2410   10.4520 O.2       1 1D1        -0.3820
      2 C13        12.5080    4.8280   10.4470 C.2       1 1D1         0.2319
      3 N12        11.3260    4.1000   10.1720 N.am      1 1D1        -0.2146
      4 C24        11.4120    2.6580    9.9060 C.3       1 1D1         0.0448
      5 C9         10.0810    4.7590   10.1500 C.ar      1 1D1         0.1383
      6 C8          8.8870    4.0970    9.8920 C.ar      1 1D1         0.0288
      7 N7          7.7400    4.7840    9.8900 N.ar      1 1D1        -0.3026
      8 C14        12.5170    6.2950   10.6720 C.3       1 1D1         0.1363
      9 C21        13.2640    6.8310    9.4360 C.3       1 1D1        -0.0146
     10 C22        12.5340    6.6030    8.1150 C.3       1 1D1        -0.0610
     11 N15        11.1990    6.9530   10.6910 N.pl3     1 1D1        -0.2670
     12 C16        11.0450    8.4010   10.9860 C.3       1 1D1         0.0439
     13 C20        10.9190    9.3610    9.8130 C.3       1 1D1        -0.0296
     14 C19        11.2600   10.7260   10.4150 C.3       1 1D1        -0.0509
     15 C18        12.0940   10.4770   11.6730 C.3       1 1D1        -0.0509
     16 C17        12.1470    8.9700   11.8860 C.3       1 1D1        -0.0296
     17 C10        10.0230    6.2180   10.4260 C.ar      1 1D1         0.1535
     18 N11         8.8210    6.8270   10.4050 N.ar      1 1D1        -0.2702
     19 C6          7.6980    6.1180   10.1450 C.ar      1 1D1         0.1033
     20 C2          6.3920    6.8280   10.1170 C.2       1 1D1         0.0818
     21 C3          5.1400    6.4600    9.6690 C.2       1 1D1        -0.0683
     22 C4          4.3440    7.5630    9.8920 C.2       1 1D1        -0.0753
     23 C5          5.1360    8.5550   10.4410 C.2       1 1D1         0.0205
     24 N1          6.4010    8.0880   10.5730 N.pl3     1 1D1        -0.2836
     25 H1         12.4618    2.3355    9.9692 H         1 1D1         0.0551
     26 H2         11.0237    2.4471    8.8987 H         1 1D1         0.0551
     27 H3         10.8151    2.1115   10.6509 H         1 1D1         0.0551
     28 H4          8.8854    3.0313    9.6938 H         1 1D1         0.0736
     29 H5         13.0507    6.5275   11.6053 H         1 1D1         0.0807
     30 H6         14.2420    6.3306    9.3803 H         1 1D1         0.0310
     31 H7         13.4127    7.9132    9.5654 H         1 1D1         0.0310
     32 H8         13.1335    7.0137    7.2892 H         1 1D1         0.0232
     33 H9         11.5566    7.1068    8.1444 H         1 1D1         0.0232
     34 H10        12.3859    5.5242    7.9593 H         1 1D1         0.0232
     35 H11        10.1009    8.4743   11.5457 H         1 1D1         0.0559
     36 H12         9.8950    9.3555    9.4112 H         1 1D1         0.0288
     37 H13        11.6278    9.0977    9.0141 H         1 1D1         0.0288
     38 H14        10.3362   11.2626   10.6768 H         1 1D1         0.0266
     39 H15        11.8379   11.3214    9.6929 H         1 1D1         0.0266
     40 H16        11.6234   10.9639   12.5399 H         1 1D1         0.0266
     41 H17        13.1105   10.8744   11.5363 H         1 1D1         0.0266
     42 H18        13.1296    8.5727   11.5917 H         1 1D1         0.0288
     43 H19        11.9517    8.7218   12.9397 H         1 1D1         0.0288
     44 H20         4.8450    5.5062    9.2341 H         1 1D1         0.0359
     45 H21         3.2797    7.6397    9.6744 H         1 1D1         0.0318
     46 H22         4.7974    9.5512   10.7220 H         1 1D1         0.0877
     47 H23         7.2108    8.6009   10.9499 H         1 1D1         0.2334
@<TRIPOS>BOND
     1    1    2 2  
     2    2    3 am 
     3    2    8 1  
     4    3    4 1  
     5    3    5 1  
     6    5    6 ar 
     7    5   17 ar 
     8    6    7 ar 
     9    7   19 ar 
    10    8    9 1  
    11    8   11 1  
    12    9   10 1  
    13   11   12 1  
    14   11   17 1  
    15   12   13 1  
    16   12   16 1  
    17   13   14 1  
    18   14   15 1  
    19   15   16 1  
    20   17   18 ar 
    21   18   19 ar 
    22   19   20 1  
    23   20   21 2  
    24   20   24 1  
    25   21   22 1  
    26   22   23 2  
    27   23   24 1  
    28    4   25 1  
    29    4   26 1  
    30    4   27 1  
    31    6   28 1  
    32    8   29 1  
    33    9   30 1  
    34    9   31 1  
    35   10   32 1  
    36   10   33 1  
    37   10   34 1  
    38   12   35 1  
    39   13   36 1  
    40   13   37 1  
    41   14   38 1  
    42   14   39 1  
    43   15   40 1  
    44   15   41 1  
    45   16   42 1  
    46   16   43 1  
    47   21   44 1  
    48   22   45 1  
    49   23   46 1  
    50   24   47 1  
@<TRIPOS>SUBSTRUCTURE
     1 1D1         1

