### 
### Created by X-TOOL on Mon Sep 10 21:13:15 2018
### 

@<TRIPOS>MOLECULE
4i6b_ligand
   39    41     1     0     0
SMALL
GAST_HUCK


@<TRIPOS>ATOM
      1 O18        13.7450    4.3300   10.2780 O.2       1 11G        -0.3821
      2 C8         12.6000    4.8340   10.3160 C.2       1 11G         0.2318
      3 N7         11.4550    4.0350   10.0730 N.am      1 11G        -0.2135
      4 C19        11.6200    2.6010    9.7820 C.3       1 11G         0.0449
      5 C2         10.1710    4.6340   10.0860 C.ar      1 11G         0.1412
      6 C9         12.5290    6.2920   10.5390 C.3       1 11G         0.1362
      7 C16        13.1470    6.8470    9.2290 C.3       1 11G        -0.0146
      8 C17        12.3560    6.5460    7.9420 C.3       1 11G        -0.0610
      9 N10        11.1840    6.8780   10.6280 N.pl3     1 11G        -0.2662
     10 C11        11.0030    8.3190   10.9630 C.3       1 11G         0.0439
     11 C15        10.8300    9.3240    9.8410 C.3       1 11G        -0.0297
     12 C14        11.1170   10.6690   10.5140 C.3       1 11G        -0.0509
     13 C13        12.0380   10.3940   11.7110 C.3       1 11G        -0.0509
     14 C12        12.1130    8.8760   11.8590 C.3       1 11G        -0.0297
     15 C3         10.0410    6.0850   10.3890 C.ar      1 11G         0.1595
     16 N4          8.7990    6.6240   10.4060 N.ar      1 11G        -0.2674
     17 C5          7.7250    5.8570   10.1600 C.ar      1 11G         0.0542
     18 N6          7.8190    4.5420    9.8900 N.ar      1 11G        -0.3015
     19 C1          9.0000    3.9100    9.8540 C.ar      1 11G         0.0334
     20 H1         12.6877    2.3393    9.8216 H         1 11G         0.0550
     21 H2         11.2260    2.3828    8.7784 H         1 11G         0.0550
     22 H3         11.0697    2.0096   10.5286 H         1 11G         0.0550
     23 H4         13.1107    6.5699   11.4303 H         1 11G         0.0807
     24 H5         14.1518    6.4133    9.1182 H         1 11G         0.0310
     25 H6         13.2281    7.9394    9.3290 H         1 11G         0.0310
     26 H7         12.8801    6.9824    7.0790 H         1 11G         0.0232
     27 H8         11.3497    6.9834    8.0193 H         1 11G         0.0232
     28 H9         12.2734    5.4573    7.8085 H         1 11G         0.0232
     29 H10        10.0698    8.3524   11.5445 H         1 11G         0.0559
     30 H11         9.8051    9.2952    9.4426 H         1 11G         0.0288
     31 H12        11.5451    9.1315    9.0277 H         1 11G         0.0288
     32 H13        10.1775   11.1252   10.8592 H         1 11G         0.0266
     33 H14        11.6145   11.3464    9.8043 H         1 11G         0.0266
     34 H15        11.6206   10.8448   12.6234 H         1 11G         0.0266
     35 H16        13.0398   10.8076   11.5229 H         1 11G         0.0266
     36 H17        13.0949    8.5062   11.5287 H         1 11G         0.0288
     37 H18        11.9443    8.5836   12.9059 H         1 11G         0.0288
     38 H19         6.7428    6.3153   10.1796 H         1 11G         0.0937
     39 H20         9.0458    2.8470    9.6468 H         1 11G         0.0739
@<TRIPOS>BOND
     1    1    2 2  
     2    2    3 am 
     3    2    6 1  
     4    3    4 1  
     5    3    5 1  
     6    5   15 ar 
     7    5   19 ar 
     8    6    7 1  
     9    6    9 1  
    10    7    8 1  
    11    9   10 1  
    12    9   15 1  
    13   10   11 1  
    14   10   14 1  
    15   11   12 1  
    16   12   13 1  
    17   13   14 1  
    18   15   16 ar 
    19   16   17 ar 
    20   17   18 ar 
    21   18   19 ar 
    22    4   20 1  
    23    4   21 1  
    24    4   22 1  
    25    6   23 1  
    26    7   24 1  
    27    7   25 1  
    28    8   26 1  
    29    8   27 1  
    30    8   28 1  
    31   10   29 1  
    32   11   30 1  
    33   11   31 1  
    34   12   32 1  
    35   12   33 1  
    36   13   34 1  
    37   13   35 1  
    38   14   36 1  
    39   14   37 1  
    40   17   38 1  
    41   19   39 1  
@<TRIPOS>SUBSTRUCTURE
     1 11G         1

