### 
### Created by X-TOOL on Mon Sep 10 21:13:15 2018
### 

@<TRIPOS>MOLECULE
4i6f_ligand
   54    58     1     0     0
SMALL
GAST_HUCK


@<TRIPOS>ATOM
      1 O18        13.4420    4.0860   10.0700 O.2       1 1C7        -0.3830
      2 C8         12.4030    4.6960   10.1670 C.2       1 1C7         0.2302
      3 N7         11.2110    4.0420    9.9600 N.am      1 1C7        -0.2173
      4 C19        11.2150    2.6500    9.6480 C.3       1 1C7         0.0436
      5 C2         10.0190    4.7210   10.0300 C.ar      1 1C7         0.1338
      6 C9         12.5090    6.1030   10.4600 C.3       1 1C7         0.1362
      7 C16        13.2240    6.5940    9.2310 C.3       1 1C7        -0.0146
      8 C17        12.3950    6.4350    7.9950 C.3       1 1C7        -0.0610
      9 N10        11.2470    6.7930   10.5560 N.pl3     1 1C7        -0.2643
     10 C11        11.2770    8.1880   10.9180 C.3       1 1C7         0.0566
     11 C15        12.4660    8.4670   11.7580 C.3       1 1C7        -0.0114
     12 C14        12.5280    9.9540   11.8780 C.2       1 1C7        -0.0962
     13 C13        11.7300   10.4840   10.7410 C.2       1 1C7        -0.0962
     14 C12        11.2600    9.3050    9.9300 C.3       1 1C7        -0.0114
     15 C3         10.0360    6.1210   10.3550 C.ar      1 1C7         0.1534
     16 N4          8.8680    6.7160   10.4280 N.ar      1 1C7        -0.2371
     17 C5          7.7740    6.0440   10.1960 C.ar      1 1C7         0.2224
     18 N6          7.7530    4.7810    9.9050 N.ar      1 1C7        -0.2729
     19 C1          8.8500    4.1090    9.8150 C.ar      1 1C7         0.0278
     20 N20         6.6730    6.7050   10.2870 N.pl3     1 1C7        -0.1812
     21 C24         5.6370    6.4390    9.6030 C.2       1 1C7         0.0572
     22 C23         4.7320    7.3500    9.9780 C.2       1 1C7        -0.0161
     23 N22         5.3190    8.0710   10.8890 N.2       1 1C7        -0.3206
     24 C21         6.5710    7.7050   11.0600 C.2       1 1C7         0.1565
     25 C25         7.5090    8.2660   12.0490 C.ar      1 1C7         0.0286
     26 C30         7.6010    9.5860   12.2940 C.ar      1 1C7        -0.0486
     27 C29         8.4400   10.0040   13.2660 C.ar      1 1C7        -0.0602
     28 C28         9.1800    9.1500   14.0090 C.ar      1 1C7        -0.0610
     29 C27         9.0710    7.8350   13.7950 C.ar      1 1C7        -0.0602
     30 C26         8.2140    7.4110   12.8240 C.ar      1 1C7        -0.0486
     31 H1         12.2508    2.2798    9.6365 H         1 1C7         0.0547
     32 H2         10.7591    2.4945    8.6591 H         1 1C7         0.0547
     33 H3         10.6383    2.1022   10.4078 H         1 1C7         0.0547
     34 H4         13.0914    6.2716   11.3778 H         1 1C7         0.0807
     35 H5         14.1549    6.0207    9.1096 H         1 1C7         0.0310
     36 H6         13.4639    7.6594    9.3623 H         1 1C7         0.0310
     37 H7         12.9577    6.8063    7.1258 H         1 1C7         0.0232
     38 H8         11.4635    7.0103    8.1017 H         1 1C7         0.0232
     39 H9         12.1545    5.3716    7.8490 H         1 1C7         0.0232
     40 H10        10.3772    8.3293   11.5347 H         1 1C7         0.0600
     41 H11        13.3766    8.0817   11.2759 H         1 1C7         0.0412
     42 H12        12.3530    8.0055   12.7501 H         1 1C7         0.0412
     43 H13        13.0496   10.5308   12.6403 H         1 1C7         0.0451
     44 H14        11.5232   11.5327   10.5327 H         1 1C7         0.0451
     45 H15        10.2450    9.4727    9.5407 H         1 1C7         0.0412
     46 H16        11.9449    9.1029    9.0933 H         1 1C7         0.0412
     47 H17         8.8244    3.0542    9.5665 H         1 1C7         0.0721
     48 H18         5.5123    5.6428    8.8706 H         1 1C7         0.0907
     49 H19         3.7170    7.4644    9.6003 H         1 1C7         0.0486
     50 H20         7.0148   10.2977   11.7239 H         1 1C7         0.0634
     51 H21         8.5238   11.0675   13.4586 H         1 1C7         0.0620
     52 H22         9.8539    9.5276   14.7695 H         1 1C7         0.0624
     53 H23         9.6481    7.1259   14.3774 H         1 1C7         0.0620
     54 H24         8.0925    6.3454   12.6665 H         1 1C7         0.0634
@<TRIPOS>BOND
     1    1    2 2  
     2    2    3 am 
     3    2    6 1  
     4    3    4 1  
     5    3    5 1  
     6    5   15 ar 
     7    5   19 ar 
     8    6    7 1  
     9    6    9 1  
    10    7    8 1  
    11    9   10 1  
    12    9   15 1  
    13   10   11 1  
    14   10   14 1  
    15   11   12 1  
    16   12   13 2  
    17   13   14 1  
    18   15   16 ar 
    19   16   17 ar 
    20   17   18 ar 
    21   17   20 1  
    22   18   19 ar 
    23   20   21 1  
    24   20   24 1  
    25   21   22 2  
    26   22   23 1  
    27   23   24 2  
    28   24   25 1  
    29   25   26 ar 
    30   25   30 ar 
    31   26   27 ar 
    32   27   28 ar 
    33   28   29 ar 
    34   29   30 ar 
    35    4   31 1  
    36    4   32 1  
    37    4   33 1  
    38    6   34 1  
    39    7   35 1  
    40    7   36 1  
    41    8   37 1  
    42    8   38 1  
    43    8   39 1  
    44   10   40 1  
    45   11   41 1  
    46   11   42 1  
    47   12   43 1  
    48   13   44 1  
    49   14   45 1  
    50   14   46 1  
    51   19   47 1  
    52   21   48 1  
    53   22   49 1  
    54   26   50 1  
    55   27   51 1  
    56   28   52 1  
    57   29   53 1  
    58   30   54 1  
@<TRIPOS>SUBSTRUCTURE
     1 1C7         1

