### 
### Created by X-TOOL on Mon Sep 10 21:13:16 2018
### 

@<TRIPOS>MOLECULE
4i6h_ligand
   52    56     1     0     0
SMALL
GAST_HUCK


@<TRIPOS>ATOM
      1 O12        13.7190    4.1170   10.1560 O.2       1 1C8        -0.3830
      2 C9         12.6470    4.7280   10.2210 C.2       1 1C8         0.2301
      3 N10        11.4290    4.0220   10.0570 N.am      1 1C8        -0.2175
      4 C11        11.4480    2.5900    9.7820 C.3       1 1C8         0.0435
      5 C2         10.2200    4.7080   10.0900 C.ar      1 1C8         0.1335
      6 C8         12.6810    6.1780   10.4590 C.3       1 1C8         0.1358
      7 C13        13.4640    6.8790    9.3500 C.3       1 1C8        -0.0147
      8 C14        12.8110    6.8680    7.9960 C.3       1 1C8        -0.0610
      9 N7         11.4000    6.8470   10.5220 N.pl3     1 1C8        -0.2676
     10 C15        11.3590    8.2610   10.8260 C.3       1 1C8         0.0438
     11 C19        11.3430    9.3510    9.7660 C.3       1 1C8        -0.0296
     12 C18        11.9910   10.5470   10.4440 C.3       1 1C8        -0.0509
     13 C17        12.6490   10.0870   11.7400 C.3       1 1C8        -0.0509
     14 C16        12.3450    8.6210   11.9150 C.3       1 1C8        -0.0296
     15 C3         10.2220    6.1480   10.3360 C.ar      1 1C8         0.1528
     16 N4          9.0650    6.7850   10.3830 N.ar      1 1C8        -0.2376
     17 C5          7.9150    6.1180   10.2400 C.ar      1 1C8         0.2209
     18 N6          7.8890    4.8060    9.9920 N.ar      1 1C8        -0.2735
     19 C1          9.0010    4.0900    9.9040 C.ar      1 1C8         0.0274
     20 N20         6.7890    6.7850   10.2650 N.pl3     1 1C8        -0.1850
     21 C24         5.8230    6.4940    9.4430 C.2       1 1C8         0.0528
     22 C23         4.8280    7.4100    9.7070 C.2       1 1C8        -0.0223
     23 N22         5.2380    8.2350   10.6630 N.2       1 1C8        -0.3283
     24 C21         6.4710    7.8390   10.9530 C.2       1 1C8         0.1537
     25 C25         7.2610    8.5140   12.0130 C.2       1 1C8         0.0793
     26 C29         7.8530    7.7130   12.9620 C.2       1 1C8         0.0327
     27 S28         8.5830    8.9010   13.9330 S.3       1 1C8         0.0020
     28 C27         8.0650   10.2810   13.0560 C.2       1 1C8         0.0789
     29 N26         7.3370    9.8640   12.0330 N.2       1 1C8        -0.2974
     30 H1         12.4864    2.2274    9.7974 H         1 1C8         0.0547
     31 H2         11.0083    2.4009    8.7916 H         1 1C8         0.0547
     32 H3         10.8637    2.0614   10.5496 H         1 1C8         0.0547
     33 H4         13.1938    6.3364   11.4192 H         1 1C8         0.0806
     34 H5         14.4420    6.3838    9.2594 H         1 1C8         0.0310
     35 H6         13.6102    7.9277    9.6481 H         1 1C8         0.0310
     36 H7         13.4530    7.3953    7.2751 H         1 1C8         0.0232
     37 H8         11.8352    7.3723    8.0554 H         1 1C8         0.0232
     38 H9         12.6670    5.8284    7.6667 H         1 1C8         0.0232
     39 H10        10.3691    8.3692   11.2933 H         1 1C8         0.0559
     40 H11        10.3115    9.5860    9.4648 H         1 1C8         0.0288
     41 H12        11.9219    9.0435    8.8827 H         1 1C8         0.0288
     42 H13        11.2248   11.3038   10.6679 H         1 1C8         0.0266
     43 H14        12.7515   10.9810    9.7782 H         1 1C8         0.0266
     44 H15        12.2435   10.6573   12.5887 H         1 1C8         0.0266
     45 H16        13.7368   10.2394   11.6822 H         1 1C8         0.0266
     46 H17        13.2640    8.0259   11.8092 H         1 1C8         0.0288
     47 H18        11.9023    8.4391   12.9054 H         1 1C8         0.0288
     48 H19         8.9528    3.0288    9.6879 H         1 1C8         0.0720
     49 H20         5.8048    5.6953    8.7029 H         1 1C8         0.0875
     50 H21         3.8596    7.4507    9.2106 H         1 1C8         0.0468
     51 H22         7.8536    6.6286   13.0621 H         1 1C8         0.0833
     52 H23         8.2948   11.3175   13.2984 H         1 1C8         0.1183
@<TRIPOS>BOND
     1    1    2 2  
     2    2    3 am 
     3    2    6 1  
     4    3    4 1  
     5    3    5 1  
     6    5   15 ar 
     7    5   19 ar 
     8    6    7 1  
     9    6    9 1  
    10    7    8 1  
    11    9   10 1  
    12    9   15 1  
    13   10   11 1  
    14   10   14 1  
    15   11   12 1  
    16   12   13 1  
    17   13   14 1  
    18   15   16 ar 
    19   16   17 ar 
    20   17   18 ar 
    21   17   20 1  
    22   18   19 ar 
    23   20   21 1  
    24   20   24 1  
    25   21   22 2  
    26   22   23 1  
    27   23   24 2  
    28   24   25 1  
    29   25   26 2  
    30   25   29 1  
    31   26   27 1  
    32   27   28 1  
    33   28   29 2  
    34    4   30 1  
    35    4   31 1  
    36    4   32 1  
    37    6   33 1  
    38    7   34 1  
    39    7   35 1  
    40    8   36 1  
    41    8   37 1  
    42    8   38 1  
    43   10   39 1  
    44   11   40 1  
    45   11   41 1  
    46   12   42 1  
    47   12   43 1  
    48   13   44 1  
    49   13   45 1  
    50   14   46 1  
    51   14   47 1  
    52   19   48 1  
    53   21   49 1  
    54   22   50 1  
    55   26   51 1  
    56   28   52 1  
@<TRIPOS>SUBSTRUCTURE
     1 1C8         1

