### 
### Created by X-TOOL on Mon Sep 10 21:13:14 2018
### 

@<TRIPOS>MOLECULE
4i6q_ligand
   42    45     1     0     0
SMALL
GAST_HUCK


@<TRIPOS>ATOM
      1 C1          0.5090  -13.2080   -4.1710 C.2       1 1DT         0.0713
      2 C2          0.0160  -11.9270   -3.8610 C.2       1 1DT         0.0596
      3 N3         -1.2630  -12.0820   -3.4430 N.pl3     1 1DT        -0.2512
      4 C4         -0.5380  -14.1740   -3.8890 C.ar      1 1DT         0.0755
      5 C5         -1.6410  -13.3940   -3.4540 C.ar      1 1DT         0.1605
      6 N6         -2.8020  -13.9700   -3.1100 N.ar      1 1DT        -0.2653
      7 C7         -2.9150  -15.2870   -3.1930 C.ar      1 1DT         0.0615
      8 C8         -1.8490  -16.0740   -3.6720 C.ar      1 1DT         0.1999
      9 N9         -0.6730  -15.5440   -3.9710 N.ar      1 1DT        -0.2698
     10 C10         1.8040  -13.5650   -4.6850 C.2       1 1DT         0.1819
     11 N11         2.0280  -14.8860   -4.8890 N.am      1 1DT        -0.2885
     12 O12         2.6720  -12.7520   -4.9000 O.2       1 1DT        -0.4022
     13 C13         3.2620  -15.5060   -5.4140 C.3       1 1DT         0.0407
     14 C14         3.2850  -15.6750   -6.9440 C.3       1 1DT        -0.0184
     15 C15         3.4490  -16.8740   -4.6640 C.3       1 1DT        -0.0419
     16 C16         2.0070  -16.1400   -7.6250 C.3       1 1DT        -0.0478
     17 C17         2.5270  -14.7340   -7.8900 C.3       1 1DT        -0.0478
     18 O18        -2.0730  -17.4230   -3.6550 O.3       1 1DT        -0.2382
     19 C19        -1.0910  -18.2510   -4.2050 C.ar      1 1DT         0.1200
     20 C20        -0.4840  -18.0130   -5.4340 C.ar      1 1DT        -0.0278
     21 C21         0.4340  -18.9510   -5.9860 C.ar      1 1DT        -0.0693
     22 C22         0.7160  -20.1480   -5.3320 C.ar      1 1DT        -0.0720
     23 C23         0.0720  -20.4190   -4.1210 C.ar      1 1DT        -0.0693
     24 C24        -0.8450  -19.5100   -3.5670 C.ar      1 1DT        -0.0278
     25 H1          0.5606  -10.9874   -3.9420 H         1 1DT         0.1136
     26 H2         -1.8749  -11.3060   -3.1527 H         1 1DT         0.2367
     27 H3         -3.8390  -15.7653   -2.8887 H         1 1DT         0.0797
     28 H4          1.2784  -15.5070   -4.6598 H         1 1DT         0.1836
     29 H5          4.1060  -14.8509   -5.1523 H         1 1DT         0.0554
     30 H6          4.2630  -16.0728   -7.2525 H         1 1DT         0.0323
     31 H7          4.3611  -17.3698   -5.0276 H         1 1DT         0.0252
     32 H8          2.5793  -17.5195   -4.8563 H         1 1DT         0.0252
     33 H9          3.5376  -16.6905   -3.5831 H         1 1DT         0.0252
     34 H10         1.0911  -16.2834   -7.0330 H         1 1DT         0.0269
     35 H11         2.0538  -16.9006   -8.4183 H         1 1DT         0.0269
     36 H12         2.9525  -14.4800   -8.8720 H         1 1DT         0.0269
     37 H13         1.9898  -13.8629   -7.4868 H         1 1DT         0.0269
     38 H14        -0.7125  -17.1033   -5.9774 H         1 1DT         0.0555
     39 H15         0.9206  -18.7303   -6.9292 H         1 1DT         0.0591
     40 H16         1.4208  -20.8555   -5.7536 H         1 1DT         0.0530
     41 H17         0.2837  -21.3461   -3.6007 H         1 1DT         0.0591
     42 H18        -1.3690  -19.7625   -2.6523 H         1 1DT         0.0555
@<TRIPOS>BOND
     1    1    2 2  
     2    1    4 1  
     3    1   10 1  
     4    2    3 1  
     5    3    5 1  
     6    4    5 ar 
     7    4    9 ar 
     8    5    6 ar 
     9    6    7 ar 
    10    7    8 ar 
    11    8    9 ar 
    12    8   18 1  
    13   10   11 am 
    14   10   12 2  
    15   11   13 1  
    16   13   14 1  
    17   13   15 1  
    18   14   16 1  
    19   14   17 1  
    20   16   17 1  
    21   18   19 1  
    22   19   20 ar 
    23   19   24 ar 
    24   20   21 ar 
    25   21   22 ar 
    26   22   23 ar 
    27   23   24 ar 
    28    2   25 1  
    29    3   26 1  
    30    7   27 1  
    31   11   28 1  
    32   13   29 1  
    33   14   30 1  
    34   15   31 1  
    35   15   32 1  
    36   15   33 1  
    37   16   34 1  
    38   16   35 1  
    39   17   36 1  
    40   17   37 1  
    41   20   38 1  
    42   21   39 1  
    43   22   40 1  
    44   23   41 1  
    45   24   42 1  
@<TRIPOS>SUBSTRUCTURE
     1 1DT         1

