### 
### Created by X-TOOL on Mon Sep 10 21:13:12 2018
### 

@<TRIPOS>MOLECULE
4i71_ligand
   38    40     1     0     0
SMALL
GAST_HUCK


@<TRIPOS>ATOM
      1 O5'         5.5810   22.0700   17.8970 O.3       1 AGV        -0.3894
      2 C5'         5.4850   20.6520   18.0450 C.3       1 AGV         0.0894
      3 C4'         6.6900   19.9700   18.6750 C.3       1 AGV         0.0328
      4 C3'         6.7110   18.4470   18.4840 C.3       1 AGV         0.1304
      5 O3'         8.0170   17.9850   18.1430 O.3       1 AGV        -0.3833
      6 N4'         6.7770   20.0990   20.1800 N.4       1 AGV         0.2496
      7 C1'         5.9440   18.9830   20.7260 C.3       1 AGV        -0.0014
      8 C2'         6.2110   17.8570   19.8100 C.3       1 AGV         0.1259
      9 O2'         7.1710   16.9830   20.4360 O.3       1 AGV        -0.3837
     10 C7          6.6010   21.4970   20.8240 C.3       1 AGV        -0.0113
     11 C9          5.2170   21.7440   21.3470 C.2       1 AGV         0.0166
     12 C8          4.2580   22.4830   20.6960 C.2       1 AGV         0.0326
     13 N7          3.1350   22.4930   21.4570 N.pl3     1 AGV        -0.2768
     14 C5          3.3290   21.7620   22.6120 C.ar      1 AGV         0.1304
     15 C4          4.6420   21.2890   22.5480 C.ar      1 AGV         0.0483
     16 C6          2.4990   21.4390   23.6940 C.ar      1 AGV         0.1459
     17 N6          1.2240   21.8210   23.7800 N.pl3     1 AGV        -0.3157
     18 N1          3.0380   20.6840   24.6790 N.ar      1 AGV        -0.2741
     19 C2          4.3000   20.2880   24.5740 C.ar      1 AGV         0.0439
     20 N3          5.1410   20.5550   23.5570 N.ar      1 AGV        -0.3132
     21 H1          6.3248   22.2800   17.3447 H         1 AGV         0.2097
     22 H2          5.3354   20.2175   17.0456 H         1 AGV         0.0614
     23 H3          4.6083   20.4366   18.6735 H         1 AGV         0.0614
     24 H4          7.5878   20.4117   18.2179 H         1 AGV         0.0901
     25 H5          6.0216   18.1656   17.6744 H         1 AGV         0.0679
     26 H6          7.9989   17.0417   18.0315 H         1 AGV         0.2102
     27 H7          7.7293   19.8623   20.4105 H         1 AGV         0.2047
     28 H8          4.8771   19.2505   20.7161 H         1 AGV         0.0841
     29 H9          6.2499   18.7328   21.7526 H         1 AGV         0.0841
     30 H10         5.2841   17.2942   19.6254 H         1 AGV         0.0675
     31 H11         7.3548   16.2511   19.8588 H         1 AGV         0.2101
     32 H12         6.8283   22.2609   20.0659 H         1 AGV         0.0901
     33 H13         7.3104   21.5873   21.6598 H         1 AGV         0.0901
     34 H14         4.3792   22.9766   19.7329 H         1 AGV         0.0886
     35 H15         2.2609   22.9776   21.2082 H         1 AGV         0.2266
     36 H16         0.6606   21.5541   24.5999 H         1 AGV         0.1805
     37 H17         0.8028   22.3829   23.0265 H         1 AGV         0.1805
     38 H18         4.6931   19.6899   25.3881 H         1 AGV         0.0956
@<TRIPOS>BOND
     1    1    2 1  
     2    2    3 1  
     3    3    4 1  
     4    3    6 1  
     5    4    5 1  
     6    4    8 1  
     7    6    7 1  
     8    6   10 1  
     9    7    8 1  
    10    8    9 1  
    11   10   11 1  
    12   11   12 2  
    13   11   15 1  
    14   12   13 1  
    15   13   14 1  
    16   14   15 ar 
    17   14   16 ar 
    18   15   20 ar 
    19   16   17 1  
    20   16   18 ar 
    21   18   19 ar 
    22   19   20 ar 
    23    1   21 1  
    24    2   22 1  
    25    2   23 1  
    26    3   24 1  
    27    4   25 1  
    28    5   26 1  
    29    6   27 1  
    30    7   28 1  
    31    7   29 1  
    32    8   30 1  
    33    9   31 1  
    34   10   32 1  
    35   10   33 1  
    36   12   34 1  
    37   13   35 1  
    38   17   36 1  
    39   17   37 1  
    40   19   38 1  
@<TRIPOS>SUBSTRUCTURE
     1 AGV         1

