### 
### Created by X-TOOL on Mon Sep 10 21:13:13 2018
### 

@<TRIPOS>MOLECULE
4i72_ligand
   35    37     1     0     0
SMALL
GAST_HUCK


@<TRIPOS>ATOM
      1 C2         19.1230   41.9300   11.7770 C.ar      1 UA2         0.0439
      2 C4         19.8260   44.0750   11.3100 C.ar      1 UA2         0.0487
      3 C5         20.5780   44.1510   12.5570 C.ar      1 UA2         0.1304
      4 C6         20.4950   42.9630   13.4040 C.ar      1 UA2         0.1459
      5 O5'        21.2060   49.1660   10.8210 O.3       1 UA2        -0.3894
      6 C5'        19.7790   48.9240   10.7090 C.3       1 UA2         0.0894
      7 C4'        19.4520   48.3070    9.3580 C.3       1 UA2         0.0313
      8 N4'        20.2460   47.1220    9.1260 N.4       1 UA2         0.2437
      9 C3'        18.0300   47.7530    9.2920 C.3       1 UA2         0.1318
     10 O3'        17.5010   48.0540    7.9860 O.3       1 UA2        -0.3832
     11 C2'        18.1120   46.2620    9.6680 C.3       1 UA2         0.1329
     12 O2'        17.2320   45.4800    8.8890 O.3       1 UA2        -0.3821
     13 C1'        19.5810   45.8700    9.4330 C.3       1 UA2         0.0271
     14 C9         20.1210   45.3750   10.7010 C.2       1 UA2         0.0222
     15 N3         19.1410   42.9900   10.9290 N.ar      1 UA2        -0.3132
     16 N1         19.7550   41.9240   12.9590 N.ar      1 UA2        -0.2741
     17 C8         20.9270   46.1020   11.5690 C.2       1 UA2         0.0330
     18 N7         21.1810   45.3390   12.6610 N.pl3     1 UA2        -0.2768
     19 N6         21.1540   42.9600   14.5790 N.pl3     1 UA2        -0.3157
     20 H1         18.5703   41.0448   11.4837 H         1 UA2         0.0956
     21 H2         21.4800   49.7614   10.1333 H         1 UA2         0.2097
     22 H3         19.2402   49.8774   10.8123 H         1 UA2         0.0614
     23 H4         19.4639   48.2363   11.5076 H         1 UA2         0.0614
     24 H5         19.6167   49.0571    8.5705 H         1 UA2         0.0900
     25 H6         21.0748   47.1841    9.6963 H         1 UA2         0.2029
     26 H7         20.5081   47.1066    8.1528 H         1 UA2         0.2029
     27 H8         17.3983   48.2583   10.0373 H         1 UA2         0.0680
     28 H9         16.6147   47.7187    7.9196 H         1 UA2         0.2102
     29 H10        17.8543   46.1286   10.7290 H         1 UA2         0.0693
     30 H11        16.3401   45.7760    9.0277 H         1 UA2         0.2103
     31 H12        19.6922   45.1291    8.6276 H         1 UA2         0.0963
     32 H13        21.2929   47.1138   11.4006 H         1 UA2         0.0886
     33 H14        21.7592   45.6345   13.4606 H         1 UA2         0.2266
     34 H15        21.1097   42.1336   15.1922 H         1 UA2         0.1805
     35 H16        21.7021   43.7841   14.8642 H         1 UA2         0.1805
@<TRIPOS>BOND
     1   15    1 ar 
     2    1   16 ar 
     3    2    3 ar 
     4   14    2 1  
     5    2   15 ar 
     6    3    4 ar 
     7    3   18 1  
     8    4   16 ar 
     9    4   19 1  
    10    6    5 1  
    11    7    6 1  
    12    8    7 1  
    13    9    7 1  
    14   13    8 1  
    15    9   10 1  
    16   11    9 1  
    17   11   12 1  
    18   13   11 1  
    19   13   14 1  
    20   14   17 2  
    21   17   18 1  
    22    1   20 1  
    23    5   21 1  
    24    6   22 1  
    25    6   23 1  
    26    7   24 1  
    27    8   25 1  
    28    8   26 1  
    29    9   27 1  
    30   10   28 1  
    31   11   29 1  
    32   12   30 1  
    33   13   31 1  
    34   17   32 1  
    35   18   33 1  
    36   19   34 1  
    37   19   35 1  
@<TRIPOS>SUBSTRUCTURE
     1 UA2         1

