### 
### Created by X-TOOL on Mon Sep 10 21:13:14 2018
### 

@<TRIPOS>MOLECULE
4i73_ligand
   36    38     1     0     0
SMALL
GAST_HUCK


@<TRIPOS>ATOM
      1 O6          0.4780   -5.7870   21.6870 O.2       1 MBY        -0.4039
      2 C6          1.6510   -5.7520   21.3330 C.2       1 MBY         0.2303
      3 N1          2.2130   -6.7600   20.6160 N.am      1 MBY        -0.2039
      4 C2          3.5190   -6.7430   20.2540 C.2       1 MBY         0.1221
      5 N3          4.2940   -5.7030   20.5300 N.2       1 MBY        -0.3061
      6 C4          3.8450   -4.6420   21.2100 C.2       1 MBY         0.0247
      7 C5          2.4800   -4.5790   21.6550 C.2       1 MBY         0.1070
      8 C9          4.5540   -3.3820   21.6060 C.2       1 MBY         0.0072
      9 C8          3.7220   -2.5320   22.3240 C.2       1 MBY        -0.0018
     10 S7          2.1240   -3.1650   22.4940 S.3       1 MBY        -0.0478
     11 C7          6.0130   -3.0650   21.2970 C.3       1 MBY        -0.0066
     12 N4'         6.2610   -2.5960   19.9010 N.4       1 MBY         0.2515
     13 C4'         6.2640   -1.1190   19.6150 C.3       1 MBY         0.0330
     14 C5'         5.0280   -0.3770   20.1440 C.3       1 MBY         0.0894
     15 O5'         5.2250    0.0250   21.5170 O.3       1 MBY        -0.3894
     16 C3'         6.2960   -1.0740   18.0890 C.3       1 MBY         0.1304
     17 O3'         7.6490   -0.8580   17.6230 O.3       1 MBY        -0.3833
     18 C2'         5.8210   -2.4670   17.6250 C.3       1 MBY         0.1259
     19 O2'         6.8900   -3.1530   16.9740 O.3       1 MBY        -0.3837
     20 C1'         5.4540   -3.2360   18.8420 C.3       1 MBY        -0.0011
     21 H1          1.6456   -7.5383   20.3471 H         1 MBY         0.2551
     22 H2          3.9393   -7.5985   19.7272 H         1 MBY         0.1475
     23 H3          4.0413   -1.5747   22.7334 H         1 MBY         0.0663
     24 H4          6.6058   -3.9765   21.4639 H         1 MBY         0.0930
     25 H5          6.3479   -2.2780   21.9887 H         1 MBY         0.0930
     26 H6          7.2089   -2.8923   19.7283 H         1 MBY         0.2049
     27 H7          7.1643   -0.6522   20.0410 H         1 MBY         0.0901
     28 H8          4.1540   -1.0422   20.0841 H         1 MBY         0.0614
     29 H9          4.8516    0.5168   19.5275 H         1 MBY         0.0614
     30 H10         5.9778    0.6019   21.5720 H         1 MBY         0.2097
     31 H11         5.6336   -0.2831   17.7073 H         1 MBY         0.0679
     32 H12         7.6553   -0.8320   16.6734 H         1 MBY         0.2102
     33 H13         4.9595   -2.3731   16.9475 H         1 MBY         0.0675
     34 H14         7.1740   -2.6508   16.2193 H         1 MBY         0.2101
     35 H15         4.3789   -3.1458   19.0564 H         1 MBY         0.0841
     36 H16         5.7182   -4.2981   18.7321 H         1 MBY         0.0841
@<TRIPOS>BOND
     1    1    2 2  
     2    2    3 am 
     3    2    7 1  
     4    3    4 1  
     5    4    5 2  
     6    5    6 1  
     7    6    7 2  
     8    6    8 1  
     9    7   10 1  
    10    8    9 2  
    11    8   11 1  
    12    9   10 1  
    13   11   12 1  
    14   12   13 1  
    15   12   20 1  
    16   13   14 1  
    17   13   16 1  
    18   14   15 1  
    19   16   17 1  
    20   16   18 1  
    21   18   19 1  
    22   18   20 1  
    23    3   21 1  
    24    4   22 1  
    25    9   23 1  
    26   11   24 1  
    27   11   25 1  
    28   12   26 1  
    29   13   27 1  
    30   14   28 1  
    31   14   29 1  
    32   15   30 1  
    33   16   31 1  
    34   17   32 1  
    35   18   33 1  
    36   19   34 1  
    37   20   35 1  
    38   20   36 1  
@<TRIPOS>SUBSTRUCTURE
     1 MBY         1

