### 
### Created by X-TOOL on Mon Sep 10 21:13:12 2018
### 

@<TRIPOS>MOLECULE
4i74_ligand
   36    38     1     0     0
SMALL
GAST_HUCK


@<TRIPOS>ATOM
      1 O6        -28.4290  -19.6740  -23.7730 O.2       1 MBY        -0.4039
      2 C6        -27.2810  -19.2370  -23.5340 C.2       1 MBY         0.2303
      3 N1        -26.6050  -18.4800  -24.4410 N.am      1 MBY        -0.2039
      4 C2        -25.3670  -17.9900  -24.2340 C.2       1 MBY         0.1221
      5 N3        -24.7040  -18.2200  -23.0990 N.2       1 MBY        -0.3061
      6 C4        -25.2730  -18.9550  -22.1280 C.2       1 MBY         0.0247
      7 C5        -26.6020  -19.5350  -22.2600 C.2       1 MBY         0.1070
      8 C9        -24.6920  -19.3350  -20.8020 C.2       1 MBY         0.0072
      9 C8        -25.5670  -20.1310  -20.0360 C.2       1 MBY        -0.0018
     10 S7        -27.0450  -20.4310  -20.8940 S.3       1 MBY        -0.0478
     11 C7        -23.2960  -18.9060  -20.3850 C.3       1 MBY        -0.0066
     12 N4'       -23.1030  -17.5250  -19.8790 N.4       1 MBY         0.2515
     13 C4'       -23.0940  -17.4350  -18.4050 C.3       1 MBY         0.0330
     14 C5'       -24.2460  -18.2070  -17.7240 C.3       1 MBY         0.0894
     15 O5'       -23.9150  -19.5720  -17.3300 O.3       1 MBY        -0.3894
     16 C3'       -23.1810  -15.9060  -18.1960 C.3       1 MBY         0.1304
     17 O3'       -21.9060  -15.3940  -17.7400 O.3       1 MBY        -0.3833
     18 C2'       -23.6640  -15.2930  -19.4960 C.3       1 MBY         0.1259
     19 O2'       -22.6460  -14.5290  -20.1460 O.3       1 MBY        -0.3837
     20 C1'       -24.0090  -16.4730  -20.3830 C.3       1 MBY        -0.0011
     21 H1        -27.0531  -18.2757  -25.3113 H         1 MBY         0.2551
     22 H2        -24.8958  -17.3914  -25.0122 H         1 MBY         0.1475
     23 H3        -25.3451  -20.5076  -19.0386 H         1 MBY         0.0663
     24 H4        -22.6437  -19.0246  -21.2628 H         1 MBY         0.0930
     25 H5        -22.9691  -19.5921  -19.5898 H         1 MBY         0.0930
     26 H6        -22.1803  -17.2652  -20.1907 H         1 MBY         0.2049
     27 H7        -22.1449  -17.8226  -18.0063 H         1 MBY         0.0901
     28 H8        -25.0925  -18.2484  -18.4252 H         1 MBY         0.0614
     29 H9        -24.5439  -17.6526  -16.8219 H         1 MBY         0.0614
     30 H10       -23.1921  -19.5561  -16.7138 H         1 MBY         0.2097
     31 H11       -23.9269  -15.6919  -17.4164 H         1 MBY         0.0679
     32 H12       -21.9698  -14.4544  -17.6146 H         1 MBY         0.2102
     33 H13       -24.5454  -14.6599  -19.3160 H         1 MBY         0.0675
     34 H14       -22.3664  -13.8243  -19.5736 H         1 MBY         0.2101
     35 H15       -25.0628  -16.7651  -20.2643 H         1 MBY         0.0841
     36 H16       -23.8077  -16.2478  -21.4407 H         1 MBY         0.0841
@<TRIPOS>BOND
     1    1    2 2  
     2    2    3 am 
     3    2    7 1  
     4    3    4 1  
     5    4    5 2  
     6    5    6 1  
     7    6    7 2  
     8    6    8 1  
     9    7   10 1  
    10    8    9 2  
    11    8   11 1  
    12    9   10 1  
    13   11   12 1  
    14   12   13 1  
    15   12   20 1  
    16   13   14 1  
    17   13   16 1  
    18   14   15 1  
    19   16   17 1  
    20   16   18 1  
    21   18   19 1  
    22   18   20 1  
    23    3   21 1  
    24    4   22 1  
    25    9   23 1  
    26   11   24 1  
    27   11   25 1  
    28   12   26 1  
    29   13   27 1  
    30   14   28 1  
    31   14   29 1  
    32   15   30 1  
    33   16   31 1  
    34   17   32 1  
    35   18   33 1  
    36   19   34 1  
    37   20   35 1  
    38   20   36 1  
@<TRIPOS>SUBSTRUCTURE
     1 MBY         1

