### 
### Created by X-TOOL on Mon Sep 10 21:13:15 2018
### 

@<TRIPOS>MOLECULE
4i7f_ligand
   70    73     1     0     0
SMALL
GAST_HUCK


@<TRIPOS>ATOM
      1 C1         12.5980   12.0990   15.1900 C.3       1 NVE        -0.0409
      2 C2         12.5710   13.3150   16.1420 C.3       1 NVE         0.0449
      3 N3         11.2480   13.8000   16.6510 N.pl3     1 NVE        -0.2355
      4 C4         11.1920   14.8250   17.6520 C.ar      1 NVE         0.1618
      5 C5         10.4640   14.6860   18.9080 C.ar      1 NVE         0.1214
      6 N6          9.7490   13.4950   19.2660 N.am      1 NVE        -0.2190
      7 C7          9.7630   13.1390   20.7370 C.3       1 NVE         0.0432
      8 C8          9.0540   12.6430   18.4350 C.2       1 NVE         0.2361
      9 O9          8.4840   11.6380   18.9060 O.2       1 NVE        -0.3724
     10 C10         8.9230   12.8420   16.9860 C.ar      1 NVE         0.1005
     11 C11         7.6870   12.4980   16.3620 C.ar      1 NVE        -0.0302
     12 C12         7.4930   12.6920   14.9240 C.ar      1 NVE        -0.0211
     13 C13         8.5450   13.2210   14.1460 C.ar      1 NVE         0.0028
     14 N14         9.7130   13.5440   14.7590 N.ar      1 NVE        -0.2825
     15 C15         9.9690   13.3900   16.1360 C.ar      1 NVE         0.1494
     16 C16        10.4770   15.8210   19.8170 C.ar      1 NVE        -0.0319
     17 C17        11.1710   17.0200   19.5100 C.ar      1 NVE        -0.0626
     18 C18        11.8800   17.1010   18.2630 C.ar      1 NVE        -0.0203
     19 N19        11.8660   16.0190   17.3850 N.ar      1 NVE        -0.2975
     20 C20         6.2420    2.5690   11.6860 C.3       1 NVE        -0.0350
     21 C21         6.0890    3.3960   12.9980 C.3       1 NVE         0.0894
     22 O22         6.4130    2.5900   14.2150 O.3       1 NVE        -0.2312
     23 P23         7.4430    3.3090   15.3020 P.3       1 NVE         0.3038
     24 C24         6.6950    4.9040   15.6710 C.3       1 NVE         0.1918
     25 O25         7.2870    5.8700   14.8150 O.3       1 NVE        -0.2959
     26 C26         6.8070    7.1600   14.9080 C.ar      1 NVE         0.0867
     27 C27         6.7980    7.9060   13.6720 C.ar      1 NVE        -0.0395
     28 C28         6.3200    9.2420   13.6360 C.ar      1 NVE        -0.0686
     29 C29         5.8230    9.8840   14.8690 C.ar      1 NVE        -0.0519
     30 C30         5.8240    9.1470   16.1280 C.ar      1 NVE        -0.0686
     31 C31         6.3120    7.7860   16.1650 C.ar      1 NVE        -0.0395
     32 C32         5.2960   11.3350   14.8730 C.3       1 NVE        -0.0150
     33 C33         6.1600   12.3720   14.0910 C.3       1 NVE        -0.0096
     34 O34         8.9320    3.4580   14.6400 O.3       1 NVE        -0.2312
     35 C35         9.4530    2.1700   14.0550 C.3       1 NVE         0.0894
     36 C36        10.1510    1.2270   15.0600 C.3       1 NVE        -0.0350
     37 O37         7.5040    2.5850   16.6190 O.2       1 NVE        -0.5335
     38 H1         13.6382   11.8741   14.9119 H         1 NVE         0.0253
     39 H2         12.0180   12.3295   14.2842 H         1 NVE         0.0253
     40 H3         12.1571   11.2274   15.6959 H         1 NVE         0.0253
     41 H4         13.0403   14.1547   15.6084 H         1 NVE         0.0566
     42 H5         13.1794   13.0526   17.0201 H         1 NVE         0.0566
     43 H6         10.3457   13.8901   21.2905 H         1 NVE         0.0547
     44 H7         10.2217   12.1481   20.8701 H         1 NVE         0.0547
     45 H8          8.7318   13.1201   21.1196 H         1 NVE         0.0547
     46 H9          6.8814   12.0878   16.9602 H         1 NVE         0.0694
     47 H10         8.4230   13.3668   13.0788 H         1 NVE         0.0755
     48 H11         9.9409   15.7490   20.7564 H         1 NVE         0.0564
     49 H12        11.1663   17.8557   20.2005 H         1 NVE         0.0563
     50 H13        12.4248   18.0021   18.0056 H         1 NVE         0.0637
     51 H14         5.9937    3.2029   10.8220 H         1 NVE         0.0257
     52 H15         5.5609    1.7057   11.7151 H         1 NVE         0.0257
     53 H16         7.2794    2.2147   11.5947 H         1 NVE         0.0257
     54 H17         5.0505    3.7505   13.0742 H         1 NVE         0.0635
     55 H18         6.7690    4.2595   12.9537 H         1 NVE         0.0635
     56 H19         6.8818    5.1707   16.7217 H         1 NVE         0.0904
     57 H20         5.6107    4.8593   15.4912 H         1 NVE         0.0904
     58 H21         7.1600    7.4411   12.7621 H         1 NVE         0.0525
     59 H22         6.3199    9.7917   12.7017 H         1 NVE         0.0530
     60 H23         5.4598    9.6183   17.0337 H         1 NVE         0.0530
     61 H24         6.3173    7.2293   17.0951 H         1 NVE         0.0525
     62 H25         5.2330   11.6686   15.9193 H         1 NVE         0.0426
     63 H26         4.2899   11.3301   14.4285 H         1 NVE         0.0426
     64 H27         6.4316   11.9571   13.1092 H         1 NVE         0.0438
     65 H28         5.5836   13.2984   13.9509 H         1 NVE         0.0438
     66 H29        10.1767    2.4226   13.2661 H         1 NVE         0.0635
     67 H30         8.6035    1.6284   13.6135 H         1 NVE         0.0635
     68 H31        10.4925    0.3216   14.5369 H         1 NVE         0.0257
     69 H32         9.4421    0.9468   15.8531 H         1 NVE         0.0257
     70 H33        11.0154    1.7410   15.5056 H         1 NVE         0.0257
@<TRIPOS>BOND
     1    2    1 1  
     2    3    2 1  
     3    3    4 1  
     4   15    3 1  
     5    4    5 ar 
     6    4   19 ar 
     7    6    5 1  
     8    5   16 ar 
     9    6    7 1  
    10    8    6 am 
    11    8    9 2  
    12   10    8 1  
    13   11   10 ar 
    14   10   15 ar 
    15   12   11 ar 
    16   12   13 ar 
    17   33   12 1  
    18   13   14 ar 
    19   14   15 ar 
    20   16   17 ar 
    21   18   17 ar 
    22   19   18 ar 
    23   21   20 1  
    24   22   21 1  
    25   23   22 1  
    26   24   23 1  
    27   23   34 1  
    28   23   37 2  
    29   25   24 1  
    30   26   25 1  
    31   27   26 ar 
    32   31   26 ar 
    33   28   27 ar 
    34   29   28 ar 
    35   29   30 ar 
    36   32   29 1  
    37   30   31 ar 
    38   32   33 1  
    39   34   35 1  
    40   35   36 1  
    41    1   38 1  
    42    1   39 1  
    43    1   40 1  
    44    2   41 1  
    45    2   42 1  
    46    7   43 1  
    47    7   44 1  
    48    7   45 1  
    49   11   46 1  
    50   13   47 1  
    51   16   48 1  
    52   17   49 1  
    53   18   50 1  
    54   20   51 1  
    55   20   52 1  
    56   20   53 1  
    57   21   54 1  
    58   21   55 1  
    59   24   56 1  
    60   24   57 1  
    61   27   58 1  
    62   28   59 1  
    63   30   60 1  
    64   31   61 1  
    65   32   62 1  
    66   32   63 1  
    67   33   64 1  
    68   33   65 1  
    69   35   66 1  
    70   35   67 1  
    71   36   68 1  
    72   36   69 1  
    73   36   70 1  
@<TRIPOS>SUBSTRUCTURE
     1 NVE         1

