### 
### Created by X-TOOL on Mon Sep 10 21:13:15 2018
### 

@<TRIPOS>MOLECULE
4i7j_ligand
   12    12     1     0     0
SMALL
GAST_HUCK


@<TRIPOS>ATOM
      1 C1          4.0520    8.5640    0.2300 C.ar      1 BNZ        -0.0618
      2 C2          4.5410    9.7730    0.7260 C.ar      1 BNZ        -0.0618
      3 C3          3.7690   10.6100    1.5330 C.ar      1 BNZ        -0.0618
      4 C4          2.4620   10.1550    1.8410 C.ar      1 BNZ        -0.0618
      5 C5          1.9800    8.9430    1.3640 C.ar      1 BNZ        -0.0618
      6 C6          2.7750    8.1380    0.5630 C.ar      1 BNZ        -0.0618
      7 H1          4.6725    7.9556   -0.4179 H         1 BNZ         0.0618
      8 H2          5.5528   10.0717    0.4766 H         1 BNZ         0.0618
      9 H3          4.1477   11.5556    1.9038 H         1 BNZ         0.0618
     10 H4          1.8225   10.7689    2.4648 H         1 BNZ         0.0618
     11 H5          0.9759    8.6245    1.6196 H         1 BNZ         0.0618
     12 H6          2.4027    7.1864    0.2011 H         1 BNZ         0.0618
@<TRIPOS>BOND
     1    1    2 ar 
     2    1    6 ar 
     3    2    3 ar 
     4    3    4 ar 
     5    4    5 ar 
     6    5    6 ar 
     7    1    7 1  
     8    2    8 1  
     9    3    9 1  
    10    4   10 1  
    11    5   11 1  
    12    6   12 1  
@<TRIPOS>SUBSTRUCTURE
     1 BNZ         1

