### 
### Created by X-TOOL on Mon Sep 10 21:13:13 2018
### 

@<TRIPOS>MOLECULE
4i7k_ligand
   15    15     1     0     0
SMALL
GAST_HUCK


@<TRIPOS>ATOM
      1 C           5.3240   11.1740    0.4770 C.3       1 MBN        -0.0311
      2 C1          4.1140   10.4210    0.9760 C.ar      1 MBN        -0.0461
      3 C2          3.6980    9.2710    0.3200 C.ar      1 MBN        -0.0606
      4 C3          2.5810    8.5880    0.7720 C.ar      1 MBN        -0.0686
      5 C4          1.8610    9.0510    1.8670 C.ar      1 MBN        -0.0687
      6 C5          2.2770   10.2010    2.5280 C.ar      1 MBN        -0.0686
      7 C6          3.3990   10.8980    2.0850 C.ar      1 MBN        -0.0606
      8 H1          5.7482   10.6511   -0.3928 H         1 MBN         0.0391
      9 H2          6.0779   11.2275    1.2762 H         1 MBN         0.0391
     10 H3          5.0273   12.1919    0.1840 H         1 MBN         0.0391
     11 H4          4.2451    8.9087   -0.5428 H         1 MBN         0.0557
     12 H5          2.2650    7.6827    0.2663 H         1 MBN         0.0599
     13 H6          0.9793    8.5179    2.2040 H         1 MBN         0.0559
     14 H7          1.7264   10.5567    3.3913 H         1 MBN         0.0599
     15 H8          3.7170   11.8013    2.5929 H         1 MBN         0.0557
@<TRIPOS>BOND
     1    1    2 1  
     2    2    3 ar 
     3    2    7 ar 
     4    3    4 ar 
     5    4    5 ar 
     6    5    6 ar 
     7    6    7 ar 
     8    1    8 1  
     9    1    9 1  
    10    1   10 1  
    11    3   11 1  
    12    4   12 1  
    13    5   13 1  
    14    6   14 1  
    15    7   15 1  
@<TRIPOS>SUBSTRUCTURE
     1 MBN         1

