### 
### Created by X-TOOL on Mon Sep 10 21:13:12 2018
### 

@<TRIPOS>MOLECULE
4i7l_ligand
   13    13     1     0     0
SMALL
GAST_HUCK


@<TRIPOS>ATOM
      1 C1          4.2410   10.9510    1.0770 C.ar      1 IPH         0.0876
      2 C2          3.9880    9.7870    0.3540 C.ar      1 IPH        -0.0334
      3 C3          2.8270    9.0460    0.6190 C.ar      1 IPH        -0.0707
      4 C4          1.9590    9.4370    1.6150 C.ar      1 IPH        -0.0729
      5 C5          2.2340   10.5730    2.3460 C.ar      1 IPH        -0.0707
      6 C6          3.3650   11.3510    2.0860 C.ar      1 IPH        -0.0334
      7 O1          5.3180   11.6980    0.7770 O.3       1 IPH        -0.3331
      8 H1          4.6840    9.4563   -0.4084 H         1 IPH         0.0542
      9 H2          2.6109    8.1584    0.0354 H         1 IPH         0.0589
     10 H3          1.0674    8.8563    1.8221 H         1 IPH         0.0523
     11 H4          1.5579   10.8691    3.1399 H         1 IPH         0.0589
     12 H5          3.5585   12.2506    2.6590 H         1 IPH         0.0542
     13 H6          5.0359   12.5629    0.5034 H         1 IPH         0.2481
@<TRIPOS>BOND
     1    1    2 ar 
     2    1    6 ar 
     3    1    7 1  
     4    2    3 ar 
     5    3    4 ar 
     6    4    5 ar 
     7    5    6 ar 
     8    2    8 1  
     9    3    9 1  
    10    4   10 1  
    11    5   11 1  
    12    6   12 1  
    13    7   13 1  
@<TRIPOS>SUBSTRUCTURE
     1 IPH         1

