### 
### Created by X-TOOL on Mon Sep 10 21:13:13 2018
### 

@<TRIPOS>MOLECULE
4i7m_ligand
   22    22     1     0     0
SMALL
GAST_HUCK


@<TRIPOS>ATOM
      1 C1          4.1590    8.8570    0.6720 C.ar      1 2LP        -0.0139
      2 C2          3.2490    9.3220    1.6030 C.ar      1 2LP         0.0892
      3 C3          3.8740    7.6040    0.1560 C.ar      1 2LP        -0.0688
      4 C4          5.3480    9.6180    0.2900 C.3       1 2LP        -0.0213
      5 C5          2.0950    8.5920    1.9620 C.ar      1 2LP        -0.0399
      6 O6          3.5050   10.5480    2.1830 O.3       1 2LP        -0.3369
      7 C7          2.7170    6.8610    0.4720 C.ar      1 2LP        -0.0797
      8 C8          1.7870    7.3260    1.3850 C.ar      1 2LP        -0.0776
      9 C13         5.3180   10.7450   -0.6950 C.3       1 2LP        -0.0477
     10 C14         4.3430   10.7180   -1.8410 C.3       1 2LP        -0.0637
     11 H1          4.5853    7.1660   -0.5349 H         1 2LP         0.0526
     12 H2          6.0604    8.8832   -0.1132 H         1 2LP         0.0403
     13 H3          5.7476   10.0426    1.2228 H         1 2LP         0.0403
     14 H4          1.4206    9.0086    2.7014 H         1 2LP         0.0521
     15 H5          4.3145   10.9002    1.8321 H         1 2LP         0.2456
     16 H6          2.5530    5.9046   -0.0112 H         1 2LP         0.0505
     17 H7          0.8927    6.7698    1.6416 H         1 2LP         0.0531
     18 H8          6.3239   10.8083   -1.1356 H         1 2LP         0.0282
     19 H9          5.1099   11.6611   -0.1229 H         1 2LP         0.0282
     20 H10         4.4699   11.6240   -2.4518 H         1 2LP         0.0231
     21 H11         3.3162   10.6816   -1.4481 H         1 2LP         0.0231
     22 H12         4.5302    9.8288   -2.4608 H         1 2LP         0.0231
@<TRIPOS>BOND
     1    1    2 ar 
     2    1    3 ar 
     3    1    4 1  
     4    2    5 ar 
     5    2    6 1  
     6    3    7 ar 
     7    4    9 1  
     8    5    8 ar 
     9    7    8 ar 
    10    9   10 1  
    11    3   11 1  
    12    4   12 1  
    13    4   13 1  
    14    5   14 1  
    15    6   15 1  
    16    7   16 1  
    17    8   17 1  
    18    9   18 1  
    19    9   19 1  
    20   10   20 1  
    21   10   21 1  
    22   10   22 1  
@<TRIPOS>SUBSTRUCTURE
     1 2LP         1

