### 
### Created by X-TOOL on Mon Sep 10 21:13:13 2018
### 

@<TRIPOS>MOLECULE
4i7p_ligand
    9     9     1     0     0
SMALL
GAST_HUCK


@<TRIPOS>ATOM
      1 BR01        2.1050    7.3970    1.0260 Br        1 ES3        -0.0266
      2 C02         3.4590    8.7240    0.9910 C.2       1 ES3         0.1080
      3 C03         3.5610    9.8170    1.7550 C.2       1 ES3        -0.0105
      4 N04         4.6740   10.4140    1.3460 N.2       1 ES3        -0.3233
      5 C05         5.2160    9.7170    0.3680 C.2       1 ES3         0.0981
      6 N06         4.4680    8.6370    0.1490 N.pl3     1 ES3        -0.2607
      7 H1          2.8809   10.1450    2.5397 H         1 ES3         0.0506
      8 H2          6.1246    9.9802   -0.1716 H         1 ES3         0.1245
      9 H3          4.6425    7.8886   -0.5369 H         1 ES3         0.2399
@<TRIPOS>BOND
     1    1    2 1  
     2    2    3 2  
     3    2    6 1  
     4    3    4 1  
     5    4    5 2  
     6    5    6 1  
     7    3    7 1  
     8    5    8 1  
     9    6    9 1  
@<TRIPOS>SUBSTRUCTURE
     1 ES3         1

