### 
### Created by X-TOOL on Mon Sep 10 21:13:10 2018
### 

@<TRIPOS>MOLECULE
4i8n_ligand
   51    54     1     0     0
SMALL
GAST_HUCK


@<TRIPOS>ATOM
      1 C4        -13.5560   36.6020   32.2970 C.ar      1 1CG        -0.0469
      2 C5        -12.3380   37.1380   31.8940 C.ar      1 1CG         0.0586
      3 C6        -11.4630   36.3040   31.2130 C.ar      1 1CG        -0.0469
      4 C13       -12.5550   39.2960   35.2880 C.2       1 1CG         0.2136
      5 C15       -11.1000   42.1990   35.4620 C.ar      1 1CG        -0.0526
      6 C17        -9.6240   44.0730   35.9080 C.ar      1 1CG        -0.0471
      7 C20       -10.8360   41.7540   36.7440 C.ar      1 1CG        -0.0728
      8 C22        -8.0840   44.1720   39.1750 C.2       1 1CG         0.2693
      9 C28       -13.8650   38.5420   36.8970 C.ar      1 1CG         0.0370
     10 O26        -6.1200   44.7140   40.2080 O.co2     1 1CG        -0.5455
     11 C23        -7.1530   45.1170   39.7430 C.2       1 1CG         0.1492
     12 O25        -7.3810   46.3980   39.7350 O.co2     1 1CG        -0.5455
     13 O24        -8.3910   43.2550   39.8690 O.2       1 1CG        -0.3543
     14 N21        -8.5160   44.3610   37.9280 N.am      1 1CG        -0.2297
     15 C18        -9.3560   43.6220   37.1760 C.ar      1 1CG         0.0607
     16 C16       -10.4870   43.3750   35.0850 C.ar      1 1CG        -0.0728
     17 C19        -9.9680   42.4510   37.5830 C.ar      1 1CG        -0.0471
     18 C14       -12.0320   41.5250   34.4630 C.3       1 1CG         0.0185
     19 C12       -11.9150   40.0180   34.1820 C.3       1 1CG         0.2007
     20 S9        -12.8050   39.5500   32.8770 S.o2      1 1CG         0.0836
     21 O10       -13.1880   40.6580   32.0120 O.2       1 1CG        -0.1464
     22 O11       -14.0570   39.0640   33.4010 O.2       1 1CG        -0.1464
     23 N8        -11.9710   38.4240   32.1120 N.am      1 1CG        -0.1907
     24 C3        -13.8700   35.2630   32.0290 C.ar      1 1CG        -0.0441
     25 C2        -12.9850   34.4330   31.3540 C.ar      1 1CG         0.1136
     26 F7        -13.2860   33.1430   31.0890 F         1 1CG        -0.1979
     27 C1        -11.7770   34.9720   30.9480 C.ar      1 1CG        -0.0441
     28 O30       -11.8630   38.3000   35.8700 O.3       1 1CG        -0.2150
     29 C29       -12.7150   37.8430   36.8770 C.ar      1 1CG         0.1416
     30 C34       -12.4620   36.8310   37.7590 C.ar      1 1CG        -0.0302
     31 C33       -13.4290   36.5470   38.6970 C.ar      1 1CG        -0.0741
     32 C32       -14.5990   37.2550   38.7280 C.ar      1 1CG        -0.0768
     33 C31       -14.8280   38.2580   37.8220 C.ar      1 1CG        -0.0622
     34 N27       -13.7520   39.4280   35.8910 N.2       1 1CG        -0.2989
     35 H1        -14.2693   37.2258   32.8234 H         1 1CG         0.0473
     36 H2        -10.5104   36.6985   30.8783 H         1 1CG         0.0473
     37 H3         -9.1557   44.9826   35.5497 H         1 1CG         0.0488
     38 H4        -11.3117   40.8484   37.1026 H         1 1CG         0.0520
     39 H5         -8.1606   45.1810   37.4793 H         1 1CG         0.2247
     40 H6        -10.6916   43.7705   34.0967 H         1 1CG         0.0520
     41 H7         -9.7684   42.0663   38.5766 H         1 1CG         0.0488
     42 H8        -11.8864   42.0374   33.5006 H         1 1CG         0.0451
     43 H9        -13.0574   41.7004   34.8204 H         1 1CG         0.0451
     44 H10       -10.8583   39.7370   34.0624 H         1 1CG         0.0873
     45 H11       -11.0785   38.6983   31.7539 H         1 1CG         0.2146
     46 H12       -14.8245   34.8665   32.3557 H         1 1CG         0.0561
     47 H13       -11.0654   34.3502   30.4168 H         1 1CG         0.0561
     48 H14       -11.5340   36.2721   37.7217 H         1 1CG         0.0559
     49 H15       -13.2616   35.7548   39.4178 H         1 1CG         0.0536
     50 H16       -15.3501   37.0214   39.4739 H         1 1CG         0.0527
     51 H17       -15.7573   38.8158   37.8398 H         1 1CG         0.0542
@<TRIPOS>BOND
     1    2    1 ar 
     2    1   24 ar 
     3    2    3 ar 
     4   23    2 1  
     5    3   27 ar 
     6   19    4 1  
     7    4   28 1  
     8    4   34 2  
     9    5    7 ar 
    10    5   16 ar 
    11   18    5 1  
    12    6   15 ar 
    13   16    6 ar 
    14    7   17 ar 
    15    8   11 1  
    16    8   13 2  
    17   14    8 am 
    18    9   29 ar 
    19    9   33 ar 
    20   34    9 1  
    21   11   10 ar 
    22   11   12 ar 
    23   15   14 1  
    24   17   15 ar 
    25   19   18 1  
    26   20   19 1  
    27   20   21 2  
    28   20   22 2  
    29   20   23 am 
    30   24   25 ar 
    31   25   26 1  
    32   25   27 ar 
    33   28   29 1  
    34   29   30 ar 
    35   30   31 ar 
    36   31   32 ar 
    37   32   33 ar 
    38    1   35 1  
    39    3   36 1  
    40    6   37 1  
    41    7   38 1  
    42   14   39 1  
    43   16   40 1  
    44   17   41 1  
    45   18   42 1  
    46   18   43 1  
    47   19   44 1  
    48   23   45 1  
    49   24   46 1  
    50   27   47 1  
    51   30   48 1  
    52   31   49 1  
    53   32   50 1  
    54   33   51 1  
@<TRIPOS>SUBSTRUCTURE
     1 1CG         1

