### 
### Created by X-TOOL on Mon Sep 10 21:13:14 2018
### 

@<TRIPOS>MOLECULE
4i8w_ligand
   78    81     1     0     0
SMALL
GAST_HUCK


@<TRIPOS>ATOM
      1 O22         8.4010   15.2230    2.6770 O.3       1 G07        -0.3283
      2 C21         8.1760   16.3880    2.8940 C.3       1 G07         0.1954
      3 O23         8.5700   16.8000    4.1420 O.3       1 G07        -0.3067
      4 C24         8.1010   16.1300    5.3470 C.3       1 G07         0.0976
      5 C31         6.8090   16.6640    6.0030 C.3       1 G07         0.0409
      6 C30         5.7350   17.3060    5.2100 C.3       1 G07        -0.0195
      7 C29         5.8150   18.7720    5.6410 C.3       1 G07         0.0512
      8 O28         7.0300   18.8790    6.4080 O.3       1 G07        -0.3509
      9 C27         7.3290   17.6580    6.9230 C.3       1 G07         0.1645
     10 O26         8.7090   17.4590    7.0820 O.3       1 G07        -0.3484
     11 C25         8.9980   16.1460    6.6370 C.3       1 G07         0.0776
     12 N20         8.4710   17.4250    2.0780 N.4       1 G07         0.2760
     13 C19         8.5600   17.3050    0.6360 C.3       1 G07         0.0199
     14 C32         7.6160   18.3020    0.0540 C.3       1 G07         0.0267
     15 C38         6.2300   18.0050    0.6060 C.ar      1 G07        -0.0376
     16 C37         5.6240   16.7910    0.2830 C.ar      1 G07        -0.0601
     17 C36         4.3480   16.4940    0.7850 C.ar      1 G07        -0.0686
     18 C35         3.7160   17.4070    1.5950 C.ar      1 G07        -0.0687
     19 C34         4.3060   18.6090    1.9340 C.ar      1 G07        -0.0686
     20 C33         5.5680   18.9270    1.4390 C.ar      1 G07        -0.0601
     21 C17        10.0170   17.6650    0.1800 C.3       1 G07         0.1165
     22 O18        10.2640   18.9930    0.4620 O.3       1 G07        -0.3844
     23 C16        10.3940   17.2930   -1.2740 C.3       1 G07         0.0611
     24 N11        10.3850   15.8160   -1.2800 N.am      1 G07        -0.2309
     25 C12        11.6790   15.3020   -1.7470 C.3       1 G07         0.0321
     26 C13        12.5360   14.7600   -0.6030 C.3       1 G07        -0.0296
     27 C15        13.0380   13.4140   -1.0160 C.3       1 G07        -0.0612
     28 C14        11.7030   14.6020    0.6320 C.3       1 G07        -0.0612
     29 S8          9.1010   15.2050   -2.1910 S.o2      1 G07         0.0718
     30 O9          7.9320   16.0230   -2.1840 O.2       1 G07        -0.1498
     31 O10         8.6630   13.9350   -1.6790 O.2       1 G07        -0.1498
     32 C5          9.6580   15.0700   -3.9030 C.ar      1 G07         0.1109
     33 C4         10.1260   13.8550   -4.3470 C.ar      1 G07        -0.0315
     34 C3         10.5700   13.7180   -5.6670 C.ar      1 G07        -0.0457
     35 C6          9.5640   16.2440   -4.6750 C.ar      1 G07        -0.0315
     36 C7         10.0310   16.0900   -5.9990 C.ar      1 G07        -0.0457
     37 C2         10.5080   14.8560   -6.4760 C.ar      1 G07         0.0103
     38 C1         10.9650   14.8010   -7.7760 C.2       1 G07         0.0629
     39 O1         10.8700   15.9680   -8.2080 O.co2     1 G07        -0.5606
     40 O2         11.3770   13.6610   -8.0760 O.co2     1 G07        -0.5606
     41 H1          8.1061   15.0024    1.8013 H         1 G07         0.2180
     42 H2          7.0762   16.3961    2.9147 H         1 G07         0.1549
     43 H3          7.9425   15.0847    5.0435 H         1 G07         0.0626
     44 H4          6.3428   15.8319    6.5509 H         1 G07         0.0376
     45 H5          4.7526   16.8756    5.4543 H         1 G07         0.0292
     46 H6          5.9236   17.2006    4.1314 H         1 G07         0.0292
     47 H7          4.9451   19.0397    6.2587 H         1 G07         0.0561
     48 H8          5.8563   19.4304    4.7607 H         1 G07         0.0561
     49 H9          6.8412   17.5513    7.9031 H         1 G07         0.0913
     50 H10        10.0643   16.0144    6.4012 H         1 G07         0.0587
     51 H11         8.6870   15.3840    7.3668 H         1 G07         0.0587
     52 H12         9.3683   17.7690    2.3822 H         1 G07         0.2074
     53 H13         7.7661   18.1237    2.2538 H         1 G07         0.2074
     54 H14         8.2988   16.2862    0.3138 H         1 G07         0.0902
     55 H15         7.6088   18.2152   -1.0425 H         1 G07         0.0482
     56 H16         7.9226   19.3191    0.3394 H         1 G07         0.0482
     57 H17         6.1371   16.0794   -0.3537 H         1 G07         0.0557
     58 H18         3.8661   15.5552    0.5369 H         1 G07         0.0599
     59 H19         2.7282   17.1776    1.9780 H         1 G07         0.0559
     60 H20         3.7873   19.3038    2.5845 H         1 G07         0.0599
     61 H21         6.0347   19.8722    1.6917 H         1 G07         0.0557
     62 H22        10.6901   17.0730    0.8175 H         1 G07         0.0668
     63 H23         9.6394   19.5361   -0.0044 H         1 G07         0.2101
     64 H24        11.3919   17.6787   -1.5299 H         1 G07         0.0506
     65 H25         9.6539   17.6911   -1.9837 H         1 G07         0.0506
     66 H26        12.2257   16.1180   -2.2423 H         1 G07         0.0480
     67 H27        11.4980   14.4912   -2.4680 H         1 G07         0.0480
     68 H28        13.3774   15.4400   -0.4039 H         1 G07         0.0311
     69 H29        13.6609   12.9928   -0.2131 H         1 G07         0.0233
     70 H30        13.6382   13.5119   -1.9326 H         1 G07         0.0233
     71 H31        12.1844   12.7467   -1.2061 H         1 G07         0.0233
     72 H32        11.3260   15.5858    0.9483 H         1 G07         0.0233
     73 H33        12.3169   14.1690    1.4355 H         1 G07         0.0233
     74 H34        10.8543   13.9353    0.4191 H         1 G07         0.0233
     75 H35        10.1508   13.0047   -3.6751 H         1 G07         0.0644
     76 H36        10.9445   12.7734   -6.0444 H         1 G07         0.0652
     77 H37         9.1704   17.1776   -4.2895 H         1 G07         0.0644
     78 H38        10.0215   16.9453   -6.6649 H         1 G07         0.0652
@<TRIPOS>BOND
     1    1    2 1  
     2    2    3 1  
     3    2   12 1  
     4    3    4 1  
     5    4    5 1  
     6    4   11 1  
     7    5    6 1  
     8    5    9 1  
     9    6    7 1  
    10    7    8 1  
    11    8    9 1  
    12    9   10 1  
    13   10   11 1  
    14   12   13 1  
    15   13   14 1  
    16   13   21 1  
    17   14   15 1  
    18   15   16 ar 
    19   15   20 ar 
    20   16   17 ar 
    21   17   18 ar 
    22   18   19 ar 
    23   19   20 ar 
    24   21   22 1  
    25   21   23 1  
    26   23   24 1  
    27   24   25 1  
    28   24   29 am 
    29   25   26 1  
    30   26   27 1  
    31   26   28 1  
    32   29   30 2  
    33   29   31 2  
    34   29   32 1  
    35   32   33 ar 
    36   32   35 ar 
    37   33   34 ar 
    38   34   37 ar 
    39   35   36 ar 
    40   36   37 ar 
    41   37   38 1  
    42   38   39 ar 
    43   38   40 ar 
    44    1   41 1  
    45    2   42 1  
    46    4   43 1  
    47    5   44 1  
    48    6   45 1  
    49    6   46 1  
    50    7   47 1  
    51    7   48 1  
    52    9   49 1  
    53   11   50 1  
    54   11   51 1  
    55   12   52 1  
    56   12   53 1  
    57   13   54 1  
    58   14   55 1  
    59   14   56 1  
    60   16   57 1  
    61   17   58 1  
    62   18   59 1  
    63   19   60 1  
    64   20   61 1  
    65   21   62 1  
    66   22   63 1  
    67   23   64 1  
    68   23   65 1  
    69   25   66 1  
    70   25   67 1  
    71   26   68 1  
    72   27   69 1  
    73   27   70 1  
    74   27   71 1  
    75   28   72 1  
    76   28   73 1  
    77   28   74 1  
    78   33   75 1  
    79   34   76 1  
    80   35   77 1  
    81   36   78 1  
@<TRIPOS>SUBSTRUCTURE
     1 G07         1

