### 
### Created by X-TOOL on Mon Sep 10 21:13:14 2018
### 

@<TRIPOS>MOLECULE
4i8x_ligand
   23    24     1     0     0
SMALL
GAST_HUCK


@<TRIPOS>ATOM
      1 C1         11.9180   12.6490   43.3830 C.ar      1 6P3         0.0009
      2 C2         11.6020   13.7030   42.4880 C.ar      1 6P3        -0.0502
      3 C3         11.9930   13.6590   41.1240 C.ar      1 6P3        -0.0590
      4 C4         12.7160   12.5500   40.6280 C.ar      1 6P3        -0.0598
      5 C5         13.0380   11.4890   41.5090 C.ar      1 6P3        -0.0590
      6 C6         12.6430   11.5440   42.8670 C.ar      1 6P3        -0.0502
      7 C12        11.4950   12.7480   44.8220 C.ar      1 6P3         0.0547
      8 N13        11.3280   14.0280   45.3590 N.ar      1 6P3        -0.2882
      9 C14        10.9600   14.2330   46.6500 C.ar      1 6P3         0.0239
     10 C15        10.7210   13.1580   47.5330 C.ar      1 6P3         0.0369
     11 C16        10.8790   11.8440   47.0140 C.ar      1 6P3        -0.0286
     12 C17        11.2640   11.6370   45.6640 C.ar      1 6P3        -0.0241
     13 C21        10.3350   13.4190   48.9330 C.2       1 6P3         0.0696
     14 O22        10.5780   14.4690   49.4480 O.co2     1 6P3        -0.5590
     15 O23         9.7190   12.4140   49.5940 O.co2     1 6P3        -0.5590
     16 H1         11.0497   14.5611   42.8536 H         1 6P3         0.0643
     17 H2         11.7366   14.4776   40.4613 H         1 6P3         0.0623
     18 H3         13.0196   12.5123   39.5881 H         1 6P3         0.0634
     19 H4         13.5894   10.6310   41.1417 H         1 6P3         0.0623
     20 H5         12.9001   10.7237   43.5274 H         1 6P3         0.0643
     21 H6         10.8469   15.2486   47.0118 H         1 6P3         0.0859
     22 H7         10.7032   10.9896   47.6575 H         1 6P3         0.0765
     23 H8         11.3805   10.6300   45.2800 H         1 6P3         0.0719
@<TRIPOS>BOND
     1    1    2 ar 
     2    1    6 ar 
     3    1    7 1  
     4    2    3 ar 
     5    3    4 ar 
     6    4    5 ar 
     7    5    6 ar 
     8    7    8 ar 
     9    7   12 ar 
    10    8    9 ar 
    11    9   10 ar 
    12   10   11 ar 
    13   10   13 1  
    14   11   12 ar 
    15   13   14 ar 
    16   13   15 ar 
    17    2   16 1  
    18    3   17 1  
    19    4   18 1  
    20    5   19 1  
    21    6   20 1  
    22    9   21 1  
    23   11   22 1  
    24   12   23 1  
@<TRIPOS>SUBSTRUCTURE
     1 6P3         1

