### 
### Created by X-TOOL on Mon Sep 10 21:13:13 2018
### 

@<TRIPOS>MOLECULE
4i8z_ligand
   77    80     1     0     0
SMALL
GAST_HUCK


@<TRIPOS>ATOM
      1 O22       -17.2240    0.5750   -2.6400 O.2       1 G08        -0.3775
      2 C21       -18.2990    1.0550   -2.9940 C.2       1 G08         0.3203
      3 O23       -18.6020    1.0790   -4.3500 O.3       1 G08        -0.2578
      4 C24       -17.6440    0.9740   -5.3270 C.3       1 G08         0.1189
      5 C31       -17.3790    2.3080   -5.9130 C.3       1 G08         0.0449
      6 C30       -17.4080    3.5630   -5.1090 C.3       1 G08        -0.0191
      7 C29       -18.9560    3.8420   -5.1140 C.3       1 G08         0.0512
      8 O28       -19.2760    3.5360   -6.4770 O.3       1 G08        -0.3509
      9 C27       -18.4740    2.4590   -6.8530 C.3       1 G08         0.1648
     10 O26       -19.0890    1.2120   -6.9970 O.3       1 G08        -0.3480
     11 C25       -18.2230    0.2170   -6.4880 C.3       1 G08         0.0815
     12 N20       -19.3720    1.2320   -2.1370 N.am      1 G08        -0.2550
     13 C19       -19.1480    1.2430   -0.7080 C.3       1 G08         0.0807
     14 C32       -19.4460    2.6330   -0.1550 C.3       1 G08         0.0064
     15 C38       -18.4730    3.6290   -0.7850 C.ar      1 G08        -0.0408
     16 C37       -18.9050    4.6210   -1.6990 C.ar      1 G08        -0.0603
     17 C36       -17.9990    5.5120   -2.2620 C.ar      1 G08        -0.0686
     18 C35       -16.6610    5.4140   -1.9370 C.ar      1 G08        -0.0687
     19 C34       -16.2080    4.4590   -1.0340 C.ar      1 G08        -0.0686
     20 C33       -17.1180    3.5640   -0.4560 C.ar      1 G08        -0.0603
     21 C17       -20.1150    0.2160   -0.1090 C.3       1 G08         0.0967
     22 O18       -21.3940    0.6420   -0.4130 O.3       1 G08        -0.3877
     23 C16       -19.8950   -0.1690    1.3600 C.3       1 G08         0.0579
     24 N11       -18.5710   -0.8420    1.4390 N.am      1 G08        -0.2309
     25 C12       -18.5810   -2.2980    1.7250 C.3       1 G08         0.0321
     26 C13       -18.8960   -3.0900    0.4450 C.3       1 G08        -0.0296
     27 C15       -19.2360   -4.5130    0.8770 C.3       1 G08        -0.0612
     28 C14       -17.6620   -3.1830   -0.3960 C.3       1 G08        -0.0612
     29 S8        -17.4060   -0.0590    2.3700 S.o2      1 G08         0.0725
     30 O9        -17.5300    1.3790    2.2000 O.2       1 G08        -0.1496
     31 O10       -16.1320   -0.5190    1.9030 O.2       1 G08        -0.1496
     32 C5        -17.5900   -0.4480    4.1070 C.ar      1 G08         0.1126
     33 C4        -16.7650   -1.4600    4.5850 C.ar      1 G08        -0.0295
     34 C3        -16.8460   -1.8720    5.9090 C.ar      1 G08        -0.0401
     35 C6        -18.5970    0.2030    4.8240 C.ar      1 G08        -0.0295
     36 C7        -18.6580   -0.2240    6.1750 C.ar      1 G08        -0.0401
     37 C2        -17.8040   -1.2440    6.6880 C.ar      1 G08         0.0498
     38 C1        -17.8740   -1.6870    8.1280 C.2       1 G08         0.2025
     39 O1        -18.8800   -1.4640    8.7190 O.2       1 G08        -0.3849
     40 N1        -16.8060   -2.3630    8.8090 N.am      1 G08        -0.3001
     41 H1        -16.7305    0.5042   -4.9337 H         1 G08         0.0675
     42 H2        -16.4060    2.2647   -6.4243 H         1 G08         0.0380
     43 H3        -16.8439    4.3735   -5.5937 H         1 G08         0.0293
     44 H4        -17.0230    3.4064   -4.0905 H         1 G08         0.0293
     45 H5        -19.1797    4.8912   -4.8708 H         1 G08         0.0561
     46 H6        -19.4893    3.1817   -4.4143 H         1 G08         0.0561
     47 H7        -18.0513    2.7174   -7.8351 H         1 G08         0.0913
     48 H8        -18.7718   -0.6791   -6.1627 H         1 G08         0.0590
     49 H9        -17.4519   -0.0701   -7.2180 H         1 G08         0.0590
     50 H10       -20.2949    1.3513   -2.5032 H         1 G08         0.1873
     51 H11       -18.1079    0.9676   -0.4793 H         1 G08         0.0604
     52 H12       -19.3190    2.6319    0.9376 H         1 G08         0.0449
     53 H13       -20.4792    2.9169   -0.4038 H         1 G08         0.0449
     54 H14       -19.9545    4.6860   -1.9625 H         1 G08         0.0557
     55 H15       -18.3400    6.2770   -2.9501 H         1 G08         0.0599
     56 H16       -15.9509    6.0937   -2.3940 H         1 G08         0.0559
     57 H17       -15.1559    4.4070   -0.7783 H         1 G08         0.0599
     58 H18       -16.7686    2.8185    0.2491 H         1 G08         0.0557
     59 H19       -19.9545   -0.7177   -0.6680 H         1 G08         0.0634
     60 H20       -21.5387    1.5013   -0.0346 H         1 G08         0.2100
     61 H21       -20.6878   -0.8546    1.6938 H         1 G08         0.0504
     62 H22       -19.8993    0.7317    1.9914 H         1 G08         0.0504
     63 H23       -19.3479   -2.5138    2.4834 H         1 G08         0.0480
     64 H24       -17.5940   -2.6001    2.1052 H         1 G08         0.0480
     65 H25       -19.7228   -2.6269   -0.1135 H         1 G08         0.0311
     66 H26       -19.4696   -5.1196   -0.0104 H         1 G08         0.0233
     67 H27       -20.1074   -4.4942    1.5480 H         1 G08         0.0233
     68 H28       -18.3762   -4.9513    1.4048 H         1 G08         0.0233
     69 H29       -17.3728   -2.1773   -0.7351 H         1 G08         0.0233
     70 H30       -17.8608   -3.8214   -1.2694 H         1 G08         0.0233
     71 H31       -16.8452   -3.6185    0.1983 H         1 G08         0.0233
     72 H32       -16.0522   -1.9317    3.9184 H         1 G08         0.0649
     73 H33       -16.1963   -2.6415    6.3100 H         1 G08         0.0670
     74 H34       -19.2566    0.9494    4.3964 H         1 G08         0.0649
     75 H35       -19.3776    0.2404    6.8395 H         1 G08         0.0670
     76 H36       -16.9141   -2.6314    9.7662 H         1 G08         0.1808
     77 H37       -15.9540   -2.5654    8.3261 H         1 G08         0.1808
@<TRIPOS>BOND
     1    1    2 2  
     2    2    3 1  
     3    2   12 am 
     4    3    4 1  
     5    4    5 1  
     6    4   11 1  
     7    5    6 1  
     8    5    9 1  
     9    6    7 1  
    10    7    8 1  
    11    8    9 1  
    12    9   10 1  
    13   10   11 1  
    14   12   13 1  
    15   13   14 1  
    16   13   21 1  
    17   14   15 1  
    18   15   16 ar 
    19   15   20 ar 
    20   16   17 ar 
    21   17   18 ar 
    22   18   19 ar 
    23   19   20 ar 
    24   21   22 1  
    25   21   23 1  
    26   23   24 1  
    27   24   25 1  
    28   24   29 am 
    29   25   26 1  
    30   26   27 1  
    31   26   28 1  
    32   29   30 2  
    33   29   31 2  
    34   29   32 1  
    35   32   33 ar 
    36   32   35 ar 
    37   33   34 ar 
    38   34   37 ar 
    39   35   36 ar 
    40   36   37 ar 
    41   37   38 1  
    42   38   39 2  
    43   38   40 am 
    44    4   41 1  
    45    5   42 1  
    46    6   43 1  
    47    6   44 1  
    48    7   45 1  
    49    7   46 1  
    50    9   47 1  
    51   11   48 1  
    52   11   49 1  
    53   12   50 1  
    54   13   51 1  
    55   14   52 1  
    56   14   53 1  
    57   16   54 1  
    58   17   55 1  
    59   18   56 1  
    60   19   57 1  
    61   20   58 1  
    62   21   59 1  
    63   22   60 1  
    64   23   61 1  
    65   23   62 1  
    66   25   63 1  
    67   25   64 1  
    68   26   65 1  
    69   27   66 1  
    70   27   67 1  
    71   27   68 1  
    72   28   69 1  
    73   28   70 1  
    74   28   71 1  
    75   33   72 1  
    76   34   73 1  
    77   35   74 1  
    78   36   75 1  
    79   40   76 1  
    80   40   77 1  
@<TRIPOS>SUBSTRUCTURE
     1 G08         1

