### 
### Created by X-TOOL on Mon Sep 10 21:13:15 2018
### 

@<TRIPOS>MOLECULE
4i9h_ligand
   80    83     1     0     0
SMALL
GAST_HUCK


@<TRIPOS>ATOM
      1 C1         14.1810   11.6990   29.8130 C.ar      1 1E4         0.0863
      2 C2         13.4380   12.8200   30.2820 C.ar      1 1E4         0.1054
      3 C3         13.9300   13.5720   31.3830 C.ar      1 1E4        -0.0158
      4 C4         15.1370   13.2500   32.0280 C.ar      1 1E4         0.0818
      5 C5         15.8750   12.1170   31.5450 C.ar      1 1E4         0.0431
      6 C6         15.4010   11.3510   30.4460 C.ar      1 1E4        -0.0433
      7 O9         15.3920   14.1600   33.0810 O.3       1 1E4        -0.3266
      8 C10        15.3020   13.7370   34.4090 C.3       1 1E4         0.0957
      9 C11        15.3570   14.9050   35.4060 C.3       1 1E4         0.1107
     10 C14        13.9280   15.3340   35.8400 C.3       1 1E4         0.1118
     11 C15        12.8390   16.1650   38.1280 C.3       1 1E4         0.1110
     12 C16        13.2980   15.2520   39.2790 C.3       1 1E4         0.0987
     13 O17        12.1100   14.7250   39.9120 O.3       1 1E4        -0.3160
     14 C20        12.3010   13.6960   40.8590 C.ar      1 1E4         0.0920
     15 C21        11.7850   13.8710   42.1830 C.ar      1 1E4        -0.0260
     16 C22        11.9570   12.8650   43.1880 C.ar      1 1E4        -0.0098
     17 C23        12.6500   11.7030   42.8260 C.ar      1 1E4        -0.0278
     18 C24        13.1480   11.5390   41.5340 C.ar      1 1E4         0.1269
     19 C25        12.9890   12.5110   40.5430 C.ar      1 1E4         0.0023
     20 C29        11.4800   12.9900   44.6010 C.ar      1 1E4         0.0512
     21 F30        13.8090   10.4260   41.2310 F         1 1E4        -0.1858
     22 C31        11.2320   11.9160   45.4720 C.ar      1 1E4        -0.0243
     23 C32        10.8100   12.1610   46.7970 C.ar      1 1E4        -0.0286
     24 C33        10.6300   13.4740   47.2710 C.ar      1 1E4         0.0370
     25 C34        10.8860   14.5170   46.3660 C.ar      1 1E4         0.0240
     26 N35        11.2940   14.2710   45.0920 N.ar      1 1E4        -0.2884
     27 C39        10.1960   13.7540   48.6640 C.2       1 1E4         0.0697
     28 C40        13.8350   16.4450   36.9510 C.3       1 1E4         0.1118
     29 CL4        17.3800   11.5300   32.1750 Cl        1 1E4        -0.0927
     30 O42        12.2260   13.1200   29.6080 O.3       1 1E4        -0.3293
     31 C43        11.2860   13.9330   30.3170 C.3       1 1E4         0.0562
     32 N47        13.6850   10.9690   28.7370 N.am      1 1E4        -0.2420
     33 C48        14.4540   10.4370   27.7420 C.2       1 1E4         0.2106
     34 C49        13.7880   10.4780   26.3690 C.3       1 1E4         0.1042
     35 O50        15.3480    9.6240   27.9680 O.2       1 1E4        -0.3866
     36 S51        12.5400    9.1860   26.1480 S.3       1 1E4        -0.0575
     37 C54        11.0740   10.0870   26.5620 C.ar      1 1E4         0.0920
     38 C55         9.8350    9.4190   26.5510 C.ar      1 1E4        -0.0181
     39 C56         8.6770   10.1580   26.8920 C.ar      1 1E4        -0.0341
     40 C57         8.7850   11.5280   27.2310 C.ar      1 1E4         0.0307
     41 C58        10.0680   12.1020   27.2090 C.ar      1 1E4         0.0181
     42 N59        11.1890   11.3990   26.8830 N.ar      1 1E4        -0.2824
     43 C63         7.6100   12.3340   27.5950 C.2       1 1E4         0.0659
     44 O64         7.7450   13.3980   28.1170 O.co2     1 1E4        -0.5605
     45 O65        10.4670   14.7780   49.2120 O.co2     1 1E4        -0.5590
     46 O66         6.4150   11.7470   27.4870 O.co2     1 1E4        -0.5605
     47 O67         9.5810   12.7630   49.3090 O.co2     1 1E4        -0.5590
     48 O71        16.0960   15.9510   34.7810 O.3       1 1E4        -0.3865
     49 O74        15.1380   16.8560   37.3100 O.3       1 1E4        -0.3865
     50 O75        13.1460   14.2170   36.2950 O.3       1 1E4        -0.3865
     51 O77        12.5700   17.4300   38.6960 O.3       1 1E4        -0.3865
     52 H1         13.3563   14.4210   31.7368 H         1 1E4         0.0427
     53 H2         15.9722   10.5006   30.0916 H         1 1E4         0.0448
     54 H3         16.1390   13.0548   34.6190 H         1 1E4         0.0636
     55 H4         14.3503   13.2024   34.5448 H         1 1E4         0.0636
     56 H5         15.8995   14.5829   36.3071 H         1 1E4         0.0647
     57 H6         13.4455   15.7398   34.9386 H         1 1E4         0.0647
     58 H7         11.9220   15.7320   37.7019 H         1 1E4         0.0647
     59 H8         13.8864   15.8306   40.0063 H         1 1E4         0.0640
     60 H9         13.9107   14.4282   38.8841 H         1 1E4         0.0640
     61 H10        11.2536   14.7830   42.4298 H         1 1E4         0.0530
     62 H11        12.8013   10.9202   43.5605 H         1 1E4         0.0536
     63 H12        13.3891   12.3544   39.5478 H         1 1E4         0.0547
     64 H13        11.3649   10.8973   45.1262 H         1 1E4         0.0720
     65 H14        10.6216   11.3243   47.4599 H         1 1E4         0.0765
     66 H15        10.7553   15.5429   46.6907 H         1 1E4         0.0859
     67 H16        13.3948   17.3162   36.4438 H         1 1E4         0.0647
     68 H17        10.3948   14.0927   29.6922 H         1 1E4         0.0572
     69 H18        11.7462   14.9035   30.5542 H         1 1E4         0.0572
     70 H19        10.9942   13.4278   31.2495 H         1 1E4         0.0572
     71 H20        12.6967   10.8240   28.6892 H         1 1E4         0.2186
     72 H21        14.5637   10.3510   25.5994 H         1 1E4         0.0650
     73 H22        13.3039   11.4577   26.2436 H         1 1E4         0.0650
     74 H23         9.7696    8.3692   26.2890 H         1 1E4         0.0666
     75 H24         7.7068    9.6745   26.8935 H         1 1E4         0.0751
     76 H25        10.1703   13.1509   27.4627 H         1 1E4         0.0838
     77 H26        16.1869   16.6780   35.3857 H         1 1E4         0.2100
     78 H27        15.0884   17.6647   37.8059 H         1 1E4         0.2100
     79 H28        13.4985   13.8994   37.1181 H         1 1E4         0.2100
     80 H29        13.3806   17.8144   39.0084 H         1 1E4         0.2100
@<TRIPOS>BOND
     1    2    1 ar 
     2    6    1 ar 
     3    1   32 1  
     4    3    2 ar 
     5    2   30 1  
     6    4    3 ar 
     7    4    5 ar 
     8    7    4 1  
     9    5    6 ar 
    10    5   29 1  
    11    8    7 1  
    12    9    8 1  
    13   10    9 1  
    14    9   48 1  
    15   28   10 1  
    16   10   50 1  
    17   11   12 1  
    18   11   28 1  
    19   11   51 1  
    20   12   13 1  
    21   13   14 1  
    22   14   15 ar 
    23   14   19 ar 
    24   15   16 ar 
    25   16   17 ar 
    26   16   20 1  
    27   17   18 ar 
    28   18   19 ar 
    29   18   21 1  
    30   20   22 ar 
    31   20   26 ar 
    32   22   23 ar 
    33   23   24 ar 
    34   24   25 ar 
    35   24   27 1  
    36   25   26 ar 
    37   27   45 ar 
    38   27   47 ar 
    39   28   49 1  
    40   30   31 1  
    41   32   33 am 
    42   33   34 1  
    43   33   35 2  
    44   34   36 1  
    45   36   37 1  
    46   37   38 ar 
    47   37   42 ar 
    48   38   39 ar 
    49   39   40 ar 
    50   40   41 ar 
    51   40   43 1  
    52   41   42 ar 
    53   43   44 ar 
    54   43   46 ar 
    55    3   52 1  
    56    6   53 1  
    57    8   54 1  
    58    8   55 1  
    59    9   56 1  
    60   10   57 1  
    61   11   58 1  
    62   12   59 1  
    63   12   60 1  
    64   15   61 1  
    65   17   62 1  
    66   19   63 1  
    67   22   64 1  
    68   23   65 1  
    69   25   66 1  
    70   28   67 1  
    71   31   68 1  
    72   31   69 1  
    73   31   70 1  
    74   32   71 1  
    75   34   72 1  
    76   34   73 1  
    77   38   74 1  
    78   39   75 1  
    79   41   76 1  
    80   48   77 1  
    81   49   78 1  
    82   50   79 1  
    83   51   80 1  
@<TRIPOS>SUBSTRUCTURE
     1 1E4         1

