### 
### Created by X-TOOL on Mon Sep 10 21:13:16 2018
### 

@<TRIPOS>MOLECULE
4i9i_ligand
   55    58     1     0     0
SMALL
GAST_HUCK


@<TRIPOS>ATOM
      1 N1         35.7040   25.8820   18.2710 N.am      1 1DY        -0.1938
      2 C1         35.9180   25.5960   16.9930 C.2       1 1DY         0.2358
      3 O1         36.6710   24.6830   16.6820 O.2       1 1DY        -0.3858
      4 C2         35.2460   26.4510   16.0480 C.ar      1 1DY         0.0597
      5 C3         35.4240   26.2140   14.6570 C.ar      1 1DY        -0.0503
      6 C4         34.7440   27.1060   13.7530 C.ar      1 1DY        -0.0653
      7 C5         33.9280   28.1850   14.2250 C.ar      1 1DY        -0.0665
      8 C6         33.7420   28.4270   15.6280 C.ar      1 1DY        -0.0538
      9 C7         34.4210   27.5310   16.5290 C.ar      1 1DY         0.0126
     10 N2         34.2940   27.7070   17.8590 N.2       1 1DY        -0.3081
     11 C8         34.9230   26.8960   18.7210 C.2       1 1DY         0.1451
     12 C9         34.7570   27.1120   20.2110 C.3       1 1DY         0.0558
     13 C10        33.2680   27.1630   20.4880 C.3       1 1DY         0.0636
     14 C11        32.7050   25.8360   20.9710 C.2       1 1DY         0.2086
     15 O2         32.1820   25.0610   20.1730 O.2       1 1DY        -0.3836
     16 N3         32.8290   25.6060   22.3310 N.am      1 1DY        -0.2304
     17 C12        32.6250   24.4490   23.0110 C.ar      1 1DY         0.0719
     18 C13        33.2020   24.3870   24.3220 C.ar      1 1DY        -0.0350
     19 C14        32.9980   23.1710   25.0880 C.ar      1 1DY        -0.0550
     20 C15        31.8610   23.3570   22.4370 C.ar      1 1DY        -0.0350
     21 C16        31.6520   22.1590   23.1730 C.ar      1 1DY        -0.0550
     22 C17        32.2210   22.0950   24.4810 C.ar      1 1DY         0.0393
     23 C18        31.9160   20.8600   25.2130 C.2       1 1DY         0.2181
     24 O3         31.4480   19.8620   24.6760 O.2       1 1DY        -0.3819
     25 N4         32.1530   20.8820   26.5510 N.am      1 1DY        -0.2382
     26 C19        32.1590   19.8290   27.4520 C.ar      1 1DY         0.0959
     27 C20        31.7480   18.4780   27.1670 C.ar      1 1DY        -0.0492
     28 C21        31.8160   17.4890   28.2420 C.ar      1 1DY        -0.0867
     29 C22        32.2820   17.8220   29.5650 C.ar      1 1DY        -0.0861
     30 C23        32.6950   19.1690   29.8600 C.ar      1 1DY        -0.0460
     31 C24        32.6170   20.1480   28.7750 C.ar      1 1DY         0.1122
     32 O4         32.9160   21.4880   28.7470 O.3       1 1DY        -0.3274
     33 C25        33.0190   22.2070   29.9700 C.3       1 1DY         0.0562
     34 H1         36.1526   25.3062   18.9545 H         1 1DY         0.2533
     35 H2         36.0421   25.4007   14.2942 H         1 1DY         0.0643
     36 H3         34.8528   26.9566   12.6849 H         1 1DY         0.0553
     37 H4         33.4399   28.8335   13.5064 H         1 1DY         0.0627
     38 H5         33.1237   29.2405   15.9900 H         1 1DY         0.0554
     39 H6         35.2296   28.0591   20.5104 H         1 1DY         0.0590
     40 H7         35.2164   26.2812   20.7667 H         1 1DY         0.0590
     41 H8         32.7490   27.4466   19.5606 H         1 1DY         0.0543
     42 H9         33.0815   27.9240   21.2600 H         1 1DY         0.0543
     43 H10        33.1041   26.3932   22.8829 H         1 1DY         0.2281
     44 H11        33.7696   25.2174   24.7262 H         1 1DY         0.0517
     45 H12        33.4117   23.0649   26.0843 H         1 1DY         0.0629
     46 H13        31.4468   23.4555   21.4401 H         1 1DY         0.0517
     47 H14        31.0864   21.3316   22.7600 H         1 1DY         0.0629
     48 H15        32.3503   21.7823   26.9390 H         1 1DY         0.2215
     49 H16        31.3968   18.2012   26.1795 H         1 1DY         0.0467
     50 H17        31.5055   16.4708   28.0371 H         1 1DY         0.0484
     51 H18        32.3213   17.0603   30.3353 H         1 1DY         0.0460
     52 H19        33.0495   19.4470   30.8460 H         1 1DY         0.0495
     53 H20        33.2625   23.2585   29.7577 H         1 1DY         0.0572
     54 H21        33.8130   21.7647   30.5896 H         1 1DY         0.0572
     55 H22        32.0612   22.1539   30.5084 H         1 1DY         0.0572
@<TRIPOS>BOND
     1    1    2 am 
     2    1   11 1  
     3    2    3 2  
     4    2    4 1  
     5    4    5 ar 
     6    4    9 ar 
     7    5    6 ar 
     8    6    7 ar 
     9    7    8 ar 
    10    8    9 ar 
    11    9   10 1  
    12   10   11 2  
    13   11   12 1  
    14   12   13 1  
    15   13   14 1  
    16   14   15 2  
    17   14   16 am 
    18   16   17 1  
    19   17   18 ar 
    20   17   20 ar 
    21   18   19 ar 
    22   19   22 ar 
    23   20   21 ar 
    24   21   22 ar 
    25   22   23 1  
    26   23   24 2  
    27   23   25 am 
    28   25   26 1  
    29   26   27 ar 
    30   26   31 ar 
    31   27   28 ar 
    32   28   29 ar 
    33   29   30 ar 
    34   30   31 ar 
    35   31   32 1  
    36   32   33 1  
    37    1   34 1  
    38    5   35 1  
    39    6   36 1  
    40    7   37 1  
    41    8   38 1  
    42   12   39 1  
    43   12   40 1  
    44   13   41 1  
    45   13   42 1  
    46   16   43 1  
    47   18   44 1  
    48   19   45 1  
    49   20   46 1  
    50   21   47 1  
    51   25   48 1  
    52   27   49 1  
    53   28   50 1  
    54   29   51 1  
    55   30   52 1  
    56   33   53 1  
    57   33   54 1  
    58   33   55 1  
@<TRIPOS>SUBSTRUCTURE
     1 1DY         1

