### 
### Created by X-TOOL on Mon Sep 10 21:13:15 2018
### 

@<TRIPOS>MOLECULE
4i9o_ligand
   40    41     1     0     0
SMALL
GAST_HUCK


@<TRIPOS>ATOM
      1 O2         25.2660   -2.1370   14.4930 O.2       1 KI1        -0.3969
      2 C3         25.9380   -1.6990   15.4100 C.2       1 KI1         0.1792
      3 C2         27.4430   -1.8340   15.3840 C.3       1 KI1         0.0462
      4 C1         28.4730   -1.5040   14.4080 C.3       1 KI1         0.0075
      5 S          28.7670    0.2840   14.4620 S.3       1 KI1        -0.1759
      6 N          25.3770   -1.0730   16.4650 N.am      1 KI1        -0.2745
      7 C6         23.9430   -0.7790   16.5870 C.3       1 KI1         0.0291
      8 C7         23.6850    0.7220   16.5320 C.3       1 KI1        -0.0264
      9 C8         24.4430    1.4560   17.6470 C.3       1 KI1         0.0666
     10 O1         23.8390    1.1010   18.8930 O.3       1 KI1        -0.4224
     11 C5         25.8950    0.9700   17.7040 C.3       1 KI1        -0.0264
     12 C4         26.1240   -0.5270   17.6050 C.3       1 KI1         0.0291
     13 C9         24.3810    2.9710   17.4780 C.ar      1 KI1         0.0078
     14 C15        24.4570    3.5730   16.2230 C.ar      1 KI1        -0.0134
     15 C14        24.4220    4.9520   16.0900 C.ar      1 KI1         0.0066
     16 C13        24.3270    5.7540   17.2220 C.ar      1 KI1         0.1006
     17 CL         24.3090    7.4750   17.0060 Cl        1 KI1        -0.0180
     18 C11        24.2550    5.1870   18.4930 C.ar      1 KI1         0.0923
     19 C10        24.2770    3.8000   18.5910 C.ar      1 KI1        -0.0045
     20 C12        24.2130    6.0200   19.7370 C.3       1 KI1         0.3842
     21 F1         23.1320    6.7870   19.7980 F         1 KI1        -0.2195
     22 F2         25.2510    6.8310   19.8080 F         1 KI1        -0.2195
     23 F3         24.1410    5.3010   20.8380 F         1 KI1        -0.2195
     24 H1         27.5984   -2.9096   15.5542 H         1 KI1         0.0510
     25 H2         27.7577   -1.2724   16.2759 H         1 KI1         0.0510
     26 H3         28.1369   -1.7943   13.4016 H         1 KI1         0.0398
     27 H4         29.4017   -2.0400   14.6533 H         1 KI1         0.0398
     28 H5         29.0724    0.5453   15.3864 H         1 KI1         0.1018
     29 H6         23.5759   -1.1718   17.5466 H         1 KI1         0.0515
     30 H7         23.4045   -1.2667   15.7611 H         1 KI1         0.0515
     31 H8         22.6069    0.9055   16.6500 H         1 KI1         0.0217
     32 H9         24.0181    1.1080   15.5573 H         1 KI1         0.0217
     33 H10        24.2919    1.5441   19.6008 H         1 KI1         0.1962
     34 H11        26.3211    1.3085   18.6599 H         1 KI1         0.0217
     35 H12        26.4368    1.4444   16.8725 H         1 KI1         0.0217
     36 H13        27.1973   -0.7232   17.4653 H         1 KI1         0.0515
     37 H14        25.7804   -1.0104   18.5314 H         1 KI1         0.0515
     38 H15        24.5448    2.9533   15.3380 H         1 KI1         0.1046
     39 H16        24.4686    5.4043   15.1060 H         1 KI1         0.0770
     40 H17        24.2105    3.3465   19.5733 H         1 KI1         0.1134
@<TRIPOS>BOND
     1    1    2 2  
     2    2    3 1  
     3    2    6 am 
     4    3    4 1  
     5    4    5 1  
     6    6    7 1  
     7    6   12 1  
     8    7    8 1  
     9    8    9 1  
    10    9   10 1  
    11    9   11 1  
    12    9   13 1  
    13   11   12 1  
    14   13   14 ar 
    15   13   19 ar 
    16   14   15 ar 
    17   15   16 ar 
    18   16   17 1  
    19   16   18 ar 
    20   18   19 ar 
    21   18   20 1  
    22   20   21 1  
    23   20   22 1  
    24   20   23 1  
    25    3   24 1  
    26    3   25 1  
    27    4   26 1  
    28    4   27 1  
    29    5   28 1  
    30    7   29 1  
    31    7   30 1  
    32    8   31 1  
    33    8   32 1  
    34   10   33 1  
    35   11   34 1  
    36   11   35 1  
    37   12   36 1  
    38   12   37 1  
    39   14   38 1  
    40   15   39 1  
    41   19   40 1  
@<TRIPOS>SUBSTRUCTURE
     1 KI1         1

