### 
### Created by X-TOOL on Mon Sep 10 21:13:14 2018
### 

@<TRIPOS>MOLECULE
4i9r_ligand
   50    50     1     0     0
SMALL
GAST_HUCK


@<TRIPOS>ATOM
      1 C1        -37.5130   19.8770    8.1020 C.3       1 RET        -0.0970
      2 C2        -37.8570   20.5090    6.8470 C.3       1 RET        -0.1037
      3 C3        -38.8750   21.5770    7.0980 C.3       1 RET        -0.0389
      4 C4        -40.1730   20.9040    7.4430 C.3       1 RET         0.0374
      5 C5        -39.9350   19.9360    8.5770 C.2       1 RET         0.0234
      6 C6        -38.7230   19.4950    8.9080 C.2       1 RET        -0.0560
      7 C7        -38.6340   18.5680   10.0890 C.2       1 RET        -0.0696
      8 C8        -37.5280   18.4740   10.7890 C.2       1 RET        -0.0618
      9 C9        -37.4440   17.6140   11.9810 C.2       1 RET        -0.0512
     10 C10       -36.3880   17.7620   12.7800 C.2       1 RET        -0.0715
     11 C11       -36.2030   16.9590   13.9730 C.2       1 RET        -0.0806
     12 C12       -35.1980   17.2700   14.7780 C.2       1 RET        -0.0756
     13 C13       -34.9070   16.4890   15.9860 C.2       1 RET        -0.0610
     14 C14       -33.7780   16.7640   16.6660 C.2       1 RET        -0.0818
     15 C15       -33.4060   16.0090   17.8570 C.3       1 RET        -0.0401
     16 C16       -36.6320   18.7490    7.8720 C.3       1 RET        -0.1205
     17 C17       -36.7430   20.8930    8.9010 C.3       1 RET        -0.1205
     18 C18       -41.0930   19.5270    9.4330 C.3       1 RET         0.0278
     19 C19       -38.5110   16.5780   12.2480 C.3       1 RET        -0.0323
     20 C20       -35.8570   15.4100   16.4260 C.3       1 RET        -0.0402
     21 H1        -38.2729   19.7585    6.1587 H         1 RET         0.0062
     22 H2        -36.9565   20.9564    6.4011 H         1 RET         0.0062
     23 H3        -39.0014   22.1927    6.1953 H         1 RET         0.0308
     24 H4        -38.5504   22.2141    7.9339 H         1 RET         0.0308
     25 H5        -40.5512   20.3591    6.5655 H         1 RET         0.0732
     26 H6        -40.9104   21.6598    7.7512 H         1 RET         0.0732
     27 H7        -39.4986   17.9670   10.3668 H         1 RET         0.0605
     28 H8        -36.6530   19.0447   10.4814 H         1 RET         0.0560
     29 H9        -35.6387   18.5112   12.5285 H         1 RET         0.0484
     30 H10       -36.8685   16.1274   14.1998 H         1 RET         0.0518
     31 H11       -34.5714   18.1275   14.5372 H         1 RET         0.0522
     32 H12       -33.1291   17.5669   16.3195 H         1 RET         0.0575
     33 H13       -32.4552   16.3947   18.2535 H         1 RET         0.0401
     34 H14       -33.2905   14.9466   17.5965 H         1 RET         0.0401
     35 H15       -34.1916   16.1163   18.6194 H         1 RET         0.0401
     36 H16       -36.3793   18.2790    8.8339 H         1 RET         0.0022
     37 H17       -35.7113   19.0970    7.3809 H         1 RET         0.0022
     38 H18       -37.1369   18.0150    7.2268 H         1 RET         0.0022
     39 H19       -37.3819   21.7670    9.0957 H         1 RET         0.0022
     40 H20       -35.8540   21.2076    8.3347 H         1 RET         0.0022
     41 H21       -36.4302   20.4473    9.8568 H         1 RET         0.0022
     42 H22       -40.7478   18.8238   10.2052 H         1 RET         0.0698
     43 H23       -41.8566   19.0400    8.8087 H         1 RET         0.0698
     44 H24       -41.5255   20.4166    9.9142 H         1 RET         0.0698
     45 H25       -39.2815   16.6350   11.4650 H         1 RET         0.0396
     46 H26       -38.9704   16.7691   13.2290 H         1 RET         0.0396
     47 H27       -38.0580   15.5756   12.2442 H         1 RET         0.0396
     48 H28       -36.7051   15.3609   15.7272 H         1 RET         0.0350
     49 H29       -36.2273   15.6372   17.4366 H         1 RET         0.0350
     50 H30       -35.3338   14.4425   16.4361 H         1 RET         0.0350
@<TRIPOS>BOND
     1    1    2 1  
     2    1    6 1  
     3    1   16 1  
     4    1   17 1  
     5    2    3 1  
     6    3    4 1  
     7    4    5 1  
     8    5    6 2  
     9    5   18 1  
    10    6    7 1  
    11    7    8 2  
    12    8    9 1  
    13    9   10 2  
    14    9   19 1  
    15   10   11 1  
    16   11   12 2  
    17   12   13 1  
    18   13   14 2  
    19   13   20 1  
    20   14   15 1  
    21    2   21 1  
    22    2   22 1  
    23    3   23 1  
    24    3   24 1  
    25    4   25 1  
    26    4   26 1  
    27    7   27 1  
    28    8   28 1  
    29   10   29 1  
    30   11   30 1  
    31   12   31 1  
    32   14   32 1  
    33   15   33 1  
    34   15   34 1  
    35   15   35 1  
    36   16   36 1  
    37   16   37 1  
    38   16   38 1  
    39   17   39 1  
    40   17   40 1  
    41   17   41 1  
    42   18   42 1  
    43   18   43 1  
    44   18   44 1  
    45   19   45 1  
    46   19   46 1  
    47   19   47 1  
    48   20   48 1  
    49   20   49 1  
    50   20   50 1  
@<TRIPOS>SUBSTRUCTURE
     1 RET         1

