### 
### Created by X-TOOL on Mon Sep 10 21:13:15 2018
### 

@<TRIPOS>MOLECULE
4i9s_ligand
   50    50     1     0     0
SMALL
GAST_HUCK


@<TRIPOS>ATOM
      1 C1         25.5640   -7.3150  -10.0770 C.3       1 RET        -0.0970
      2 C2         26.1150   -6.6540  -11.2500 C.3       1 RET        -0.1037
      3 C3         25.4020   -5.3620  -11.4840 C.3       1 RET        -0.0389
      4 C4         25.8100   -4.4180  -10.4060 C.3       1 RET         0.0374
      5 C5         25.4680   -5.0320   -9.0740 C.2       1 RET         0.0234
      6 C6         25.3750   -6.3760   -8.9120 C.2       1 RET        -0.0560
      7 C7         24.9970   -6.8780   -7.5360 C.2       1 RET        -0.0696
      8 C8         24.7710   -8.1730   -7.2870 C.2       1 RET        -0.0618
      9 C9         24.4120   -8.6130   -5.9240 C.2       1 RET        -0.0512
     10 C10        24.7640   -9.8290   -5.5110 C.2       1 RET        -0.0715
     11 C11        24.4280  -10.2730   -4.1630 C.2       1 RET        -0.0806
     12 C12        25.1450  -11.2290   -3.5990 C.2       1 RET        -0.0756
     13 C13        24.8200  -11.7100   -2.2490 C.2       1 RET        -0.0610
     14 C14        25.5800  -12.6530   -1.6840 C.2       1 RET        -0.0818
     15 C15        25.2550  -13.1790   -0.3770 C.3       1 RET        -0.0401
     16 C16        24.3220   -7.9940  -10.4060 C.3       1 RET        -0.1205
     17 C17        26.5860   -8.3810   -9.6730 C.3       1 RET        -0.1205
     18 C18        25.2510   -4.1220   -7.8950 C.3       1 RET         0.0278
     19 C19        23.6260   -7.7020   -5.0160 C.3       1 RET        -0.0323
     20 C20        23.6080  -11.1780   -1.5250 C.3       1 RET        -0.0402
     21 H1         25.9900   -7.3044  -12.1283 H         1 RET         0.0062
     22 H2         27.1851   -6.4567  -11.0892 H         1 RET         0.0062
     23 H3         24.3144   -5.5227  -11.4494 H         1 RET         0.0308
     24 H4         25.6812   -4.9525  -12.4660 H         1 RET         0.0308
     25 H5         25.2719   -3.4659  -10.5241 H         1 RET         0.0732
     26 H6         26.8934   -4.2365  -10.4630 H         1 RET         0.0732
     27 H7         24.9058   -6.1615   -6.7210 H         1 RET         0.0605
     28 H8         24.8519   -8.9035   -8.0906 H         1 RET         0.0560
     29 H9         25.3048  -10.4945   -6.1823 H         1 RET         0.0484
     30 H10        23.5947   -9.8213   -3.6268 H         1 RET         0.0518
     31 H11        25.9842  -11.6643   -4.1395 H         1 RET         0.0522
     32 H12        26.4538  -13.0294   -2.2139 H         1 RET         0.0575
     33 H13        25.9973  -13.9394   -0.0929 H         1 RET         0.0401
     34 H14        24.2545  -13.6353   -0.4038 H         1 RET         0.0401
     35 H15        25.2660  -12.3625    0.3600 H         1 RET         0.0401
     36 H16        23.9237   -8.4859   -9.5064 H         1 RET         0.0022
     37 H17        24.5116   -8.7490  -11.1832 H         1 RET         0.0022
     38 H18        23.5906   -7.2611  -10.7773 H         1 RET         0.0022
     39 H19        27.5398   -7.8963   -9.4173 H         1 RET         0.0022
     40 H20        26.7412   -9.0764  -10.5110 H         1 RET         0.0022
     41 H21        26.2114   -8.9361   -8.8004 H         1 RET         0.0022
     42 H22        25.0114   -4.7242   -7.0062 H         1 RET         0.0698
     43 H23        24.4175   -3.4368   -8.1091 H         1 RET         0.0698
     44 H24        26.1654   -3.5399   -7.7079 H         1 RET         0.0698
     45 H25        23.4323   -6.7494   -5.5308 H         1 RET         0.0396
     46 H26        24.2024   -7.5123   -4.0985 H         1 RET         0.0396
     47 H27        22.6697   -8.1794   -4.7561 H         1 RET         0.0396
     48 H28        23.1158  -10.4149   -2.1458 H         1 RET         0.0350
     49 H29        23.9190  -10.7292   -0.5701 H         1 RET         0.0350
     50 H30        22.9055  -12.0020   -1.3313 H         1 RET         0.0350
@<TRIPOS>BOND
     1    1    2 1  
     2    1    6 1  
     3    1   16 1  
     4    1   17 1  
     5    2    3 1  
     6    3    4 1  
     7    4    5 1  
     8    5    6 2  
     9    5   18 1  
    10    6    7 1  
    11    7    8 2  
    12    8    9 1  
    13    9   10 2  
    14    9   19 1  
    15   10   11 1  
    16   11   12 2  
    17   12   13 1  
    18   13   14 2  
    19   13   20 1  
    20   14   15 1  
    21    2   21 1  
    22    2   22 1  
    23    3   23 1  
    24    3   24 1  
    25    4   25 1  
    26    4   26 1  
    27    7   27 1  
    28    8   28 1  
    29   10   29 1  
    30   11   30 1  
    31   12   31 1  
    32   14   32 1  
    33   15   33 1  
    34   15   34 1  
    35   15   35 1  
    36   16   36 1  
    37   16   37 1  
    38   16   38 1  
    39   17   39 1  
    40   17   40 1  
    41   17   41 1  
    42   18   42 1  
    43   18   43 1  
    44   18   44 1  
    45   19   45 1  
    46   19   46 1  
    47   19   47 1  
    48   20   48 1  
    49   20   49 1  
    50   20   50 1  
@<TRIPOS>SUBSTRUCTURE
     1 RET         1

