### 
### Created by X-TOOL on Mon Sep 10 21:13:15 2018
### 

@<TRIPOS>MOLECULE
4i9u_ligand
   35    36     1     0     0
SMALL
GAST_HUCK


@<TRIPOS>ATOM
      1 C1         14.1590    9.9010   27.2220 C.2       1 1E7         0.2135
      2 N2         13.6060   10.8580   28.0850 N.am      1 1E7        -0.2358
      3 C3         14.1080   11.4110   29.3620 C.ar      1 1E7         0.0970
      4 O4         15.0740    9.0900   27.6210 O.2       1 1E7        -0.3851
      5 C6         13.6380    9.8330   25.7610 C.3       1 1E7         0.1048
      6 S7         12.1560    8.7600   25.6520 S.3       1 1E7        -0.0574
      7 C10        10.8020    9.8860   26.1530 C.ar      1 1E7         0.0920
      8 C11         9.4350    9.4520   26.0200 C.ar      1 1E7        -0.0181
      9 C12         8.3770   10.3860   26.4380 C.ar      1 1E7        -0.0341
     10 C13         8.6980   11.7020   26.9650 C.ar      1 1E7         0.0307
     11 C14        10.0990   12.0240   27.0490 C.ar      1 1E7         0.0181
     12 N15        11.1270   11.1220   26.6460 N.ar      1 1E7        -0.2824
     13 C19         7.5930   12.6820   27.4100 C.2       1 1E7         0.0659
     14 O20         7.7620   14.0490   27.1720 O.co2     1 1E7        -0.5605
     15 O21         6.5750   12.2830   27.9710 O.co2     1 1E7        -0.5605
     16 C23        15.3460   10.9780   30.0270 C.ar      1 1E7        -0.0355
     17 C24        15.8120   11.5660   31.3020 C.ar      1 1E7         0.0150
     18 C25        15.0450   12.5970   31.9280 C.ar      1 1E7        -0.0722
     19 C26        13.8280   13.0490   31.3160 C.ar      1 1E7        -0.0453
     20 C27        13.3200   12.4930   30.0420 C.ar      1 1E7         0.1126
     21 O31        12.1030   12.9170   29.3970 O.3       1 1E7        -0.3271
     22 CL3        17.2970   11.0110   32.0540 Cl        1 1E7        -0.0850
     23 C33        11.1570   13.7270   30.1440 C.3       1 1E7         0.0564
     24 H1         12.7259   11.2282   27.7878 H         1 1E7         0.2223
     25 H2         14.4283    9.4241   25.1143 H         1 1E7         0.0650
     26 H3         13.3757   10.8465   25.4234 H         1 1E7         0.0650
     27 H4          9.1938    8.4715   25.6257 H         1 1E7         0.0666
     28 H5          7.3387   10.0867   26.3512 H         1 1E7         0.0751
     29 H6         10.3848   12.9955   27.4359 H         1 1E7         0.0838
     30 H7         15.9401   10.1978   29.5651 H         1 1E7         0.0472
     31 H8         15.3810   13.0355   32.8607 H         1 1E7         0.0467
     32 H9         13.2577   13.8293   31.8069 H         1 1E7         0.0496
     33 H10        10.2910   13.9603   29.5071 H         1 1E7         0.0572
     34 H11        11.6432   14.6622   30.4586 H         1 1E7         0.0572
     35 H12        10.8202   13.1721   31.0320 H         1 1E7         0.0572
@<TRIPOS>BOND
     1    1    2 am 
     2    1    4 2  
     3    1    5 1  
     4    2    3 1  
     5    3   16 ar 
     6    3   20 ar 
     7    5    6 1  
     8    6    7 1  
     9    7    8 ar 
    10    7   12 ar 
    11    8    9 ar 
    12    9   10 ar 
    13   10   11 ar 
    14   10   13 1  
    15   11   12 ar 
    16   13   14 ar 
    17   13   15 ar 
    18   16   17 ar 
    19   17   18 ar 
    20   17   22 1  
    21   18   19 ar 
    22   19   20 ar 
    23   20   21 1  
    24   21   23 1  
    25    2   24 1  
    26    5   25 1  
    27    5   26 1  
    28    8   27 1  
    29    9   28 1  
    30   11   29 1  
    31   16   30 1  
    32   18   31 1  
    33   19   32 1  
    34   23   33 1  
    35   23   34 1  
    36   23   35 1  
@<TRIPOS>SUBSTRUCTURE
     1 1E7         1

