### 
### Created by X-TOOL on Mon Sep 10 21:13:19 2018
### 

@<TRIPOS>MOLECULE
4i9z_ligand
   64    66     1     0     0
SMALL
GAST_HUCK


@<TRIPOS>ATOM
      1 CAO       -41.5040   14.4420   48.9880 C.3       1 5BA         0.0112
      2 CAM       -40.2560   14.0480   49.7080 C.3       1 5BA         0.0092
      3 NBD       -39.0870   14.7480   49.2230 N.4       1 5BA         0.2405
      4 CAD       -37.7810   14.1780   49.5900 C.3       1 5BA        -0.0427
      5 CAN       -39.2550   15.3050   47.9060 C.3       1 5BA         0.0092
      6 CAP       -40.0930   14.4180   47.0420 C.3       1 5BA         0.0112
      7 N         -41.4320   14.2750   47.5540 N.4       1 5BA         0.2581
      8 CA        -42.5080   14.8770   46.7740 C.3       1 5BA         0.0421
      9 C         -42.5990   14.7670   45.2710 C.2       1 5BA         0.1715
     10 O         -41.7050   14.2860   44.5790 O.2       1 5BA        -0.3778
     11 CAV       -43.8410   15.3350   44.6020 C.ar      1 5BA         0.0363
     12 CAJ       -43.8240   15.5780   43.2190 C.ar      1 5BA        -0.0259
     13 CAH       -45.0000   15.6490   45.3550 C.ar      1 5BA        -0.0436
     14 CAI       -46.1280   16.1810   44.7080 C.ar      1 5BA        -0.0162
     15 CAW       -46.1010   16.4170   43.3300 C.ar      1 5BA         0.1245
     16 OAT       -47.1990   16.9480   42.6780 O.3       1 5BA        -0.3052
     17 CAL       -48.2950   17.4820   43.3530 C.3       1 5BA         0.0746
     18 CAK       -49.3290   18.0810   42.4250 C.3       1 5BA        -0.0271
     19 CAA       -48.8110   18.9390   41.4360 C.3       1 5BA        -0.0628
     20 CAY       -44.9450   16.0890   42.5720 C.ar      1 5BA         0.0883
     21 CAZ       -44.7940   16.3410   41.1010 C.2       1 5BA         0.1700
     22 NAR       -44.3430   15.3830   40.2650 N.2       1 5BA        -0.2838
     23 NAS       -45.0250   17.6080   40.6460 N.am      1 5BA        -0.2044
     24 CBB       -44.8570   17.9290   39.3450 C.2       1 5BA         0.1979
     25 OAF       -45.1230   19.2170   38.9280 O.2       1 5BA        -0.4209
     26 CAX       -44.4200   16.9730   38.4480 C.2       1 5BA         0.0676
     27 BR        -44.1390   17.4300   36.5800 Br        1 5BA        -0.0821
     28 CBA       -44.1530   15.6480   38.9690 C.2       1 5BA         0.0135
     29 CBC       -43.6590   14.5220   38.0160 C.3       1 5BA         0.0022
     30 CAC       -44.8460   13.7880   37.3930 C.3       1 5BA        -0.0482
     31 CAB       -42.6260   13.6300   38.5800 C.3       1 5BA        -0.0482
     32 H1        -41.7080   15.5013   49.2032 H         1 5BA         0.0868
     33 H2        -42.3318   13.8248   49.3671 H         1 5BA         0.0868
     34 H3        -40.0993   12.9674   49.5751 H         1 5BA         0.0868
     35 H4        -40.3814   14.2716   50.7777 H         1 5BA         0.0868
     36 H5        -39.0953   15.5801   49.7918 H         1 5BA         0.2035
     37 H6        -36.9779   14.7972   49.1638 H         1 5BA         0.0778
     38 H7        -37.7036   13.1544   49.1949 H         1 5BA         0.0778
     39 H8        -37.6851   14.1564   50.6856 H         1 5BA         0.0778
     40 H9        -38.2660   15.4276   47.4403 H         1 5BA         0.0868
     41 H10       -39.7440   16.2865   47.9921 H         1 5BA         0.0868
     42 H11       -39.6238   13.4243   46.9923 H         1 5BA         0.0868
     43 H12       -40.1433   14.8507   46.0319 H         1 5BA         0.0868
     44 H13       -41.6115   13.2904   47.4341 H         1 5BA         0.2056
     45 H14       -42.4773   15.9537   46.9970 H         1 5BA         0.1043
     46 H15       -43.4420   14.4479   47.1656 H         1 5BA         0.1043
     47 H16       -42.9271   15.3650   42.6487 H         1 5BA         0.0728
     48 H17       -45.0161   15.4794   46.4255 H         1 5BA         0.0705
     49 H18       -47.0212   16.4090   45.2783 H         1 5BA         0.0579
     50 H19       -47.9377   18.2689   44.0336 H         1 5BA         0.0623
     51 H20       -48.7711   16.6805   43.9369 H         1 5BA         0.0623
     52 H21       -50.0440   18.6537   43.0340 H         1 5BA         0.0289
     53 H22       -49.8545   17.2565   41.9210 H         1 5BA         0.0289
     54 H23       -49.6343   19.3220   40.8151 H         1 5BA         0.0231
     55 H24       -48.1024   18.3841   40.8037 H         1 5BA         0.0231
     56 H25       -48.2918   19.7813   41.9166 H         1 5BA         0.0231
     57 H26       -45.3247   18.3124   41.2895 H         1 5BA         0.2540
     58 H27       -43.1592   15.0396   37.1840 H         1 5BA         0.0523
     59 H28       -44.4775   12.9969   36.7235 H         1 5BA         0.0262
     60 H29       -45.4566   14.4998   36.8182 H         1 5BA         0.0262
     61 H30       -45.4582   13.3389   38.1889 H         1 5BA         0.0262
     62 H31       -41.8119   14.2350   39.0058 H         1 5BA         0.0262
     63 H32       -42.2254   12.9840   37.7849 H         1 5BA         0.0262
     64 H33       -43.0711   13.0066   39.3695 H         1 5BA         0.0262
@<TRIPOS>BOND
     1    1    2 1  
     2    1    7 1  
     3    2    3 1  
     4    3    4 1  
     5    3    5 1  
     6    5    6 1  
     7    6    7 1  
     8    7    8 1  
     9    8    9 1  
    10    9   10 2  
    11    9   11 1  
    12   11   12 ar 
    13   11   13 ar 
    14   12   20 ar 
    15   13   14 ar 
    16   14   15 ar 
    17   15   16 1  
    18   15   20 ar 
    19   16   17 1  
    20   17   18 1  
    21   18   19 1  
    22   20   21 1  
    23   21   22 2  
    24   21   23 am 
    25   22   28 1  
    26   23   24 am 
    27   24   25 2  
    28   24   26 1  
    29   26   27 1  
    30   26   28 2  
    31   28   29 1  
    32   29   30 1  
    33   29   31 1  
    34    1   32 1  
    35    1   33 1  
    36    2   34 1  
    37    2   35 1  
    38    3   36 1  
    39    4   37 1  
    40    4   38 1  
    41    4   39 1  
    42    5   40 1  
    43    5   41 1  
    44    6   42 1  
    45    6   43 1  
    46    7   44 1  
    47    8   45 1  
    48    8   46 1  
    49   12   47 1  
    50   13   48 1  
    51   14   49 1  
    52   17   50 1  
    53   17   51 1  
    54   18   52 1  
    55   18   53 1  
    56   19   54 1  
    57   19   55 1  
    58   19   56 1  
    59   23   57 1  
    60   29   58 1  
    61   30   59 1  
    62   30   60 1  
    63   30   61 1  
    64   31   62 1  
    65   31   63 1  
    66   31   64 1  
@<TRIPOS>SUBSTRUCTURE
     1 5BA         1

