### 
### Created by X-TOOL on Mon Sep 10 21:13:19 2018
### 

@<TRIPOS>MOLECULE
4ia0_ligand
   73    75     1     0     0
SMALL
GAST_HUCK


@<TRIPOS>ATOM
      1 CAU       -24.9830   20.7240   23.1290 C.3       1 5BB         0.0697
      2 CAS       -23.5280   21.0450   23.3290 C.3       1 5BB        -0.0146
      3 NBG       -22.8220   19.9680   23.9630 N.4       1 5BB         0.2354
      4 CAC       -21.3870   19.8170   23.8320 C.3       1 5BB        -0.0430
      5 CAT       -23.4310   19.5410   25.1910 C.3       1 5BB        -0.0146
      6 CAV       -24.8830   19.1820   24.9970 C.3       1 5BB         0.0697
      7 NBH       -25.6820   20.1620   24.2760 N.am      1 5BB        -0.2249
      8 SBI       -27.3350   20.2120   23.9260 S.o2      1 5BB         0.0679
      9 OAE       -28.2260   20.2160   25.1000 O.2       1 5BB        -0.1513
     10 OAF       -27.6530   21.3680   23.1100 O.2       1 5BB        -0.1513
     11 CAZ       -27.7000   18.7270   23.0130 C.ar      1 5BB         0.1065
     12 CAJ       -28.0430   18.8330   21.6480 C.ar      1 5BB        -0.0191
     13 CAH       -27.6190   17.4840   23.6310 C.ar      1 5BB        -0.0360
     14 CAI       -27.9010   16.3180   22.9020 C.ar      1 5BB        -0.0205
     15 CBA       -28.2400   16.4230   21.5400 C.ar      1 5BB         0.1191
     16 OAY       -28.5300   15.2990   20.7610 O.3       1 5BB        -0.3089
     17 CAL       -28.2540   13.9700   21.1610 C.3       1 5BB         0.0708
     18 CAB       -28.9320   12.8920   20.3040 C.3       1 5BB        -0.0366
     19 CBD       -28.3060   17.6870   20.9210 C.ar      1 5BB         0.0835
     20 CBE       -28.6930   17.8360   19.4660 C.2       1 5BB         0.1685
     21 NAW       -28.0580   18.7330   18.6950 N.2       1 5BB        -0.2843
     22 NAX       -29.6930   17.0790   18.9760 N.am      1 5BB        -0.2045
     23 CBF       -30.0790   17.1910   17.6870 C.2       1 5BB         0.1978
     24 OAD       -31.1160   16.3710   17.2180 O.2       1 5BB        -0.4209
     25 CBC       -29.4390   18.1210   16.8550 C.2       1 5BB         0.0673
     26 BR        -30.0190   18.2780   15.0070 Br        1 5BB        -0.0822
     27 CBB       -28.3900   18.9060   17.3940 C.2       1 5BB         0.0109
     28 CAR       -27.6080   19.9680   16.5860 C.3       1 5BB        -0.0038
     29 CAQ       -26.1400   19.7420   16.1470 C.3       1 5BB        -0.0387
     30 CAP       -25.2310   20.9320   16.0080 C.3       1 5BB        -0.0506
     31 CAO       -25.8470   22.3120   16.0430 C.3       1 5BB        -0.0529
     32 CAN       -25.2200   23.3950   15.2030 C.3       1 5BB        -0.0531
     33 CAM       -25.9430   24.7590   15.1050 C.3       1 5BB        -0.0533
     34 CAK       -27.2560   24.8440   14.3770 C.3       1 5BB        -0.0559
     35 CAA       -27.5200   26.0190   13.4550 C.3       1 5BB        -0.0653
     36 H1        -25.0565   20.0002   22.3039 H         1 5BB         0.0531
     37 H2        -25.4962   21.6551   22.8468 H         1 5BB         0.0531
     38 H3        -23.4457   21.9430   23.9589 H         1 5BB         0.0830
     39 H4        -23.0696   21.2416   22.3486 H         1 5BB         0.0830
     40 H5        -23.1034   19.2129   23.3575 H         1 5BB         0.2032
     41 H6        -21.0587   18.9310   24.3951 H         1 5BB         0.0778
     42 H7        -20.8862   20.7114   24.2311 H         1 5BB         0.0778
     43 H8        -21.1266   19.6939   22.7704 H         1 5BB         0.0778
     44 H9        -23.3603   20.3559   25.9265 H         1 5BB         0.0830
     45 H10       -22.8929   18.6589   25.5682 H         1 5BB         0.0830
     46 H11       -25.3332   19.0436   25.9911 H         1 5BB         0.0531
     47 H12       -24.9259   18.2345   24.4399 H         1 5BB         0.0531
     48 H13       -28.0998   19.8059   21.1732 H         1 5BB         0.0687
     49 H14       -27.3381   17.4154   24.6757 H         1 5BB         0.0672
     50 H15       -27.8581   15.3474   23.3828 H         1 5BB         0.0565
     51 H16       -28.5938   13.8466   22.1999 H         1 5BB         0.0618
     52 H17       -27.1662   13.8150   21.1101 H         1 5BB         0.0618
     53 H18       -28.6622   11.8964   20.6862 H         1 5BB         0.0256
     54 H19       -28.5960   12.9877   19.2610 H         1 5BB         0.0256
     55 H20       -30.0236   13.0192   20.3508 H         1 5BB         0.0256
     56 H21       -30.1559   16.4253   19.5747 H         1 5BB         0.2539
     57 H22       -27.6105   20.8835   17.1957 H         1 5BB         0.0493
     58 H23       -28.1830   20.1398   15.6641 H         1 5BB         0.0493
     59 H24       -26.1694   19.2423   15.1675 H         1 5BB         0.0295
     60 H25       -25.6814   19.0704   16.8877 H         1 5BB         0.0295
     61 H26       -24.7092   20.8326   15.0447 H         1 5BB         0.0267
     62 H27       -24.4997   20.8809   16.8281 H         1 5BB         0.0267
     63 H28       -25.8209   22.6541   17.0881 H         1 5BB         0.0265
     64 H29       -26.8925   22.2106   15.7164 H         1 5BB         0.0265
     65 H30       -25.1278   23.0013   14.1800 H         1 5BB         0.0265
     66 H31       -24.2178   23.5866   15.6139 H         1 5BB         0.0265
     67 H32       -25.2525   25.4532   14.6038 H         1 5BB         0.0265
     68 H33       -26.1240   25.1013   16.1346 H         1 5BB         0.0265
     69 H34       -28.0467   24.8525   15.1417 H         1 5BB         0.0263
     70 H35       -27.3446   23.9323   13.7679 H         1 5BB         0.0263
     71 H36       -28.5212   25.9186   13.0106 H         1 5BB         0.0230
     72 H37       -26.7641   26.0352   12.6560 H         1 5BB         0.0230
     73 H38       -27.4662   26.9554   14.0297 H         1 5BB         0.0230
@<TRIPOS>BOND
     1    1    2 1  
     2    1    7 1  
     3    2    3 1  
     4    3    4 1  
     5    3    5 1  
     6    5    6 1  
     7    6    7 1  
     8    7    8 am 
     9    8    9 2  
    10    8   10 2  
    11    8   11 1  
    12   11   12 ar 
    13   11   13 ar 
    14   12   19 ar 
    15   13   14 ar 
    16   14   15 ar 
    17   15   16 1  
    18   15   19 ar 
    19   16   17 1  
    20   17   18 1  
    21   19   20 1  
    22   20   21 2  
    23   20   22 am 
    24   21   27 1  
    25   22   23 am 
    26   23   24 2  
    27   23   25 1  
    28   25   26 1  
    29   25   27 2  
    30   27   28 1  
    31   28   29 1  
    32   29   30 1  
    33   30   31 1  
    34   31   32 1  
    35   32   33 1  
    36   33   34 1  
    37   34   35 1  
    38    1   36 1  
    39    1   37 1  
    40    2   38 1  
    41    2   39 1  
    42    3   40 1  
    43    4   41 1  
    44    4   42 1  
    45    4   43 1  
    46    5   44 1  
    47    5   45 1  
    48    6   46 1  
    49    6   47 1  
    50   12   48 1  
    51   13   49 1  
    52   14   50 1  
    53   17   51 1  
    54   17   52 1  
    55   18   53 1  
    56   18   54 1  
    57   18   55 1  
    58   22   56 1  
    59   28   57 1  
    60   28   58 1  
    61   29   59 1  
    62   29   60 1  
    63   30   61 1  
    64   30   62 1  
    65   31   63 1  
    66   31   64 1  
    67   32   65 1  
    68   32   66 1  
    69   33   67 1  
    70   33   68 1  
    71   34   69 1  
    72   34   70 1  
    73   35   71 1  
    74   35   72 1  
    75   35   73 1  
@<TRIPOS>SUBSTRUCTURE
     1 5BB         1

