### 
### Created by X-TOOL on Mon Sep 10 21:13:15 2018
### 

@<TRIPOS>MOLECULE
4iaw_ligand
   77    78     1     0     0
SMALL
GAST_HUCK


@<TRIPOS>ATOM
      1 N1          9.8630  -16.3610   -8.4640 N.4       1 LIZ         0.2654
      2 N3         10.7470  -14.7660  -12.8750 N.4       1 LIZ         0.2644
      3 C4         10.7360  -15.4220   -7.7040 C.3       1 LIZ         0.0231
      4 C5          9.0290  -18.4500  -11.3290 C.2       1 LIZ         0.0813
      5 C6         10.4870  -18.2670  -11.7700 C.3       1 LIZ         0.0219
      6 C7         10.2730  -12.5610  -11.9550 C.2       1 LIZ         0.0813
      7 C8         11.3330  -13.4310  -12.6220 C.3       1 LIZ         0.0230
      8 C10         9.8720  -14.6490  -14.0580 C.3       1 LIZ         0.0230
      9 C13        12.2710  -16.5310  -11.9020 C.3       1 LIZ         0.0245
     10 C15        13.3740  -17.5730  -12.2820 C.3       1 LIZ        -0.0044
     11 C17        13.7790  -16.4000  -14.5090 C.3       1 LIZ        -0.0476
     12 C20        10.5570  -20.7340   -7.9590 C.ar      1 LIZ        -0.0720
     13 C21        10.9300  -22.0690   -8.1450 C.ar      1 LIZ        -0.0451
     14 C22        12.2680  -22.4760   -7.9940 C.ar      1 LIZ         0.0661
     15 C24        12.8490  -20.1720   -7.4800 C.ar      1 LIZ        -0.0720
     16 C26        12.2100  -24.7500   -9.0200 C.2       1 LIZ         0.1583
     17 O7         10.4930  -11.3600  -11.8810 O.co2     1 LIZ        -0.5645
     18 O8          9.1970  -13.0530  -11.5060 O.co2     1 LIZ        -0.5645
     19 C9          8.8580  -15.7710  -13.9730 C.2       1 LIZ         0.0813
     20 O10         8.5360  -16.2170  -12.8510 O.co2     1 LIZ        -0.5645
     21 O9          8.4090  -16.1880  -15.0410 O.co2     1 LIZ        -0.5645
     22 C14        11.7370  -15.8270  -13.1610 C.3       1 LIZ         0.0256
     23 C18        12.9050  -15.2570  -13.9930 C.3       1 LIZ        -0.0043
     24 C16        14.4300  -17.0800  -13.2900 C.3       1 LIZ        -0.0476
     25 N2         11.1510  -17.1110  -11.0980 N.4       1 LIZ         0.2570
     26 O6          8.4380  -17.5540  -10.6860 O.co2     1 LIZ        -0.5645
     27 O5          8.4310  -19.4910  -11.6320 O.co2     1 LIZ        -0.5645
     28 C12        11.6410  -17.4710   -9.7450 C.3       1 LIZ         0.0157
     29 C11        10.5430  -17.6620   -8.6790 C.3       1 LIZ         0.0304
     30 C3         11.4570  -14.4870   -8.6610 C.2       1 LIZ         0.0813
     31 O4         11.0010  -14.4090   -9.8350 O.co2     1 LIZ        -0.5645
     32 O3         12.4660  -13.8510   -8.2410 O.co2     1 LIZ        -0.5645
     33 C2          8.6490  -16.4300   -7.7320 C.3       1 LIZ         0.0231
     34 C1          7.7320  -15.4310   -7.9350 C.2       1 LIZ         0.0813
     35 O2          7.9310  -14.5330   -8.7910 O.co2     1 LIZ        -0.5645
     36 O1          6.6800  -15.4130   -7.2700 O.co2     1 LIZ        -0.5645
     37 C25        11.1350  -18.3130   -7.4060 C.3       1 LIZ         0.0227
     38 C19        11.5160  -19.7690   -7.6260 C.ar      1 LIZ        -0.0512
     39 C23        13.2100  -21.5070   -7.6600 C.ar      1 LIZ        -0.0451
     40 N4         12.7020  -23.8230   -8.1690 N.am      1 LIZ        -0.2357
     41 S1         10.9260  -24.4800  -10.0680 S.2       1 LIZ        -0.2982
     42 N5         12.7120  -25.9770   -9.1000 N.am      1 LIZ        -0.2928
     43 H1          9.6656  -15.9706   -9.3721 H         1 LIZ         0.2068
     44 H2         10.2058  -15.0384  -12.0694 H         1 LIZ         0.2067
     45 H3         11.4774  -15.9980   -7.1308 H         1 LIZ         0.0989
     46 H4         10.1182  -14.8295   -7.0132 H         1 LIZ         0.0989
     47 H5         10.5078  -18.1014  -12.8573 H         1 LIZ         0.0989
     48 H6         11.0456  -19.1831  -11.5279 H         1 LIZ         0.0989
     49 H7         11.6436  -12.9748  -13.5735 H         1 LIZ         0.0989
     50 H8         12.2057  -13.5274  -11.9594 H         1 LIZ         0.0989
     51 H9         10.4664  -14.7463  -14.9784 H         1 LIZ         0.0989
     52 H10         9.3594  -13.6758  -14.0537 H         1 LIZ         0.0989
     53 H11        12.7530  -15.7668  -11.2746 H         1 LIZ         0.0908
     54 H12        12.8752  -18.4522  -12.7159 H         1 LIZ         0.0322
     55 H13        13.8964  -17.8659  -11.3594 H         1 LIZ         0.0322
     56 H14        14.5579  -16.0037  -15.1770 H         1 LIZ         0.0267
     57 H15        13.1607  -17.1262  -15.0570 H         1 LIZ         0.0267
     58 H16         9.5187  -20.4442   -8.0733 H         1 LIZ         0.0522
     59 H17        10.1762  -22.8016   -8.4097 H         1 LIZ         0.0497
     60 H18        13.6068  -19.4401   -7.2249 H         1 LIZ         0.0522
     61 H19        11.2297  -16.5900  -13.7696 H         1 LIZ         0.0908
     62 H20        12.5033  -14.6905  -14.8461 H         1 LIZ         0.0322
     63 H21        13.5110  -14.5898  -13.3625 H         1 LIZ         0.0322
     64 H22        15.0221  -17.9402  -13.6356 H         1 LIZ         0.0267
     65 H23        15.0909  -16.3572  -12.7893 H         1 LIZ         0.0267
     66 H24        10.4532  -16.3917  -10.9897 H         1 LIZ         0.2055
     67 H25        12.3128  -16.6704   -9.4020 H         1 LIZ         0.0873
     68 H26        12.2040  -18.4125   -9.8262 H         1 LIZ         0.0873
     69 H27         9.7933  -18.3612   -9.0777 H         1 LIZ         0.0926
     70 H28         8.9078  -16.4280   -6.6629 H         1 LIZ         0.0989
     71 H29         8.1620  -17.3821   -7.9896 H         1 LIZ         0.0989
     72 H30        10.3868  -18.2609   -6.6014 H         1 LIZ         0.0457
     73 H31        12.0338  -17.7534   -7.1078 H         1 LIZ         0.0457
     74 H32        14.2473  -21.7966   -7.5371 H         1 LIZ         0.0497
     75 H33        13.4634  -24.1175   -7.5914 H         1 LIZ         0.2335
     76 H34        12.3211  -26.6362   -9.7424 H         1 LIZ         0.1942
     77 H35        13.4808  -26.2416   -8.5179 H         1 LIZ         0.1942
@<TRIPOS>BOND
     1    1    3 1  
     2   29    1 1  
     3    1   33 1  
     4    2    7 1  
     5    2    8 1  
     6   22    2 1  
     7    3   30 1  
     8    5    4 1  
     9    4   26 ar 
    10    4   27 ar 
    11   25    5 1  
    12    7    6 1  
    13    6   17 ar 
    14    6   18 ar 
    15    8   19 1  
    16    9   10 1  
    17    9   22 1  
    18   25    9 1  
    19   10   24 1  
    20   23   11 1  
    21   24   11 1  
    22   12   13 ar 
    23   38   12 ar 
    24   13   14 ar 
    25   39   14 ar 
    26   14   40 1  
    27   38   15 ar 
    28   15   39 ar 
    29   40   16 am 
    30   16   41 2  
    31   16   42 am 
    32   19   20 ar 
    33   19   21 ar 
    34   22   23 1  
    35   28   25 1  
    36   29   28 1  
    37   37   29 1  
    38   30   31 ar 
    39   30   32 ar 
    40   33   34 1  
    41   34   35 ar 
    42   34   36 ar 
    43   37   38 1  
    44    1   43 1  
    45    2   44 1  
    46    3   45 1  
    47    3   46 1  
    48    5   47 1  
    49    5   48 1  
    50    7   49 1  
    51    7   50 1  
    52    8   51 1  
    53    8   52 1  
    54    9   53 1  
    55   10   54 1  
    56   10   55 1  
    57   11   56 1  
    58   11   57 1  
    59   12   58 1  
    60   13   59 1  
    61   15   60 1  
    62   22   61 1  
    63   23   62 1  
    64   23   63 1  
    65   24   64 1  
    66   24   65 1  
    67   25   66 1  
    68   28   67 1  
    69   28   68 1  
    70   29   69 1  
    71   33   70 1  
    72   33   71 1  
    73   37   72 1  
    74   37   73 1  
    75   39   74 1  
    76   40   75 1  
    77   42   76 1  
    78   42   77 1  
@<TRIPOS>SUBSTRUCTURE
     1 LIZ         1

