### 
### Created by X-TOOL on Mon Sep 10 21:13:14 2018
### 

@<TRIPOS>MOLECULE
4iax_ligand
   77    78     1     0     0
SMALL
GAST_HUCK


@<TRIPOS>ATOM
      1 N1          2.1810  -17.3000    2.5320 N.4       1 LIZ         0.2654
      2 N3          6.5500  -18.8220    3.8180 N.4       1 LIZ         0.2644
      3 C4          2.0040  -16.1480    3.4070 C.3       1 LIZ         0.0231
      4 C5          3.1290  -20.7250    1.6220 C.2       1 LIZ         0.0813
      5 C6          3.4480  -20.9290    3.1220 C.3       1 LIZ         0.0219
      6 C7          7.1390  -16.4540    3.5460 C.2       1 LIZ         0.0813
      7 C8          7.0170  -17.5810    4.5440 C.3       1 LIZ         0.0230
      8 C10         7.6610  -19.4120    3.0450 C.3       1 LIZ         0.0230
      9 C13         4.4770  -19.6750    5.0700 C.3       1 LIZ         0.0245
     10 C15         3.9770  -20.7950    6.0230 C.3       1 LIZ        -0.0044
     11 C17         6.3330  -21.0550    6.9730 C.3       1 LIZ        -0.0476
     12 C20        -0.9580  -20.4600    3.0120 C.ar      1 LIZ        -0.0720
     13 C21        -1.6610  -21.6450    3.4190 C.ar      1 LIZ        -0.0451
     14 C22        -2.1740  -21.7100    4.7550 C.ar      1 LIZ         0.0661
     15 C24        -1.2430  -19.5670    5.2420 C.ar      1 LIZ        -0.0720
     16 C26        -3.5960  -23.7400    4.6650 C.2       1 LIZ         0.1583
     17 O7          7.7950  -15.4220    3.8720 O.co2     1 LIZ        -0.5645
     18 O8          6.6250  -16.6160    2.3920 O.co2     1 LIZ        -0.5645
     19 C9          7.0580  -20.3400    1.9980 C.2       1 LIZ         0.0813
     20 O10         5.9240  -20.0680    1.5520 O.co2     1 LIZ        -0.5645
     21 O9          7.7030  -21.3760    1.6440 O.co2     1 LIZ        -0.5645
     22 C14         5.9920  -19.8690    4.7490 C.3       1 LIZ         0.0256
     23 C18         6.8390  -19.9380    6.0570 C.3       1 LIZ        -0.0043
     24 C16         4.8310  -20.8590    7.3040 C.3       1 LIZ        -0.0476
     25 N2          3.5730  -19.5950    3.8080 N.4       1 LIZ         0.2570
     26 O6          3.3490  -19.6090    1.1030 O.co2     1 LIZ        -0.5645
     27 O5          2.6340  -21.6540    0.9880 O.co2     1 LIZ        -0.5645
     28 C12         2.2300  -19.1270    4.2400 C.3       1 LIZ         0.0157
     29 C11         1.4340  -18.4990    3.0730 C.3       1 LIZ         0.0304
     30 C3          3.2370  -15.9530    4.2540 C.2       1 LIZ         0.0813
     31 O4          4.2800  -16.5880    3.9570 O.co2     1 LIZ        -0.5645
     32 O3          3.1610  -15.1880    5.2160 O.co2     1 LIZ        -0.5645
     33 C2          1.7470  -16.9400    1.2230 C.3       1 LIZ         0.0231
     34 C1          2.6080  -16.2350    0.4160 C.2       1 LIZ         0.0813
     35 O2          3.8010  -16.1130    0.7570 O.co2     1 LIZ        -0.5645
     36 O1          2.1990  -15.7770   -0.6420 O.co2     1 LIZ        -0.5645
     37 C25        -0.0260  -18.1270    3.5770 C.3       1 LIZ         0.0227
     38 C19        -0.7730  -19.4170    3.9520 C.ar      1 LIZ        -0.0512
     39 C23        -1.9430  -20.6910    5.6130 C.ar      1 LIZ        -0.0451
     40 N4         -2.7770  -22.8940    5.3050 N.am      1 LIZ        -0.2357
     41 S1         -4.0500  -23.5030    3.0910 S.2       1 LIZ        -0.2982
     42 N5         -4.0880  -24.7950    5.3370 N.am      1 LIZ        -0.2928
     43 H1          3.1610  -17.5326    2.4926 H         1 LIZ         0.2068
     44 H2          5.8204  -18.5501    3.1778 H         1 LIZ         0.2067
     45 H3          1.1354  -16.3163    4.0606 H         1 LIZ         0.0989
     46 H4          1.8348  -15.2487    2.7965 H         1 LIZ         0.0989
     47 H5          4.3950  -21.4798    3.2214 H         1 LIZ         0.0989
     48 H6          2.6374  -21.5055    3.5917 H         1 LIZ         0.0989
     49 H7          7.9953  -17.7706    5.0098 H         1 LIZ         0.0989
     50 H8          6.2872  -17.3099    5.3211 H         1 LIZ         0.0989
     51 H9          8.3215  -19.9823    3.7147 H         1 LIZ         0.0989
     52 H10         8.2379  -18.6159    2.5517 H         1 LIZ         0.0989
     53 H11         4.3791  -18.7156    5.5991 H         1 LIZ         0.0908
     54 H12         4.0375  -21.7623    5.5028 H         1 LIZ         0.0322
     55 H13         2.9317  -20.5916    6.2985 H         1 LIZ         0.0322
     56 H14         6.9124  -21.0447    7.9080 H         1 LIZ         0.0267
     57 H15         6.4676  -22.0233    6.4688 H         1 LIZ         0.0267
     58 H16        -0.5755  -20.3658    2.0021 H         1 LIZ         0.0522
     59 H17        -1.8001  -22.4710    2.7309 H         1 LIZ         0.0497
     60 H18        -1.0575  -18.7877    5.9723 H         1 LIZ         0.0522
     61 H19         6.0894  -20.8389    4.2393 H         1 LIZ         0.0908
     62 H20         7.8897  -20.1332    5.7965 H         1 LIZ         0.0322
     63 H21         6.7649  -18.9763    6.5859 H         1 LIZ         0.0322
     64 H22         4.4876  -21.7021    7.9214 H         1 LIZ         0.0267
     65 H23         4.7074  -19.9203    7.8639 H         1 LIZ         0.0267
     66 H24         3.9690  -18.9327    3.1595 H         1 LIZ         0.2055
     67 H25         2.3539  -18.3735    5.0317 H         1 LIZ         0.0873
     68 H26         1.6649  -19.9842    4.6348 H         1 LIZ         0.0873
     69 H27         1.3425  -19.2402    2.2654 H         1 LIZ         0.0926
     70 H28         0.8384  -16.3308    1.3385 H         1 LIZ         0.0989
     71 H29         1.4985  -17.8728    0.6956 H         1 LIZ         0.0989
     72 H30        -0.5705  -17.6058    2.7759 H         1 LIZ         0.0457
     73 H31         0.0442  -17.4727    4.4584 H         1 LIZ         0.0457
     74 H32        -2.3218  -20.7623    6.6261 H         1 LIZ         0.0497
     75 H33        -2.5643  -23.1070    6.2586 H         1 LIZ         0.2335
     76 H34        -4.7008  -25.4384    4.8783 H         1 LIZ         0.1942
     77 H35        -3.8412  -24.9365    6.2957 H         1 LIZ         0.1942
@<TRIPOS>BOND
     1    1    3 1  
     2   29    1 1  
     3    1   33 1  
     4    2    7 1  
     5    2    8 1  
     6   22    2 1  
     7    3   30 1  
     8    5    4 1  
     9    4   26 ar 
    10    4   27 ar 
    11   25    5 1  
    12    7    6 1  
    13    6   17 ar 
    14    6   18 ar 
    15    8   19 1  
    16    9   10 1  
    17    9   22 1  
    18   25    9 1  
    19   10   24 1  
    20   23   11 1  
    21   24   11 1  
    22   12   13 ar 
    23   38   12 ar 
    24   13   14 ar 
    25   39   14 ar 
    26   14   40 1  
    27   38   15 ar 
    28   15   39 ar 
    29   40   16 am 
    30   16   41 2  
    31   16   42 am 
    32   19   20 ar 
    33   19   21 ar 
    34   22   23 1  
    35   28   25 1  
    36   29   28 1  
    37   37   29 1  
    38   30   31 ar 
    39   30   32 ar 
    40   33   34 1  
    41   34   35 ar 
    42   34   36 ar 
    43   37   38 1  
    44    1   43 1  
    45    2   44 1  
    46    3   45 1  
    47    3   46 1  
    48    5   47 1  
    49    5   48 1  
    50    7   49 1  
    51    7   50 1  
    52    8   51 1  
    53    8   52 1  
    54    9   53 1  
    55   10   54 1  
    56   10   55 1  
    57   11   56 1  
    58   11   57 1  
    59   12   58 1  
    60   13   59 1  
    61   15   60 1  
    62   22   61 1  
    63   23   62 1  
    64   23   63 1  
    65   24   64 1  
    66   24   65 1  
    67   25   66 1  
    68   28   67 1  
    69   28   68 1  
    70   29   69 1  
    71   33   70 1  
    72   33   71 1  
    73   37   72 1  
    74   37   73 1  
    75   39   74 1  
    76   40   75 1  
    77   42   76 1  
    78   42   77 1  
@<TRIPOS>SUBSTRUCTURE
     1 LIZ         1

