### 
### Created by X-TOOL on Mon Sep 10 21:13:18 2018
### 

@<TRIPOS>MOLECULE
4ibb_ligand
   55    58     1     0     0
SMALL
GAST_HUCK


@<TRIPOS>ATOM
      1 CAC         2.6030   24.1390    0.9740 C.3       1 1DK        -0.0379
      2 CBA         1.8760   23.4930    2.1220 C.ar      1 1DK        -0.0529
      3 CAP         1.2420   24.2890    3.0700 C.ar      1 1DK        -0.0716
      4 CAY         0.5730   23.6880    4.1260 C.ar      1 1DK        -0.0573
      5 CAA        -0.1190   24.5260    5.1690 C.3       1 1DK        -0.0382
      6 CAZ         0.5330   22.2880    4.2440 C.ar      1 1DK        -0.0571
      7 CAB        -0.1770   21.7060    5.3650 C.3       1 1DK        -0.0382
      8 CAQ         1.1640   21.4890    3.2990 C.ar      1 1DK        -0.0674
      9 CBE         1.8420   22.0860    2.2340 C.ar      1 1DK        -0.0153
     10 CBF         2.5260   21.2440    1.1980 C.3       1 1DK         0.1262
     11 CAX         3.5940   20.5070    1.7710 C.2       1 1DK         0.0857
     12 CAU         4.7270   21.2100    2.5270 C.2       1 1DK         0.1522
     13 OAE         5.2710   22.1990    1.8120 O.2       1 1DK        -0.3896
     14 CBC         5.7300   20.4280    3.3140 C.2       1 1DK         0.0803
     15 CAK         5.3550   19.2240    4.2510 C.2       1 1DK        -0.0567
     16 CAI         6.7860   18.7820    4.9110 C.2       1 1DK        -0.0662
     17 CAJ         7.9300   19.7120    4.4160 C.2       1 1DK         0.0013
     18 SAS         7.3030   20.8490    3.3570 S.3       1 1DK        -0.0275
     19 CAW         3.3610   19.1560    1.4810 C.2       1 1DK         0.1843
     20 OAG         4.1230   18.1420    1.8210 O.3       1 1DK        -0.3230
     21 CAV         2.1460   19.0540    0.7360 C.2       1 1DK         0.2673
     22 OAF         1.5890   17.9050    0.2740 O.2       1 1DK        -0.3706
     23 NBG         1.6230   20.2870    0.5650 N.am      1 1DK        -0.1995
     24 CBD         0.4700   20.6320   -0.2380 C.ar      1 1DK         0.0664
     25 CAO         0.6300   21.4630   -1.3570 C.ar      1 1DK        -0.0465
     26 CAM        -0.4750   21.8110   -2.1270 C.ar      1 1DK        -0.0715
     27 CAN        -0.7820   20.1620    0.1180 C.ar      1 1DK        -0.0465
     28 CAL        -1.8850   20.5040   -0.6560 C.ar      1 1DK        -0.0715
     29 CBB        -1.7340   21.3280   -1.7650 C.ar      1 1DK        -0.0447
     30 CAR        -2.9540   21.6530   -2.5800 C.3       1 1DK         0.0268
     31 CAT        -3.4760   20.4520   -3.3450 C.2       1 1DK         0.0441
     32 OAH        -4.5810   19.9400   -3.0390 O.co2     1 1DK        -0.5668
     33 OAD        -2.7950   19.9490   -4.2620 O.co2     1 1DK        -0.5668
     34 H1          2.5196   25.2328    1.0562 H         1 1DK         0.0363
     35 H2          2.1571   23.8076    0.0246 H         1 1DK         0.0363
     36 H3          3.6637   23.8490    1.0020 H         1 1DK         0.0363
     37 H4          1.2704   25.3692    2.9844 H         1 1DK         0.0461
     38 H5          0.0090   25.5915    4.9274 H         1 1DK         0.0363
     39 H6          0.3196   24.3186    6.1562 H         1 1DK         0.0363
     40 H7         -1.1910   24.2800    5.1850 H         1 1DK         0.0363
     41 H8         -0.1130   20.6092    5.3100 H         1 1DK         0.0362
     42 H9         -1.2325   22.0138    5.3303 H         1 1DK         0.0362
     43 H10         0.2755   22.0530    6.3057 H         1 1DK         0.0362
     44 H11         1.1304   20.4091    3.3876 H         1 1DK         0.0464
     45 H12         2.9271   21.9151    0.4243 H         1 1DK         0.0886
     46 H13         4.3727   18.7860    4.4215 H         1 1DK         0.0516
     47 H14         6.9188   17.9508    5.6019 H         1 1DK         0.0439
     48 H15         8.9754   19.6361    4.7115 H         1 1DK         0.0804
     49 H16         1.6138   21.8335   -1.6213 H         1 1DK         0.0488
     50 H17        -0.3602   22.4485   -2.9962 H         1 1DK         0.0523
     51 H18        -0.9016   19.5328    0.9926 H         1 1DK         0.0488
     52 H19        -2.8667   20.1265   -0.3935 H         1 1DK         0.0523
     53 H20        -2.6978   22.4453   -3.2987 H         1 1DK         0.0560
     54 H21        -3.7445   22.0122   -1.9046 H         1 1DK         0.0560
     55 H22         3.7365   17.3355    1.5006 H         1 1DK         0.2508
@<TRIPOS>BOND
     1    1    2 1  
     2    2    3 ar 
     3    2    9 ar 
     4    3    4 ar 
     5    4    5 1  
     6    4    6 ar 
     7    6    7 1  
     8    6    8 ar 
     9    8    9 ar 
    10    9   10 1  
    11   10   11 1  
    12   10   23 1  
    13   11   12 1  
    14   11   19 2  
    15   12   13 2  
    16   12   14 1  
    17   14   15 2  
    18   14   18 1  
    19   15   16 1  
    20   16   17 2  
    21   17   18 1  
    22   19   20 1  
    23   19   21 1  
    24   21   22 2  
    25   21   23 am 
    26   23   24 1  
    27   24   25 ar 
    28   24   27 ar 
    29   25   26 ar 
    30   26   29 ar 
    31   27   28 ar 
    32   28   29 ar 
    33   29   30 1  
    34   30   31 1  
    35   31   32 ar 
    36   31   33 ar 
    37    1   34 1  
    38    1   35 1  
    39    1   36 1  
    40    3   37 1  
    41    5   38 1  
    42    5   39 1  
    43    5   40 1  
    44    7   41 1  
    45    7   42 1  
    46    7   43 1  
    47    8   44 1  
    48   10   45 1  
    49   15   46 1  
    50   16   47 1  
    51   17   48 1  
    52   25   49 1  
    53   26   50 1  
    54   27   51 1  
    55   28   52 1  
    56   30   53 1  
    57   30   54 1  
    58   20   55 1  
@<TRIPOS>SUBSTRUCTURE
     1 1DK         1

