### 
### Created by X-TOOL on Mon Sep 10 21:13:18 2018
### 

@<TRIPOS>MOLECULE
4ibc_ligand
   49    52     1     0     0
SMALL
GAST_HUCK


@<TRIPOS>ATOM
      1 CLA         3.0620   24.3680    1.0870 Cl        1 12G        -0.0768
      2 CBB         2.2250   23.4680    2.3010 C.ar      1 12G         0.0454
      3 CAM         1.4750   24.1800    3.2280 C.ar      1 12G        -0.0543
      4 CAI         0.7890   23.5130    4.2270 C.ar      1 12G        -0.0681
      5 CAK         0.8480   22.1300    4.3020 C.ar      1 12G        -0.0681
      6 CAO         1.5980   21.4130    3.3830 C.ar      1 12G        -0.0555
      7 CBE         2.2850   22.0760    2.3730 C.ar      1 12G         0.0101
      8 CBF         3.0740   21.2310    1.4250 C.3       1 12G         0.1336
      9 NBG         2.4490   20.3910    0.5870 N.am      1 12G        -0.1971
     10 CBC         1.3350   20.7420   -0.2420 C.ar      1 12G         0.0667
     11 CAR         0.0820   20.2280    0.0490 C.ar      1 12G        -0.0465
     12 CAP        -1.0010   20.5620   -0.7510 C.ar      1 12G        -0.0715
     13 CAZ        -0.8290   21.4110   -1.8340 C.ar      1 12G        -0.0447
     14 CAT        -2.0040   21.7520   -2.6870 C.3       1 12G         0.0268
     15 CAU        -2.5440   20.6210   -3.5010 C.2       1 12G         0.0441
     16 OAD        -1.8150   20.0660   -4.3720 O.co2     1 12G        -0.5668
     17 OAA        -3.7210   20.2130   -3.3090 O.co2     1 12G        -0.5668
     18 CAQ         0.4260   21.9240   -2.1290 C.ar      1 12G        -0.0715
     19 CAS         1.5110   21.5880   -1.3280 C.ar      1 12G        -0.0465
     20 CAX         3.0730   19.2060    0.5470 C.2       1 12G         0.2684
     21 OAC         2.6840   18.1130   -0.1920 O.2       1 12G        -0.3701
     22 CAW         4.1870   19.2720    1.3710 C.2       1 12G         0.1858
     23 OAE         5.1000   18.2700    1.5980 O.3       1 12G        -0.3222
     24 CAY         4.1990   20.5610    1.9030 C.2       1 12G         0.0899
     25 CAV         5.3240   21.2370    2.6160 C.2       1 12G         0.1510
     26 OAB         5.3390   22.4510    2.6590 O.2       1 12G        -0.3813
     27 CBD         6.4360   20.5100    3.2890 C.ar      1 12G         0.0436
     28 CBA         6.1750   19.5610    4.2730 C.ar      1 12G         0.0584
     29 CL2         4.5470   19.1700    4.7230 Cl        1 12G        -0.0648
     30 CAL         7.2320   18.9110    4.8940 C.ar      1 12G        -0.0424
     31 CAH         8.5350   19.2210    4.5360 C.ar      1 12G        -0.0571
     32 CAJ         8.7940   20.1790    3.5630 C.ar      1 12G        -0.0563
     33 CAN         7.7450   20.8280    2.9390 C.ar      1 12G        -0.0438
     34 H1          1.4271   25.2613    3.1685 H         1 12G         0.0605
     35 H2          0.2059   24.0712    4.9505 H         1 12G         0.0560
     36 H3          0.3058   21.6076    5.0819 H         1 12G         0.0601
     37 H4          1.6489   20.3324    3.4522 H         1 12G         0.0560
     38 H5          3.4916   21.9963    0.7543 H         1 12G         0.0916
     39 H6         -0.0517   19.5676    0.8982 H         1 12G         0.0488
     40 H7         -1.9826   20.1590   -0.5294 H         1 12G         0.0523
     41 H8         -1.7037   22.5551   -3.3760 H         1 12G         0.0560
     42 H9         -2.8087   22.1141   -2.0302 H         1 12G         0.0560
     43 H10         0.5595   22.5830   -2.9793 H         1 12G         0.0523
     44 H11         2.4941   21.9865   -1.5514 H         1 12G         0.0488
     45 H12         5.7637   18.5790    2.2034 H         1 12G         0.2512
     46 H13         7.0398   18.1641    5.6557 H         1 12G         0.0635
     47 H14         9.3601   18.7110    5.0199 H         1 12G         0.0652
     48 H15         9.8168   20.4169    3.2939 H         1 12G         0.0630
     49 H16         7.9406   21.5793    2.1824 H         1 12G         0.0667
@<TRIPOS>BOND
     1    1    2 1  
     2    2    3 ar 
     3    2    7 ar 
     4    3    4 ar 
     5    4    5 ar 
     6    5    6 ar 
     7    6    7 ar 
     8    7    8 1  
     9    8    9 1  
    10    8   24 1  
    11    9   10 1  
    12    9   20 am 
    13   10   11 ar 
    14   10   19 ar 
    15   11   12 ar 
    16   12   13 ar 
    17   13   14 1  
    18   13   18 ar 
    19   14   15 1  
    20   15   16 ar 
    21   15   17 ar 
    22   18   19 ar 
    23   20   21 2  
    24   20   22 1  
    25   22   23 1  
    26   22   24 2  
    27   24   25 1  
    28   25   26 2  
    29   25   27 1  
    30   27   28 ar 
    31   27   33 ar 
    32   28   29 1  
    33   28   30 ar 
    34   30   31 ar 
    35   31   32 ar 
    36   32   33 ar 
    37    3   34 1  
    38    4   35 1  
    39    5   36 1  
    40    6   37 1  
    41    8   38 1  
    42   11   39 1  
    43   12   40 1  
    44   14   41 1  
    45   14   42 1  
    46   18   43 1  
    47   19   44 1  
    48   23   45 1  
    49   30   46 1  
    50   31   47 1  
    51   32   48 1  
    52   33   49 1  
@<TRIPOS>SUBSTRUCTURE
     1 12G         1

