### 
### Created by X-TOOL on Mon Sep 10 21:13:17 2018
### 

@<TRIPOS>MOLECULE
4ibd_ligand
   46    49     1     0     0
SMALL
GAST_HUCK


@<TRIPOS>ATOM
      1 OAB        -3.1400   19.0970    0.5070 O.co2     1 1DL        -0.5631
      2 CAS        -3.1600   19.8840   -0.4730 C.2       1 1DL         0.0554
      3 OAE        -4.2690   20.0980   -1.0150 O.co2     1 1DL        -0.5631
      4 CBC        -1.8690   20.5040   -0.9260 C.ar      1 1DL        -0.0013
      5 CAQ        -0.7400   20.1550   -0.1970 C.ar      1 1DL        -0.0326
      6 CAX        -1.7290   21.3940   -2.0010 C.ar      1 1DL        -0.0459
      7 CAA        -2.8670   21.8560   -2.8610 C.3       1 1DL        -0.0356
      8 CAK        -0.4750   21.8950   -2.3120 C.ar      1 1DL        -0.0695
      9 CAN         0.6460   21.5330   -1.5830 C.ar      1 1DL        -0.0440
     10 CBB         0.5160   20.6580   -0.5150 C.ar      1 1DL         0.0703
     11 NBE         1.6700   20.2830    0.2540 N.am      1 1DL        -0.1948
     12 CBD         2.5870   21.1380    0.7130 C.3       1 1DL         0.1442
     13 CBA         2.0610   22.1960    1.5930 C.2       1 1DL         0.0526
     14 SAR         1.3970   21.8320    3.0920 S.3       1 1DL        -0.0340
     15 CAO         0.9940   23.3860    3.5870 C.2       1 1DL        -0.0055
     16 CAY         1.3930   24.2100    2.5310 C.2       1 1DL        -0.0169
     17 BRA         1.1520   26.1120    2.6060 Br        1 1DL        -0.0751
     18 CAP         1.9970   23.5770    1.4060 C.2       1 1DL        -0.0692
     19 CAV         2.0160   19.0300    0.5550 C.2       1 1DL         0.2685
     20 OAD         1.2730   17.9300    0.2500 O.2       1 1DL        -0.3702
     21 CAU         3.2470   19.0630    1.2080 C.2       1 1DL         0.1860
     22 OAF         3.9520   17.9770    1.6630 O.3       1 1DL        -0.3222
     23 CAW         3.6230   20.4040    1.2840 C.2       1 1DL         0.0917
     24 CAT         4.8600   21.0550    1.8110 C.2       1 1DL         0.1509
     25 OAC         5.1510   22.1480    1.3330 O.2       1 1DL        -0.3812
     26 CAZ         5.7370   20.4680    2.8690 C.ar      1 1DL         0.0299
     27 CAL         7.0860   20.7880    2.8610 C.ar      1 1DL        -0.0441
     28 CAI         7.9350   20.2690    3.8330 C.ar      1 1DL        -0.0563
     29 CAH         7.4330   19.4250    4.8160 C.ar      1 1DL        -0.0576
     30 CAJ         6.0790   19.1070    4.8340 C.ar      1 1DL        -0.0563
     31 CAM         5.2290   19.6280    3.8610 C.ar      1 1DL        -0.0441
     32 H1         -0.8406   19.4739    0.6403 H         1 1DL         0.0519
     33 H2         -2.4892   22.5472   -3.6288 H         1 1DL         0.0372
     34 H3         -3.6118   22.3722   -2.2375 H         1 1DL         0.0372
     35 H4         -3.3348   20.9876   -3.3478 H         1 1DL         0.0372
     36 H5         -0.3691   22.5839   -3.1422 H         1 1DL         0.0528
     37 H6          1.6192   21.9314   -1.8459 H         1 1DL         0.0510
     38 H7          3.0040   21.6570   -0.1626 H         1 1DL         0.0941
     39 H8          0.5255   23.6851    4.5235 H         1 1DL         0.0671
     40 H9          2.3589   24.0996    0.5218 H         1 1DL         0.0288
     41 H10         4.7579   18.2721    2.0704 H         1 1DL         0.2512
     42 H11         7.4806   21.4451    2.0944 H         1 1DL         0.0667
     43 H12         8.9888   20.5231    3.8236 H         1 1DL         0.0629
     44 H13         8.0964   19.0145    5.5687 H         1 1DL         0.0652
     45 H14         5.6854   18.4542    5.6047 H         1 1DL         0.0629
     46 H15         4.1736   19.3811    3.8744 H         1 1DL         0.0667
@<TRIPOS>BOND
     1    1    2 ar 
     2    2    3 ar 
     3    2    4 1  
     4    4    5 ar 
     5    4    6 ar 
     6    5   10 ar 
     7    6    7 1  
     8    6    8 ar 
     9    8    9 ar 
    10    9   10 ar 
    11   10   11 1  
    12   11   12 1  
    13   11   19 am 
    14   12   13 1  
    15   12   23 1  
    16   13   14 1  
    17   13   18 2  
    18   14   15 1  
    19   15   16 2  
    20   16   17 1  
    21   16   18 1  
    22   19   20 2  
    23   19   21 1  
    24   21   22 1  
    25   21   23 2  
    26   23   24 1  
    27   24   25 2  
    28   24   26 1  
    29   26   27 ar 
    30   26   31 ar 
    31   27   28 ar 
    32   28   29 ar 
    33   29   30 ar 
    34   30   31 ar 
    35    5   32 1  
    36    7   33 1  
    37    7   34 1  
    38    7   35 1  
    39    8   36 1  
    40    9   37 1  
    41   12   38 1  
    42   15   39 1  
    43   18   40 1  
    44   22   41 1  
    45   27   42 1  
    46   28   43 1  
    47   29   44 1  
    48   30   45 1  
    49   31   46 1  
@<TRIPOS>SUBSTRUCTURE
     1 1DL         1

