### 
### Created by X-TOOL on Mon Sep 10 21:13:18 2018
### 

@<TRIPOS>MOLECULE
4ibe_ligand
   43    46     1     0     0
SMALL
GAST_HUCK


@<TRIPOS>ATOM
      1 OAA        -3.0920   19.3980    0.8200 O.co2     1 11Y        -0.5608
      2 CAS        -3.0870   20.1360   -0.2030 C.2       1 11Y         0.0598
      3 OAD        -4.1910   20.4370   -0.7220 O.co2     1 11Y        -0.5608
      4 CBC        -1.7790   20.6570   -0.7260 C.ar      1 11Y         0.0105
      5 CAQ        -0.6330   20.2620   -0.0440 C.ar      1 11Y        -0.0259
      6 CAY        -1.6550   21.4970   -1.8400 C.ar      1 11Y         0.0382
      7 CLA        -3.0090   22.0540   -2.7630 Cl        1 11Y        -0.0810
      8 CAM        -0.3910   21.9140   -2.2400 C.ar      1 11Y        -0.0580
      9 CAN         0.7460   21.5100   -1.5550 C.ar      1 11Y        -0.0374
     10 CBB         0.6250   20.6780   -0.4520 C.ar      1 11Y         0.0773
     11 NBE         1.7890   20.2730    0.2710 N.am      1 11Y        -0.1907
     12 CBD         2.6830   21.1460    0.7560 C.3       1 11Y         0.1457
     13 CBA         2.1360   22.2140    1.6390 C.2       1 11Y         0.0529
     14 SAR         1.4280   21.8610    3.1180 S.3       1 11Y        -0.0340
     15 CAO         1.0270   23.4180    3.6100 C.2       1 11Y        -0.0055
     16 CAX         1.4700   24.2570    2.5810 C.2       1 11Y        -0.0169
     17 BRA         1.2510   26.1750    2.6690 Br        1 11Y        -0.0751
     18 CAP         2.0930   23.6040    1.4700 C.2       1 11Y        -0.0692
     19 CAV         2.1110   19.0180    0.5890 C.2       1 11Y         0.2706
     20 OAC         1.3640   17.9030    0.2710 O.2       1 11Y        -0.3691
     21 CAU         3.3260   19.0660    1.2750 C.2       1 11Y         0.1865
     22 OAE         4.0330   17.9920    1.7660 O.3       1 11Y        -0.3222
     23 CAW         3.7030   20.4120    1.3470 C.2       1 11Y         0.0921
     24 CAT         4.9520   21.0530    1.8590 C.2       1 11Y         0.1510
     25 OAB         5.2360   22.1620    1.4260 O.2       1 11Y        -0.3812
     26 CAZ         5.8590   20.4410    2.8700 C.ar      1 11Y         0.0299
     27 CAK         7.2270   20.6260    2.7300 C.ar      1 11Y        -0.0441
     28 CAI         8.1110   20.0920    3.6520 C.ar      1 11Y        -0.0563
     29 CAH         7.6160   19.3720    4.7280 C.ar      1 11Y        -0.0576
     30 CAJ         6.2480   19.1900    4.8800 C.ar      1 11Y        -0.0563
     31 CAL         5.3630   19.7300    3.9530 C.ar      1 11Y        -0.0441
     32 H1         -0.7251   19.6171    0.8224 H         1 11Y         0.0537
     33 H2         -0.2918   22.5653   -3.1009 H         1 11Y         0.0591
     34 H3          1.7248   21.8433   -1.8806 H         1 11Y         0.0525
     35 H4          3.1164   21.6697   -0.1088 H         1 11Y         0.0944
     36 H5          0.5287   23.7112    4.5328 H         1 11Y         0.0671
     37 H6          2.4862   24.1250    0.5983 H         1 11Y         0.0288
     38 H7          4.2625   17.4114    1.0500 H         1 11Y         0.2512
     39 H8          7.6078   21.1949    1.8895 H         1 11Y         0.0667
     40 H9          9.1789   20.2354    3.5337 H         1 11Y         0.0629
     41 H10         8.3004   18.9489    5.4544 H         1 11Y         0.0652
     42 H11         5.8685   18.6252    5.7239 H         1 11Y         0.0629
     43 H12         4.2943   19.5964    4.0757 H         1 11Y         0.0667
@<TRIPOS>BOND
     1    1    2 ar 
     2    2    3 ar 
     3    2    4 1  
     4    4    5 ar 
     5    4    6 ar 
     6    5   10 ar 
     7    6    7 1  
     8    6    8 ar 
     9    8    9 ar 
    10    9   10 ar 
    11   10   11 1  
    12   11   12 1  
    13   11   19 am 
    14   12   13 1  
    15   12   23 1  
    16   13   14 1  
    17   13   18 2  
    18   14   15 1  
    19   15   16 2  
    20   16   17 1  
    21   16   18 1  
    22   19   20 2  
    23   19   21 1  
    24   21   22 1  
    25   21   23 2  
    26   23   24 1  
    27   24   25 2  
    28   24   26 1  
    29   26   27 ar 
    30   26   31 ar 
    31   27   28 ar 
    32   28   29 ar 
    33   29   30 ar 
    34   30   31 ar 
    35    5   32 1  
    36    8   33 1  
    37    9   34 1  
    38   12   35 1  
    39   15   36 1  
    40   18   37 1  
    41   22   38 1  
    42   27   39 1  
    43   28   40 1  
    44   29   41 1  
    45   30   42 1  
    46   31   43 1  
@<TRIPOS>SUBSTRUCTURE
     1 11Y         1

