### 
### Created by X-TOOL on Mon Sep 10 21:13:18 2018
### 

@<TRIPOS>MOLECULE
4ibf_ligand
   43    46     1     0     0
SMALL
GAST_HUCK


@<TRIPOS>ATOM
      1 OAA        -4.7610   19.8900   -3.1520 O.co2     1 1D5        -0.5668
      2 CAS        -3.6490   20.3950   -3.4510 C.2       1 1D5         0.0441
      3 OAD        -3.0330   19.9980   -4.4760 O.co2     1 1D5        -0.5668
      4 CAP        -3.0630   21.4520   -2.5770 C.3       1 1D5         0.0268
      5 CAZ        -1.8380   21.0770   -1.8150 C.ar      1 1D5        -0.0447
      6 CAJ        -0.5990   21.5740   -2.1990 C.ar      1 1D5        -0.0715
      7 CAM         0.5400   21.2190   -1.4910 C.ar      1 1D5        -0.0465
      8 CAI        -1.9410   20.2230   -0.7260 C.ar      1 1D5        -0.0715
      9 CAL        -0.8010   19.8730   -0.0150 C.ar      1 1D5        -0.0465
     10 CBB         0.4400   20.3640   -0.4010 C.ar      1 1D5         0.0670
     11 NBE         1.6210   20.0130    0.3310 N.am      1 1D5        -0.1953
     12 CBD         2.5550   20.9070    0.6780 C.3       1 1D5         0.1439
     13 CBC         2.0570   21.9800    1.5650 C.2       1 1D5         0.0526
     14 SAQ         1.4470   21.6710    3.0950 S.3       1 1D5        -0.0340
     15 CAN         1.0430   23.2330    3.5570 C.2       1 1D5        -0.0055
     16 CAX         1.4060   24.0310    2.4610 C.2       1 1D5        -0.0169
     17 BRA         1.1710   25.9460    2.4810 Br        1 1D5        -0.0751
     18 CAO         1.9700   23.3530    1.3440 C.2       1 1D5        -0.0692
     19 CAV         1.9990   18.7770    0.6540 C.2       1 1D5         0.2681
     20 OAC         1.2360   17.6490    0.4660 O.2       1 1D5        -0.3704
     21 CAU         3.2880   18.8610    1.1890 C.2       1 1D5         0.1852
     22 OAE         4.0480   17.7990    1.6200 O.3       1 1D5        -0.3227
     23 CAW         3.6560   20.2190    1.1670 C.2       1 1D5         0.0900
     24 CAT         4.8540   20.9310    1.7320 C.2       1 1D5         0.1528
     25 OAB         5.1090   22.0700    1.3610 O.2       1 1D5        -0.3895
     26 CBA         5.7730   20.3400    2.7410 C.2       1 1D5         0.0802
     27 SAR         7.3470   20.8760    3.0230 S.3       1 1D5        -0.0152
     28 CAY         7.7610   19.7950    4.2470 C.2       1 1D5         0.1027
     29 CLA         9.2840   19.7260    5.0560 Cl        1 1D5        -0.0495
     30 CAH         6.6410   18.9730    4.4810 C.2       1 1D5        -0.0521
     31 CAK         5.5280   19.2850    3.6410 C.2       1 1D5        -0.0559
     32 H1         -3.8323   21.7490   -1.8490 H         1 1D5         0.0560
     33 H2         -2.8104   22.3118   -3.2149 H         1 1D5         0.0560
     34 H3         -0.5221   22.2390   -3.0516 H         1 1D5         0.0523
     35 H4          1.5070   21.6085   -1.7882 H         1 1D5         0.0488
     36 H5         -2.9077   19.8307   -0.4316 H         1 1D5         0.0523
     37 H6         -0.8794   19.2153    0.8431 H         1 1D5         0.0488
     38 H7          2.8778   21.4091   -0.2459 H         1 1D5         0.0941
     39 H8          0.5984   23.5554    4.4974 H         1 1D5         0.0671
     40 H9          2.2938   23.8467    0.4289 H         1 1D5         0.0288
     41 H10         4.8839   18.1182    1.9394 H         1 1D5         0.2510
     42 H11         6.6251   18.1797    5.2269 H         1 1D5         0.0449
     43 H12         4.5777   18.7556    3.6921 H         1 1D5         0.0517
@<TRIPOS>BOND
     1    1    2 ar 
     2    2    3 ar 
     3    2    4 1  
     4    4    5 1  
     5    5    6 ar 
     6    5    8 ar 
     7    6    7 ar 
     8    7   10 ar 
     9    8    9 ar 
    10    9   10 ar 
    11   10   11 1  
    12   11   12 1  
    13   11   19 am 
    14   12   13 1  
    15   12   23 1  
    16   13   14 1  
    17   13   18 2  
    18   14   15 1  
    19   15   16 2  
    20   16   17 1  
    21   16   18 1  
    22   19   20 2  
    23   19   21 1  
    24   21   22 1  
    25   21   23 2  
    26   23   24 1  
    27   24   25 2  
    28   24   26 1  
    29   26   27 1  
    30   26   31 2  
    31   27   28 1  
    32   28   29 1  
    33   28   30 2  
    34   30   31 1  
    35    4   32 1  
    36    4   33 1  
    37    6   34 1  
    38    7   35 1  
    39    8   36 1  
    40    9   37 1  
    41   12   38 1  
    42   15   39 1  
    43   18   40 1  
    44   22   41 1  
    45   30   42 1  
    46   31   43 1  
@<TRIPOS>SUBSTRUCTURE
     1 1D5         1

