### 
### Created by X-TOOL on Mon Sep 10 21:13:18 2018
### 

@<TRIPOS>MOLECULE
4ibi_ligand
   52    56     1     0     0
SMALL
GAST_HUCK


@<TRIPOS>ATOM
      1 FAF         9.3250   20.1190    5.1000 F         1 1D8        -0.2197
      2 CBL         8.8610   20.1290    3.8550 C.3       1 1D8         0.3783
      3 FAG         9.4510   19.1550    3.1910 F         1 1D8        -0.2197
      4 FAH         9.1820   21.2470    3.2490 F         1 1D8        -0.2197
      5 CBH         7.3810   19.9500    3.8140 C.ar      1 1D8         0.0539
      6 CAR         6.6080   20.6180    2.8640 C.ar      1 1D8        -0.0133
      7 CAO         6.7710   19.0910    4.7170 C.ar      1 1D8        -0.0278
      8 CAK         5.3980   18.9110    4.6930 C.ar      1 1D8        -0.0274
      9 CAM         4.6230   19.5670    3.7490 C.ar      1 1D8        -0.0167
     10 CBD         5.2280   20.4240    2.8330 C.ar      1 1D8         0.0593
     11 CAX         4.4020   21.1350    1.8250 C.2       1 1D8         0.1576
     12 OAB         4.7150   22.2800    1.5190 O.2       1 1D8        -0.3804
     13 CBA         3.1910   20.5410    1.1950 C.2       1 1D8         0.0890
     14 CAY         2.9000   19.1920    0.9660 C.2       1 1D8         0.1857
     15 OAE         3.6040   18.0450    1.3060 O.3       1 1D8        -0.3224
     16 CAZ         1.7150   19.1760    0.2540 C.2       1 1D8         0.2697
     17 OAC         1.1080   18.0140   -0.1920 O.2       1 1D8        -0.3693
     18 NBK         1.3000   20.4290    0.0630 N.am      1 1D8        -0.1948
     19 CBF         0.1810   20.7680   -0.7610 C.ar      1 1D8         0.0763
     20 CAQ        -1.0390   20.1320   -0.5520 C.ar      1 1D8        -0.0266
     21 CBC        -2.1330   20.4360   -1.3440 C.ar      1 1D8        -0.0033
     22 CAW        -3.4330   19.7490   -1.1010 C.2       1 1D8         0.0594
     23 OAD        -3.5290   18.8920   -0.1820 O.co2     1 1D8        -0.5608
     24 OAA        -4.4320   20.0110   -1.8140 O.co2     1 1D8        -0.5608
     25 CAL        -2.0050   21.3820   -2.3490 C.ar      1 1D8        -0.0630
     26 CAJ        -0.7890   22.0190   -2.5640 C.ar      1 1D8        -0.0719
     27 CAN         0.3050   21.7140   -1.7730 C.ar      1 1D8        -0.0381
     28 CBJ         2.1380   21.2890    0.6710 C.3       1 1D8         0.1273
     29 CBE         1.5650   22.2670    1.6340 C.ar      1 1D8        -0.0227
     30 CAS         0.9080   21.6900    2.7080 C.ar      1 1D8        -0.0351
     31 CBG         0.3380   22.4790    3.6990 C.ar      1 1D8         0.1181
     32 OAU        -0.3730   22.1860    4.8510 O.3       1 1D8        -0.2926
     33 CAT        -0.4840   23.3600    5.5830 C.3       1 1D8         0.1856
     34 OAV        -0.2040   24.3730    4.6770 O.3       1 1D8        -0.2945
     35 CBI         0.4280   23.8150    3.5890 C.ar      1 1D8         0.1305
     36 CBB         1.1070   24.3690    2.5090 C.ar      1 1D8         0.0539
     37 CLA         1.1890   26.0580    2.4330 Cl        1 1D8        -0.0838
     38 CAP         1.6870   23.6330    1.5080 C.ar      1 1D8        -0.0619
     39 H1          7.0792   21.2860    2.1520 H         1 1D8         0.0910
     40 H2          7.3721   18.5582    5.4449 H         1 1D8         0.0883
     41 H3          4.9272   18.2542    5.4156 H         1 1D8         0.0708
     42 H4          3.5502   19.4134    3.7240 H         1 1D8         0.0901
     43 H5          4.4617   18.0687    0.8982 H         1 1D8         0.2511
     44 H6         -1.1333   19.3937    0.2361 H         1 1D8         0.0536
     45 H7         -2.8586   21.6263   -2.9709 H         1 1D8         0.0521
     46 H8         -0.6970   22.7565   -3.3531 H         1 1D8         0.0584
     47 H9          1.2540   22.2101   -1.9414 H         1 1D8         0.0524
     48 H10         2.5619   21.9095   -0.1323 H         1 1D8         0.0895
     49 H11         0.8378   20.6104    2.7760 H         1 1D8         0.0456
     50 H12         0.2403   23.3700    6.4108 H         1 1D8         0.0971
     51 H13        -1.5019   23.4708    5.9850 H         1 1D8         0.0971
     52 H14         2.2055   24.0943    0.6753 H         1 1D8         0.0445
@<TRIPOS>BOND
     1    1    2 1  
     2    2    3 1  
     3    2    4 1  
     4    2    5 1  
     5    5    6 ar 
     6    5    7 ar 
     7    6   10 ar 
     8    7    8 ar 
     9    8    9 ar 
    10    9   10 ar 
    11   10   11 1  
    12   11   12 2  
    13   11   13 1  
    14   13   14 2  
    15   13   28 1  
    16   14   15 1  
    17   14   16 1  
    18   16   17 2  
    19   16   18 am 
    20   18   19 1  
    21   18   28 1  
    22   19   20 ar 
    23   19   27 ar 
    24   20   21 ar 
    25   21   22 1  
    26   21   25 ar 
    27   22   23 ar 
    28   22   24 ar 
    29   25   26 ar 
    30   26   27 ar 
    31   28   29 1  
    32   29   30 ar 
    33   29   38 ar 
    34   30   31 ar 
    35   31   32 1  
    36   31   35 ar 
    37   32   33 1  
    38   33   34 1  
    39   34   35 1  
    40   35   36 ar 
    41   36   37 1  
    42   36   38 ar 
    43    6   39 1  
    44    7   40 1  
    45    8   41 1  
    46    9   42 1  
    47   15   43 1  
    48   20   44 1  
    49   25   45 1  
    50   26   46 1  
    51   27   47 1  
    52   28   48 1  
    53   30   49 1  
    54   33   50 1  
    55   33   51 1  
    56   38   52 1  
@<TRIPOS>SUBSTRUCTURE
     1 1D8         1

