### 
### Created by X-TOOL on Mon Sep 10 21:13:18 2018
### 

@<TRIPOS>MOLECULE
4ibj_ligand
   52    55     1     0     0
SMALL
GAST_HUCK


@<TRIPOS>ATOM
      1 FAI        -0.3230   21.4850    4.9720 F         1 1D9        -0.2203
      2 CBL        -0.3360   22.8110    4.8800 C.3       1 1D9         0.3751
      3 FAJ         0.2120   23.3210    5.9790 F         1 1D9        -0.2203
      4 FAK        -1.5910   23.2230    4.7790 F         1 1D9        -0.2203
      5 CBH         0.3940   23.2350    3.6450 C.ar      1 1D9         0.0412
      6 CAW         0.8510   22.2710    2.7640 C.ar      1 1D9        -0.0265
      7 CAT         0.6070   24.5780    3.3620 C.ar      1 1D9        -0.0376
      8 CAN         1.2780   24.9540    2.2050 C.ar      1 1D9        -0.0375
      9 CAQ         1.7350   23.9780    1.3290 C.ar      1 1D9        -0.0273
     10 CBE         1.5080   22.6330    1.6010 C.ar      1 1D9         0.0254
     11 CBI         2.0060   21.5510    0.6950 C.3       1 1D9         0.1405
     12 NBJ         1.2010   20.7450   -0.0400 N.am      1 1D9        -0.1924
     13 CBF         0.1910   21.1080   -1.0070 C.ar      1 1D9         0.0765
     14 CAU        -1.0530   20.4940   -0.9440 C.ar      1 1D9        -0.0266
     15 CBC        -2.0450   20.7930   -1.8700 C.ar      1 1D9        -0.0033
     16 CAX        -3.3740   20.1190   -1.7710 C.2       1 1D9         0.0594
     17 OAD        -4.2850   20.3730   -2.6050 O.co2     1 1D9        -0.5608
     18 OAA        -3.5850   19.2880   -0.8480 O.co2     1 1D9        -0.5608
     19 CAO        -1.7880   21.7160   -2.8760 C.ar      1 1D9        -0.0630
     20 CAL        -0.5450   22.3290   -2.9470 C.ar      1 1D9        -0.0719
     21 CAR         0.4450   22.0240   -2.0190 C.ar      1 1D9        -0.0381
     22 CBA         1.7120   19.5080   -0.0410 C.2       1 1D9         0.2701
     23 OAC         1.1560   18.4210   -0.6740 O.2       1 1D9        -0.3692
     24 CAZ         2.8880   19.5030    0.6860 C.2       1 1D9         0.1862
     25 OAE         3.7110   18.4190    0.8980 O.3       1 1D9        -0.3222
     26 CBB         3.1070   20.8050    1.1400 C.2       1 1D9         0.0914
     27 CAY         4.4750   21.3650    1.3680 C.2       1 1D9         0.1578
     28 OAB         4.3960   22.7210    1.5670 O.2       1 1D9        -0.3804
     29 CBD         5.1700   20.7510    2.5410 C.ar      1 1D9         0.0593
     30 CAV         6.5500   20.8910    2.6320 C.ar      1 1D9        -0.0133
     31 CBG         7.2540   20.3530    3.6960 C.ar      1 1D9         0.0539
     32 CBK         8.7350   20.5240    3.7480 C.3       1 1D9         0.3783
     33 FAG         9.0430   21.7240    3.2670 F         1 1D9        -0.2197
     34 FAH         9.1760   20.4100    4.9980 F         1 1D9        -0.2197
     35 FAF         9.3030   19.5890    2.9960 F         1 1D9        -0.2197
     36 CAS         6.5680   19.6630    4.6860 C.ar      1 1D9        -0.0278
     37 CAM         5.1880   19.5150    4.6100 C.ar      1 1D9        -0.0274
     38 CAP         4.4850   20.0600    3.5380 C.ar      1 1D9        -0.0167
     39 H1          0.6929   21.2220    2.9869 H         1 1D9         0.0784
     40 H2          0.2477   25.3369    4.0476 H         1 1D9         0.0803
     41 H3          1.4438   26.0029    1.9873 H         1 1D9         0.0683
     42 H4          2.2700   24.2652    0.4310 H         1 1D9         0.0807
     43 H5          2.4511   22.1731   -0.0955 H         1 1D9         0.0922
     44 H6         -1.2530   19.7712   -0.1613 H         1 1D9         0.0536
     45 H7         -2.5555   21.9565   -3.6028 H         1 1D9         0.0521
     46 H8         -0.3444   23.0503   -3.7309 H         1 1D9         0.0584
     47 H9          1.4157   22.5018   -2.0859 H         1 1D9         0.0524
     48 H10         4.4520   18.6846    1.4299 H         1 1D9         0.2512
     49 H11         7.0836   21.4300    1.8575 H         1 1D9         0.0910
     50 H12         7.1110   19.2376    5.5222 H         1 1D9         0.0883
     51 H13         4.6581   18.9747    5.3861 H         1 1D9         0.0708
     52 H14         3.4085   19.9468    3.4798 H         1 1D9         0.0901
@<TRIPOS>BOND
     1    1    2 1  
     2    2    3 1  
     3    2    4 1  
     4    2    5 1  
     5    5    6 ar 
     6    5    7 ar 
     7    6   10 ar 
     8    7    8 ar 
     9    8    9 ar 
    10    9   10 ar 
    11   10   11 1  
    12   11   12 1  
    13   11   26 1  
    14   12   13 1  
    15   12   22 am 
    16   13   14 ar 
    17   13   21 ar 
    18   14   15 ar 
    19   15   16 1  
    20   15   19 ar 
    21   16   17 ar 
    22   16   18 ar 
    23   19   20 ar 
    24   20   21 ar 
    25   22   23 2  
    26   22   24 1  
    27   24   25 1  
    28   24   26 2  
    29   26   27 1  
    30   27   28 2  
    31   27   29 1  
    32   29   30 ar 
    33   29   38 ar 
    34   30   31 ar 
    35   31   32 1  
    36   31   36 ar 
    37   32   33 1  
    38   32   34 1  
    39   32   35 1  
    40   36   37 ar 
    41   37   38 ar 
    42    6   39 1  
    43    7   40 1  
    44    8   41 1  
    45    9   42 1  
    46   11   43 1  
    47   14   44 1  
    48   19   45 1  
    49   20   46 1  
    50   21   47 1  
    51   25   48 1  
    52   30   49 1  
    53   36   50 1  
    54   37   51 1  
    55   38   52 1  
@<TRIPOS>SUBSTRUCTURE
     1 1D9         1

