### 
### Created by X-TOOL on Mon Sep 10 21:13:13 2018
### 

@<TRIPOS>MOLECULE
4ibm_ligand
   35    39     1     0     0
SMALL
GAST_HUCK


@<TRIPOS>ATOM
      1 O28         2.7030  -12.8020    9.7470 O.2       1 IR1        -0.3178
      2 C27         2.0280  -12.4600    8.5030 C.2       1 IR1         0.2900
      3 N26         0.8790  -13.0400    8.1270 N.2       1 IR1        -0.0888
      4 N25         0.5590  -12.4610    6.8800 N.2       1 IR1        -0.1106
      5 C15         1.4590  -11.5290    6.5130 C.ar      1 IR1         0.1992
      6 N14         1.5750  -10.7400    5.4320 N.ar      1 IR1        -0.2237
      7 C16         2.5060  -11.4650    7.5420 C.ar      1 IR1         0.1319
      8 C17         3.5840  -10.6010    7.4530 C.ar      1 IR1         0.0082
      9 C18         3.6170   -9.8040    6.3070 C.ar      1 IR1         0.0391
     10 N13         2.6580   -9.8730    5.3510 N.ar      1 IR1        -0.2795
     11 C24         4.6890   -8.8180    6.0740 C.2       1 IR1         0.0395
     12 C12         4.9040   -8.0790    4.8150 C.2       1 IR1         0.1289
     13 C11         4.2830   -8.1330    3.5700 C.2       1 IR1        -0.0138
     14 C10         4.7700   -7.2940    2.5690 C.2       1 IR1        -0.0502
     15 C9          5.8620   -6.4670    2.8590 C.2       1 IR1        -0.0126
     16 C8          6.4500   -6.4860    4.1230 C.2       1 IR1         0.1085
     17 C23         5.7130   -8.2890    7.0190 C.2       1 IR1         0.0505
     18 N22         6.4590   -7.3740    6.3540 N.2       1 IR1        -0.1911
     19 N7          5.9450   -7.3030    5.0660 N.pl3     1 IR1        -0.1408
     20 C6          5.9510   -8.6370    8.4380 C.ar      1 IR1        -0.0095
     21 C1          7.0540   -9.4080    8.7830 C.ar      1 IR1        -0.0526
     22 C5          5.0840   -8.1280    9.4020 C.ar      1 IR1        -0.0526
     23 C4          5.3080   -8.4250   10.7470 C.ar      1 IR1        -0.0604
     24 C3          6.4310   -9.1960   11.1030 C.ar      1 IR1        -0.0610
     25 C2          7.2900   -9.6890   10.1280 C.ar      1 IR1        -0.0604
     26 H1          4.3488  -10.5470    8.2193 H         1 IR1         0.0936
     27 H2          3.4472   -8.8062    3.3850 H         1 IR1         0.0635
     28 H3          4.3106   -7.2820    1.5817 H         1 IR1         0.0701
     29 H4          6.2554   -5.8032    2.0906 H         1 IR1         0.0611
     30 H5          7.3053   -5.8492    4.3441 H         1 IR1         0.1291
     31 H6          7.7217   -9.7858    8.0172 H         1 IR1         0.0630
     32 H7          4.2441   -7.5077    9.1105 H         1 IR1         0.0630
     33 H8          4.6253   -8.0663   11.5088 H         1 IR1         0.0620
     34 H9          6.6276   -9.4072   12.1479 H         1 IR1         0.0623
     35 H10         8.1441  -10.2924   10.4135 H         1 IR1         0.0620
@<TRIPOS>BOND
     1    1    2 2  
     2    2    3 1  
     3    2    7 1  
     4    3    4 2  
     5    4    5 1  
     6    5    6 ar 
     7    5    7 ar 
     8    6   10 ar 
     9    7    8 ar 
    10    8    9 ar 
    11    9   10 ar 
    12    9   11 1  
    13   11   12 2  
    14   11   17 1  
    15   12   13 1  
    16   12   19 1  
    17   13   14 2  
    18   14   15 1  
    19   15   16 2  
    20   16   19 1  
    21   17   18 2  
    22   17   20 1  
    23   18   19 1  
    24   20   21 ar 
    25   20   22 ar 
    26   21   25 ar 
    27   22   23 ar 
    28   23   24 ar 
    29   24   25 ar 
    30    8   26 1  
    31   13   27 1  
    32   14   28 1  
    33   15   29 1  
    34   16   30 1  
    35   21   31 1  
    36   22   32 1  
    37   23   33 1  
    38   24   34 1  
    39   25   35 1  
@<TRIPOS>SUBSTRUCTURE
     1 IR1         1

