### 
### Created by X-TOOL on Mon Sep 10 21:13:14 2018
### 

@<TRIPOS>MOLECULE
4idt_ligand
   33    36     1     0     0
SMALL
GAST_HUCK


@<TRIPOS>ATOM
      1 BR1        95.0560   51.1900  118.5230 Br        1 T28        -0.0610
      2 C12        96.0790   50.1640  119.7540 C.ar      1 T28        -0.0062
      3 C6         96.3100   48.8030  119.5650 C.ar      1 T28        -0.0662
      4 C2         97.0740   48.1000  120.5040 C.ar      1 T28        -0.0156
      5 C5         97.6000   48.7420  121.6140 C.ar      1 T28         0.0690
      6 C11        97.3710   50.0990  121.7990 C.ar      1 T28        -0.0422
      7 C17        96.6150   50.8040  120.8700 C.ar      1 T28        -0.0688
      8 C1         97.4430   46.7550  120.5690 C.2       1 T28         0.0100
      9 C4         98.1990   46.6250  121.7280 C.2       1 T28         0.0718
     10 N9         98.2820   47.8300  122.3370 N.pl3     1 T28        -0.2594
     11 C3         97.0970   45.7240  119.5400 C.ar      1 T28         0.0250
     12 N8         96.1940   46.1180  118.6170 N.ar      1 T28        -0.2786
     13 C15        95.7970   45.3250  117.6090 C.ar      1 T28         0.1644
     14 N20        94.8800   45.7770  116.7260 N.pl3     1 T28        -0.3094
     15 N19        96.3090   44.0880  117.4840 N.ar      1 T28        -0.2788
     16 C13        97.2120   43.6490  118.3640 C.ar      1 T28         0.0012
     17 C7         97.6500   44.4490  119.4150 C.ar      1 T28        -0.0131
     18 C14        98.6740   43.8010  120.3310 C.3       1 T28        -0.0157
     19 C16        99.5730   44.7750  121.0550 C.3       1 T28        -0.0280
     20 C10        98.8450   45.3660  122.2370 C.3       1 T28         0.0177
     21 H1         95.9021   48.2936  118.6994 H         1 T28         0.0554
     22 H2         97.7804   50.6067  122.6649 H         1 T28         0.0546
     23 H3         96.4402   51.8639  121.0151 H         1 T28         0.0537
     24 H4         98.7864   48.0210  123.2145 H         1 T28         0.2327
     25 H5         94.4915   46.7256  116.8271 H         1 T28         0.1803
     26 H6         94.5693   45.1731  115.9516 H         1 T28         0.1803
     27 H7         97.6127   42.6474  118.2574 H         1 T28         0.0778
     28 H8         99.3062   43.1365  119.7237 H         1 T28         0.0415
     29 H9         98.1345   43.2071  121.0835 H         1 T28         0.0415
     30 H10        99.8659   45.5816  120.3668 H         1 T28         0.0317
     31 H11       100.4725   44.2486  121.4069 H         1 T28         0.0317
     32 H12        98.0817   44.6656  122.6068 H         1 T28         0.0515
     33 H13        99.5527   45.5981  123.0465 H         1 T28         0.0515
@<TRIPOS>BOND
     1    1    2 1  
     2    2    3 ar 
     3    2    7 ar 
     4    3    4 ar 
     5    4    5 ar 
     6    4    8 1  
     7    5    6 ar 
     8    5   10 1  
     9    6    7 ar 
    10    8    9 2  
    11    8   11 1  
    12    9   10 1  
    13    9   20 1  
    14   11   12 ar 
    15   11   17 ar 
    16   12   13 ar 
    17   13   14 1  
    18   13   15 ar 
    19   15   16 ar 
    20   16   17 ar 
    21   17   18 1  
    22   18   19 1  
    23   19   20 1  
    24    3   21 1  
    25    6   22 1  
    26    7   23 1  
    27   10   24 1  
    28   14   25 1  
    29   14   26 1  
    30   16   27 1  
    31   18   28 1  
    32   18   29 1  
    33   19   30 1  
    34   19   31 1  
    35   20   32 1  
    36   20   33 1  
@<TRIPOS>SUBSTRUCTURE
     1 T28         1

