### 
### Created by X-TOOL on Mon Sep 10 21:13:15 2018
### 

@<TRIPOS>MOLECULE
4idv_ligand
   49    51     1     0     0
SMALL
GAST_HUCK


@<TRIPOS>ATOM
      1 N3         19.5890   10.9270   88.6120 N.pl3     1 13V        -0.3108
      2 C15        19.7440   12.1660   88.1280 C.ar      1 13V         0.1649
      3 N2         18.6350   12.8400   87.8910 N.ar      1 13V        -0.2745
      4 N4         20.9710   12.5790   87.9580 N.ar      1 13V        -0.2767
      5 C16        21.1440   13.8250   87.4710 C.ar      1 13V         0.0328
      6 C17        20.0640   14.6500   87.1370 C.ar      1 13V         0.1259
      7 O2         20.1930   15.9660   86.6530 O.3       1 13V        -0.3133
      8 C18        21.1930   16.5670   85.8670 C.3       1 13V         0.0931
      9 C19        20.7460   17.9990   85.4810 C.3       1 13V         0.0749
     10 O3         19.8450   18.1280   84.3770 O.3       1 13V        -0.3803
     11 C20        18.8890   19.1670   84.3330 C.3       1 13V         0.0366
     12 C14        18.7510   14.1000   87.3960 C.ar      1 13V         0.0615
     13 C11        17.4830   14.8770   87.0480 C.2       1 13V         0.0086
     14 C10        17.4360   16.1270   86.4700 C.2       1 13V         0.0458
     15 N1         16.1650   16.4690   86.2600 N.pl3     1 13V        -0.2693
     16 C12        16.1520   14.4570   87.1460 C.ar      1 13V        -0.0096
     17 C9         15.3260   15.4890   86.6500 C.ar      1 13V         0.0709
     18 C8         13.9440   15.4360   86.6140 C.ar      1 13V        -0.0393
     19 C7         13.3290   14.3050   87.0880 C.ar      1 13V        -0.0589
     20 C13        15.4880   13.3350   87.6150 C.ar      1 13V        -0.0560
     21 C6         14.0940   13.2790   87.5980 C.ar      1 13V         0.0097
     22 C5         13.5040   12.1150   88.0770 C.1       1 13V        -0.0728
     23 C4         12.9780   11.0900   88.4670 C.1       1 13V        -0.0681
     24 C1         12.3450    9.8140   88.9100 C.3       1 13V         0.1195
     25 C3         12.2530    9.8640   90.3890 C.3       1 13V        -0.0253
     26 C2         13.1870    8.6670   88.4140 C.3       1 13V        -0.0253
     27 O1         11.0750    9.7010   88.3860 O.3       1 13V        -0.3774
     28 H1         18.6434   10.5489   88.7663 H         1 13V         0.1790
     29 H2         20.4154   10.3521   88.8299 H         1 13V         0.1790
     30 H3         22.1520   14.1993   87.3339 H         1 13V         0.0775
     31 H4         21.3509   15.9726   84.9550 H         1 13V         0.0635
     32 H5         22.1309   16.6163   86.4396 H         1 13V         0.0635
     33 H6         21.6516   18.5740   85.2378 H         1 13V         0.0586
     34 H7         20.2562   18.4412   86.3611 H         1 13V         0.0586
     35 H8         18.3016   19.0857   83.4065 H         1 13V         0.0524
     36 H9         19.4028   20.1393   84.3572 H         1 13V         0.0524
     37 H10        18.2181   19.0850   85.2009 H         1 13V         0.0524
     38 H11        18.3019   16.7396   86.2234 H         1 13V         0.1059
     39 H12        15.8632   17.3656   85.8527 H         1 13V         0.2328
     40 H13        13.3640   16.2640   86.2227 H         1 13V         0.0554
     41 H14        12.2487   14.2192   87.0614 H         1 13V         0.0552
     42 H15        16.0557   12.4946   87.9979 H         1 13V         0.0562
     43 H16        11.7896    8.9375   90.7590 H         1 13V         0.0266
     44 H17        11.6394   10.7261   90.6893 H         1 13V         0.0266
     45 H18        13.2617    9.9653   90.8159 H         1 13V         0.0266
     46 H19        13.2172    8.6830   87.3145 H         1 13V         0.0266
     47 H20        12.7499    7.7169   88.7550 H         1 13V         0.0266
     48 H21        14.2085    8.7638   88.8103 H         1 13V         0.0266
     49 H22        10.5565   10.4519   88.6505 H         1 13V         0.2113
@<TRIPOS>BOND
     1    1    2 1  
     2    2    3 ar 
     3    2    4 ar 
     4    3   12 ar 
     5    4    5 ar 
     6    5    6 ar 
     7    6    7 1  
     8    6   12 ar 
     9    7    8 1  
    10    8    9 1  
    11    9   10 1  
    12   10   11 1  
    13   12   13 1  
    14   13   14 2  
    15   13   16 1  
    16   14   15 1  
    17   15   17 1  
    18   16   17 ar 
    19   16   20 ar 
    20   17   18 ar 
    21   18   19 ar 
    22   19   21 ar 
    23   20   21 ar 
    24   21   22 1  
    25   22   23 3  
    26   23   24 1  
    27   24   25 1  
    28   24   26 1  
    29   24   27 1  
    30    1   28 1  
    31    1   29 1  
    32    5   30 1  
    33    8   31 1  
    34    8   32 1  
    35    9   33 1  
    36    9   34 1  
    37   11   35 1  
    38   11   36 1  
    39   11   37 1  
    40   14   38 1  
    41   15   39 1  
    42   18   40 1  
    43   19   41 1  
    44   20   42 1  
    45   25   43 1  
    46   25   44 1  
    47   25   45 1  
    48   26   46 1  
    49   26   47 1  
    50   26   48 1  
    51   27   49 1  
@<TRIPOS>SUBSTRUCTURE
     1 13V         1

