### 
### Created by X-TOOL on Mon Sep 10 21:13:14 2018
### 

@<TRIPOS>MOLECULE
4idz_ligand
   13    12     1     0     0
SMALL
GAST_HUCK


@<TRIPOS>ATOM
      1 C1         30.2850   -7.7200  -24.0200 C.2       1 OGA         0.1433
      2 C2         31.2630   -6.9030  -23.2710 C.2       1 OGA         0.2452
      3 C4         32.9340   -6.7150  -21.4960 C.3       1 OGA         0.0841
      4 C5         33.9060   -7.5900  -20.7800 C.2       1 OGA         0.0572
      5 O1         30.4350   -8.9750  -24.1000 O.co2     1 OGA        -0.5457
      6 O2         29.3010   -7.0940  -24.5250 O.co2     1 OGA        -0.5457
      7 O2'        31.3590   -5.7150  -23.5350 O.2       1 OGA        -0.3655
      8 O3         34.5180   -7.1380  -19.7770 O.co2     1 OGA        -0.5669
      9 N1         32.0210   -7.5100  -22.2380 N.am      1 OGA        -0.2659
     10 O4         34.1050   -8.7840  -21.1660 O.co2     1 OGA        -0.5669
     11 H1         33.4790   -6.0499  -22.1820 H         1 OGA         0.0691
     12 H2         32.3790   -6.1109  -20.7632 H         1 OGA         0.0691
     13 H3         31.9143   -8.4834  -22.0350 H         1 OGA         0.1886
@<TRIPOS>BOND
     1    2    1 1  
     2    1    5 ar 
     3    1    6 ar 
     4    2    7 2  
     5    9    2 am 
     6    3    4 1  
     7    3    9 1  
     8    4    8 ar 
     9    4   10 ar 
    10    3   11 1  
    11    3   12 1  
    12    9   13 1  
@<TRIPOS>SUBSTRUCTURE
     1 OGA         1

