### 
### Created by X-TOOL on Mon Sep 10 21:13:13 2018
### 

@<TRIPOS>MOLECULE
4ie0_ligand
   15    15     1     0     0
SMALL
GAST_HUCK


@<TRIPOS>ATOM
      1 O42        34.8170   -8.5910  -21.8080 O.co2     1 PD2        -0.5574
      2 C41        34.2170   -7.6060  -21.3050 C.2       1 PD2         0.0728
      3 O41        34.6220   -7.1570  -20.1920 O.co2     1 PD2        -0.5574
      4 C4         33.0400   -6.9910  -22.0030 C.ar      1 PD2         0.0333
      5 C5         32.5530   -5.8030  -21.4930 C.ar      1 PD2        -0.0173
      6 C6         31.4750   -5.1720  -22.0900 C.ar      1 PD2         0.0184
      7 C3         32.4210   -7.5540  -23.1100 C.ar      1 PD2        -0.0054
      8 C2         31.3330   -6.8610  -23.6560 C.ar      1 PD2         0.0862
      9 N1         30.8820   -5.7010  -23.1520 N.ar      1 PD2        -0.2790
     10 C21        30.5980   -7.4160  -24.8200 C.2       1 PD2         0.0817
     11 O21        29.5540   -6.8390  -25.2470 O.co2     1 PD2        -0.5572
     12 O22        31.0090   -8.4860  -25.3360 O.co2     1 PD2        -0.5572
     13 H1         33.0183   -5.3617  -20.6190 H         1 PD2         0.0763
     14 H2         31.1113   -4.2347  -21.6848 H         1 PD2         0.0842
     15 H3         32.7648   -8.4904  -23.5342 H         1 PD2         0.0779
@<TRIPOS>BOND
     1    1    2 ar 
     2    2    3 ar 
     3    2    4 1  
     4    4    5 ar 
     5    4    7 ar 
     6    5    6 ar 
     7    6    9 ar 
     8    7    8 ar 
     9    8    9 ar 
    10    8   10 1  
    11   10   11 ar 
    12   10   12 ar 
    13    5   13 1  
    14    6   14 1  
    15    7   15 1  
@<TRIPOS>SUBSTRUCTURE
     1 PD2         1

