### 
### Created by X-TOOL on Mon Sep 10 21:13:15 2018
### 

@<TRIPOS>MOLECULE
4ie4_ligand
   20    21     1     0     0
SMALL
GAST_HUCK


@<TRIPOS>ATOM
      1 OAA        34.1790   -7.5540  -20.4720 O.co2     1 8XQ        -0.5646
      2 OAB        34.7780   -9.2000  -21.7610 O.co2     1 8XQ        -0.5646
      3 OAC        30.1550   -6.7170  -25.3910 O.3       1 8XQ        -0.3235
      4 CAD        31.1430   -5.0230  -20.8950 C.ar      1 8XQ        -0.0338
      5 CAE        30.2220   -4.7290  -21.9100 C.ar      1 8XQ         0.0097
      6 CAF        32.0030   -8.1270  -24.6980 C.ar      1 8XQ        -0.0238
      7 CAG        32.9470   -8.4910  -23.7390 C.ar      1 8XQ        -0.0544
      8 CAH        32.0750   -6.0430  -21.0720 C.ar      1 8XQ        -0.0374
      9 NAI        30.2510   -5.4320  -23.0500 N.ar      1 8XQ        -0.2924
     10 CAJ        34.0280   -8.2100  -21.5350 C.2       1 8XQ         0.0549
     11 CAK        31.1100   -7.0960  -24.4510 C.ar      1 8XQ         0.1199
     12 CAL        33.0000   -7.8130  -22.5340 C.ar      1 8XQ         0.0104
     13 CAM        32.0880   -6.7680  -22.2860 C.ar      1 8XQ         0.0123
     14 CAN        31.1610   -6.4220  -23.2380 C.ar      1 8XQ         0.0864
     15 H1         29.6388   -5.9986  -25.0445 H         1 8XQ         0.2534
     16 H2         31.1299   -4.4559  -19.9712 H         1 8XQ         0.0696
     17 H3         29.4922   -3.9392  -21.7736 H         1 8XQ         0.0840
     18 H4         31.9670   -8.6544  -25.6444 H         1 8XQ         0.0544
     19 H5         33.6375   -9.3029  -23.9367 H         1 8XQ         0.0649
     20 H6         32.7837   -6.2788  -20.2864 H         1 8XQ         0.0747
@<TRIPOS>BOND
     1   10    1 ar 
     2   10    2 ar 
     3   11    3 1  
     4    5    4 ar 
     5    4    8 ar 
     6    9    5 ar 
     7    6    7 ar 
     8   11    6 ar 
     9    7   12 ar 
    10    8   13 ar 
    11   14    9 ar 
    12   12   10 1  
    13   11   14 ar 
    14   12   13 ar 
    15   13   14 ar 
    16    3   15 1  
    17    4   16 1  
    18    5   17 1  
    19    6   18 1  
    20    7   19 1  
    21    8   20 1  
@<TRIPOS>SUBSTRUCTURE
     1 8XQ         1

