### 
### Created by X-TOOL on Mon Sep 10 21:13:13 2018
### 

@<TRIPOS>MOLECULE
4ie5_ligand
   21    21     1     0     0
SMALL
GAST_HUCK


@<TRIPOS>ATOM
      1 C          33.9430   -7.3290  -21.1750 C.2       1 MD6         0.0570
      2 N          32.1530   -7.2140  -22.8350 N.am      1 MD6        -0.2732
      3 O          34.1240   -8.5670  -21.5990 O.co2     1 MD6        -0.5669
      4 CA         32.9310   -6.4560  -21.8710 C.3       1 MD6         0.0827
      5 N2         29.3250   -6.5040  -24.9400 N.ar      1 MD6        -0.2870
      6 OXT        34.6190   -6.8990  -20.2440 O.co2     1 MD6        -0.5669
      7 C3         31.3560   -6.5540  -23.6380 C.2       1 MD6         0.2196
      8 O3         31.3330   -5.3350  -23.6750 O.2       1 MD6        -0.3851
      9 C4         30.3330   -7.2710  -24.4800 C.ar      1 MD6         0.1508
     10 O4         31.3670   -9.4120  -24.3130 O.3       1 MD6        -0.3198
     11 C5         28.3460   -6.9960  -25.7140 C.ar      1 MD6         0.0055
     12 C6         28.3550   -8.3500  -26.0400 C.ar      1 MD6        -0.0382
     13 C7         29.3700   -9.1870  -25.5750 C.ar      1 MD6        -0.0072
     14 C8         30.3730   -8.6230  -24.7680 C.ar      1 MD6         0.1372
     15 H1         32.2237   -8.2103  -22.8843 H         1 MD6         0.1864
     16 H2         33.4577   -5.6446  -22.3946 H         1 MD6         0.0689
     17 H3         32.2512   -6.0272  -21.1201 H         1 MD6         0.0689
     18 H4         31.2245  -10.3027  -24.6111 H         1 MD6         0.2535
     19 H5         27.5582   -6.3481  -26.0809 H         1 MD6         0.0748
     20 H6         27.5657   -8.7577  -26.6611 H         1 MD6         0.0713
     21 H7         29.3845  -10.2408  -25.8286 H         1 MD6         0.0676
@<TRIPOS>BOND
     1    1    3 ar 
     2    4    1 1  
     3    1    6 ar 
     4    2    4 1  
     5    7    2 am 
     6    9    5 ar 
     7    5   11 ar 
     8    7    8 2  
     9    7    9 1  
    10    9   14 ar 
    11   14   10 1  
    12   11   12 ar 
    13   12   13 ar 
    14   13   14 ar 
    15    2   15 1  
    16    4   16 1  
    17    4   17 1  
    18   10   18 1  
    19   11   19 1  
    20   12   20 1  
    21   13   21 1  
@<TRIPOS>SUBSTRUCTURE
     1 MD6         1

