### 
### Created by X-TOOL on Mon Sep 10 21:13:13 2018
### 

@<TRIPOS>MOLECULE
4ie6_ligand
   27    28     1     0     0
SMALL
GAST_HUCK


@<TRIPOS>ATOM
      1 O18        34.0630   -8.9380  -22.0890 O.co2     1 UN9        -0.5669
      2 C16        33.7560   -7.8190  -21.6960 C.2       1 UN9         0.0569
      3 O17        34.4600   -7.2550  -20.7290 O.co2     1 UN9        -0.5669
      4 C15        32.5890   -7.0950  -22.2750 C.3       1 UN9         0.0825
      5 N14        31.8960   -7.8440  -23.3070 N.am      1 UN9        -0.2751
      6 C12        31.1470   -7.0600  -24.0530 C.2       1 UN9         0.2102
      7 O13        31.1180   -5.8770  -23.7740 O.2       1 UN9        -0.3909
      8 C9         30.4040   -7.3820  -25.3000 C.ar      1 UN9         0.1403
      9 N8         29.0930   -7.0690  -25.4090 N.ar      1 UN9        -0.2813
     10 C7         28.4240   -7.2760  -26.5660 C.ar      1 UN9         0.1160
     11 CL1        26.6610   -6.9010  -26.6770 Cl        1 UN9        -0.0455
     12 C2         29.1070   -7.7890  -27.6620 C.ar      1 UN9         0.0220
     13 C10        31.1080   -7.8640  -26.3780 C.ar      1 UN9         0.1430
     14 O19        32.4290   -8.1580  -26.2700 O.3       1 UN9        -0.3160
     15 C3         30.4470   -8.0900  -27.5680 C.ar      1 UN9         0.0383
     16 C4         31.1410   -8.5960  -28.6510 C.ar      1 UN9        -0.0441
     17 C5         30.4930   -8.8230  -29.8450 C.ar      1 UN9        -0.0567
     18 C6         29.1520   -8.5260  -29.9430 C.ar      1 UN9        -0.0571
     19 C1         28.4580   -8.0150  -28.8560 C.ar      1 UN9        -0.0475
     20 H1         32.9468   -6.1507  -22.7112 H         1 UN9         0.0688
     21 H2         31.8771   -6.8782  -21.4650 H         1 UN9         0.0688
     22 H3         31.9774   -8.8324  -23.4353 H         1 UN9         0.1860
     23 H4         32.7507   -8.4764  -27.1052 H         1 UN9         0.2571
     24 H5         32.1988   -8.8149  -28.5603 H         1 UN9         0.0661
     25 H6         31.0303   -9.2291  -30.6944 H         1 UN9         0.0632
     26 H7         28.6330   -8.6933  -30.8798 H         1 UN9         0.0646
     27 H8         27.4009   -7.7927  -28.9464 H         1 UN9         0.0641
@<TRIPOS>BOND
     1    1    2 ar 
     2    2    3 ar 
     3    2    4 1  
     4    4    5 1  
     5    5    6 am 
     6    6    7 2  
     7    6    8 1  
     8    8    9 ar 
     9    8   13 ar 
    10    9   10 ar 
    11   10   11 1  
    12   10   12 ar 
    13   12   15 ar 
    14   12   19 ar 
    15   13   14 1  
    16   13   15 ar 
    17   15   16 ar 
    18   16   17 ar 
    19   17   18 ar 
    20   18   19 ar 
    21    4   20 1  
    22    4   21 1  
    23    5   22 1  
    24   14   23 1  
    25   16   24 1  
    26   17   25 1  
    27   18   26 1  
    28   19   27 1  
@<TRIPOS>SUBSTRUCTURE
     1 UN9         1

