### 
### Created by X-TOOL on Mon Sep 10 21:13:13 2018
### 

@<TRIPOS>MOLECULE
4ie7_ligand
   28    30     1     0     0
SMALL
GAST_HUCK


@<TRIPOS>ATOM
      1 OAA        31.5210   -4.6430  -34.4500 O.co2     1 RHN        -0.5596
      2 OAB        27.2180   -4.5290  -31.6920 O.2       1 RHN        -0.3616
      3 OAC        29.5590   -7.7620  -28.0240 O.2       1 RHN        -0.3744
      4 OAD        33.2850   -5.6660  -33.6590 O.co2     1 RHN        -0.5596
      5 OAE        27.6450   -7.8350  -26.6420 O.3       1 RHN        -0.3264
      6 OAF        31.6900   -7.7830  -29.3750 O.3       1 RHN        -0.3260
      7 CAG        25.0660   -5.8550  -28.2350 C.ar      1 RHN        -0.0602
      8 CAH        25.7000   -6.6630  -27.3170 C.ar      1 RHN        -0.0224
      9 CAI        25.7010   -5.4060  -29.3790 C.ar      1 RHN        -0.0491
     10 CAJ        31.7570   -6.5390  -31.3810 C.ar      1 RHN        -0.0087
     11 CAK        29.8540   -5.2870  -32.1730 C.ar      1 RHN        -0.0351
     12 CAL        32.0060   -5.3010  -33.5370 C.2       1 RHN         0.0641
     13 CAM        31.1790   -5.7090  -32.3380 C.ar      1 RHN         0.0117
     14 CAN        27.0000   -7.0440  -27.5470 C.ar      1 RHN         0.1125
     15 CAO        31.0560   -6.9570  -30.2620 C.ar      1 RHN         0.1156
     16 CAP        27.7440   -5.2800  -30.8350 C.2       1 RHN         0.1640
     17 CAQ        29.0360   -7.0090  -28.8880 C.2       1 RHN         0.1581
     18 CAR        27.0110   -5.7630  -29.6170 C.ar      1 RHN         0.0433
     19 CAS        29.1520   -5.7180  -31.0430 C.ar      1 RHN         0.0466
     20 CAT        27.6440   -6.5840  -28.6880 C.ar      1 RHN         0.0781
     21 CAU        29.7540   -6.5550  -30.0990 C.ar      1 RHN         0.0801
     22 H1         28.5285   -8.0067  -26.9461 H         1 RHN         0.2511
     23 H2         31.0999   -7.9909  -28.6601 H         1 RHN         0.2511
     24 H3         24.0379   -5.5620  -28.0554 H         1 RHN         0.0637
     25 H4         25.1803   -6.9938  -26.4251 H         1 RHN         0.0592
     26 H5         25.1711   -4.7766  -30.0848 H         1 RHN         0.0592
     27 H6         32.7817   -6.8663  -31.5152 H         1 RHN         0.0623
     28 H7         29.3830   -4.6407  -32.9048 H         1 RHN         0.0626
@<TRIPOS>BOND
     1   12    1 ar 
     2   16    2 2  
     3   17    3 2  
     4   12    4 ar 
     5   14    5 1  
     6   15    6 1  
     7    8    7 ar 
     8    7    9 ar 
     9   14    8 ar 
    10    9   18 ar 
    11   13   10 ar 
    12   10   15 ar 
    13   11   13 ar 
    14   19   11 ar 
    15   13   12 1  
    16   20   14 ar 
    17   15   21 ar 
    18   18   16 1  
    19   16   19 1  
    20   17   20 1  
    21   17   21 1  
    22   18   20 ar 
    23   19   21 ar 
    24    5   22 1  
    25    6   23 1  
    26    7   24 1  
    27    8   25 1  
    28    9   26 1  
    29   10   27 1  
    30   11   28 1  
@<TRIPOS>SUBSTRUCTURE
     1 RHN         1

