### 
### Created by X-TOOL on Mon Sep 10 21:13:13 2018
### 

@<TRIPOS>MOLECULE
4ieh_ligand
  105   111     1     0     0
SMALL
GAST_HUCK


@<TRIPOS>ATOM
      1 C1         18.5280   28.9190   14.8660 C.3       1 1E9         0.0111
      2 C2         18.1140   28.2640   13.5310 C.3       1 1E9         0.0528
      3 C3         19.8550   28.4210   15.4680 C.3       1 1E9        -0.0303
      4 C4         16.9500   29.0550   12.8750 C.3       1 1E9         0.0299
      5 S1         15.3120   29.0010   13.6980 S.3       1 1E9        -0.0994
      6 C5         14.5890   27.4470   13.3110 C.ar      1 1E9         0.0154
      7 N1         20.0670   29.0160   16.7910 N.4       1 1E9         0.2310
      8 C6         21.3510   28.5690   17.3210 C.3       1 1E9        -0.0433
      9 C7         20.0370   30.4790   16.7390 C.3       1 1E9        -0.0433
     10 C8         14.5270   26.4370   14.2880 C.ar      1 1E9        -0.0498
     11 C9         13.9430   25.1980   13.9580 C.ar      1 1E9        -0.0678
     12 C10        13.4170   24.9840   12.6670 C.ar      1 1E9        -0.0687
     13 C11        13.4830   26.0010   11.6930 C.ar      1 1E9        -0.0678
     14 C12        14.0670   27.2410   12.0170 C.ar      1 1E9        -0.0498
     15 N2         17.7730   26.8500   13.6910 N.pl3     1 1E9        -0.3121
     16 C13        17.7960   25.4680   10.2840 C.ar      1 1E9        -0.0407
     17 C14        17.4400   24.1380   10.5480 C.ar      1 1E9         0.1108
     18 C15        17.1880   23.6930   11.8530 C.ar      1 1E9        -0.0027
     19 C16        17.2840   24.5860   12.9420 C.ar      1 1E9         0.2184
     20 C17        17.6610   25.9390   12.6970 C.ar      1 1E9         0.0839
     21 C18        17.9070   26.3550   11.3620 C.ar      1 1E9        -0.0333
     22 S2         17.2720   22.9680    9.2190 S.o2      1 1E9         0.0931
     23 O1         17.5200   21.6180    9.7480 O.2       1 1E9        -0.1444
     24 O2         17.9560   23.4940    8.0190 O.2       1 1E9        -0.1444
     25 C19         2.9550   21.1080    8.6090 C.ar      1 1E9        -0.0678
     26 C20         3.0610   21.8890    9.7830 C.ar      1 1E9        -0.0599
     27 C21         3.7240   23.1410    9.7690 C.ar      1 1E9        -0.0101
     28 C22         4.2630   23.6220    8.5360 C.ar      1 1E9         0.0107
     29 C23         4.1670   22.8320    7.3620 C.ar      1 1E9        -0.0539
     30 C24         3.5150   21.5820    7.4000 C.ar      1 1E9        -0.0680
     31 C25         3.7490   23.8430   11.0710 C.ar      1 1E9        -0.0212
     32 C26         3.1430   25.1140   11.2380 C.ar      1 1E9        -0.0554
     33 C27         3.1390   25.7560   12.4980 C.ar      1 1E9        -0.0485
     34 C28         3.7350   25.1250   13.6070 C.ar      1 1E9         0.0394
     35 C29         4.3470   23.8610   13.4600 C.ar      1 1E9        -0.0485
     36 C30         4.3460   23.2190   12.1970 C.ar      1 1E9        -0.0554
     37 C31         5.0080   24.9530    8.4540 C.3       1 1E9         0.0035
     38 N3          6.4340   24.7110    8.1910 N.4       1 1E9         0.2504
     39 C32         7.0020   23.7500    9.1470 C.3       1 1E9        -0.0099
     40 C33         8.4300   23.3730    8.6670 C.3       1 1E9         0.0688
     41 N4          9.3110   24.5470    8.4850 N.pl3     1 1E9        -0.2938
     42 C34         8.6380   25.6170    7.7360 C.3       1 1E9         0.0688
     43 C35         7.2300   25.9460    8.2850 C.3       1 1E9        -0.0099
     44 C36        10.6590   24.4120    8.4790 C.ar      1 1E9         0.0514
     45 C37        11.5150   25.4910    8.1320 C.ar      1 1E9        -0.0094
     46 C38        12.6180   22.9400    8.8570 C.ar      1 1E9        -0.0492
     47 C39        11.2200   23.1470    8.8220 C.ar      1 1E9        -0.0347
     48 C40        13.4360   24.0290    8.5230 C.ar      1 1E9         0.0524
     49 C41        12.8970   25.2590    8.1780 C.ar      1 1E9         0.1071
     50 S3         14.2300   26.3450    7.8280 S.o2      1 1E9         0.0443
     51 N5         15.4070   25.2220    8.1490 N.2       1 1E9        -0.2383
     52 C42        14.9070   24.0790    8.4920 C.2       1 1E9         0.1433
     53 N6         15.6240   22.9350    8.8120 N.am      1 1E9        -0.1579
     54 O3         14.2530   26.6290    6.3790 O.2       1 1E9        -0.1612
     55 O4         14.2600   27.4690    8.7750 O.2       1 1E9        -0.1612
     56 CL1         3.7250   25.9000   15.1510 Cl        1 1E9        -0.0713
     57 N7         17.0200   24.0410   14.2900 N.2       1 1E9         0.3063
     58 O5         17.1470   24.7930   15.2510 O.2       1 1E9         0.1710
     59 O6         16.6410   22.8830   14.3960 O.2       1 1E9         0.1710
     60 H1         17.7306   28.7267   15.5990 H         1 1E9         0.0339
     61 H2         18.6181   30.0023   14.6979 H         1 1E9         0.0339
     62 H3         18.9787   28.3183   12.8533 H         1 1E9         0.0564
     63 H4         20.6846   28.7064   14.8044 H         1 1E9         0.0815
     64 H5         19.8220   27.3257   15.5636 H         1 1E9         0.0815
     65 H6         16.8188   28.6617   11.8561 H         1 1E9         0.0424
     66 H7         17.2574   30.1099   12.8241 H         1 1E9         0.0424
     67 H8         19.3318   28.7028   17.4054 H         1 1E9         0.2028
     68 H9         21.5128   29.0140   18.3139 H         1 1E9         0.0777
     69 H10        22.1574   28.8838   16.6424 H         1 1E9         0.0777
     70 H11        21.3507   27.4723   17.4064 H         1 1E9         0.0777
     71 H12        19.0678   30.8119   16.3391 H         1 1E9         0.0777
     72 H13        20.8461   30.8394   16.0867 H         1 1E9         0.0777
     73 H14        20.1744   30.8848   17.7521 H         1 1E9         0.0777
     74 H15        14.9234   26.6097   15.2820 H         1 1E9         0.0565
     75 H16        13.8979   24.4073   14.6981 H         1 1E9         0.0600
     76 H17        12.9594   24.0322   12.4223 H         1 1E9         0.0559
     77 H18        13.0860   25.8294   10.6990 H         1 1E9         0.0600
     78 H19        14.1150   28.0316   11.2769 H         1 1E9         0.0565
     79 H20        17.6022   26.5169   14.6506 H         1 1E9         0.1792
     80 H21        17.9810   25.8019    9.2694 H         1 1E9         0.0647
     81 H22        16.9180   22.6577   12.0269 H         1 1E9         0.0677
     82 H23        18.1877   27.3847   11.1725 H         1 1E9         0.0533
     83 H24         2.4470   20.1507    8.6356 H         1 1E9         0.0561
     84 H25         2.6285   21.5243   10.7076 H         1 1E9         0.0605
     85 H26         4.5959   23.1899    6.4330 H         1 1E9         0.0559
     86 H27         3.4429   20.9827    6.4996 H         1 1E9         0.0602
     87 H28         2.6766   25.5999   10.3886 H         1 1E9         0.0613
     88 H29         2.6785   26.7309   12.6099 H         1 1E9         0.0620
     89 H30         4.8167   23.3827   14.3119 H         1 1E9         0.0620
     90 H31         4.8052   22.2429   12.0899 H         1 1E9         0.0613
     91 H32         4.8989   25.4917    9.4068 H         1 1E9         0.0987
     92 H33         4.5843   25.5589    7.6395 H         1 1E9         0.0987
     93 H34         6.5210   24.3370    7.2590 H         1 1E9         0.2050
     94 H35         6.3728   22.8486    9.1870 H         1 1E9         0.0834
     95 H36         7.0537   24.2058   10.1468 H         1 1E9         0.0834
     96 H37         8.3479   22.8449    7.7056 H         1 1E9         0.0571
     97 H38         8.8855   22.7062    9.4139 H         1 1E9         0.0571
     98 H39         8.5402   25.3022    6.6866 H         1 1E9         0.0571
     99 H40         9.2563   26.5252    7.7903 H         1 1E9         0.0571
    100 H41         7.2996   26.2721    9.3332 H         1 1E9         0.0834
    101 H42         6.7661   26.7416    7.6835 H         1 1E9         0.0834
    102 H43        11.1154   26.4563    7.8429 H         1 1E9         0.0559
    103 H44        13.0400   21.9797    9.1306 H         1 1E9         0.0659
    104 H45        10.5578   22.3230    9.0620 H         1 1E9         0.0540
    105 H46        15.1503   22.0543    8.8025 H         1 1E9         0.2333
@<TRIPOS>BOND
     1    2    1 1  
     2    1    3 1  
     3    2    4 1  
     4   15    2 1  
     5    3    7 1  
     6    4    5 1  
     7    5    6 1  
     8    6   10 ar 
     9    6   14 ar 
    10    7    8 1  
    11    7    9 1  
    12   10   11 ar 
    13   11   12 ar 
    14   13   12 ar 
    15   14   13 ar 
    16   20   15 1  
    17   17   16 ar 
    18   16   21 ar 
    19   17   18 ar 
    20   22   17 1  
    21   18   19 ar 
    22   19   20 ar 
    23   19   57 1  
    24   21   20 ar 
    25   22   23 2  
    26   22   24 2  
    27   53   22 am 
    28   26   25 ar 
    29   30   25 ar 
    30   27   26 ar 
    31   28   27 ar 
    32   27   31 1  
    33   28   29 ar 
    34   37   28 1  
    35   29   30 ar 
    36   31   32 ar 
    37   31   36 ar 
    38   32   33 ar 
    39   33   34 ar 
    40   35   34 ar 
    41   34   56 1  
    42   36   35 ar 
    43   38   37 1  
    44   39   38 1  
    45   43   38 1  
    46   40   39 1  
    47   41   40 1  
    48   41   42 1  
    49   44   41 1  
    50   42   43 1  
    51   45   44 ar 
    52   47   44 ar 
    53   49   45 ar 
    54   46   47 ar 
    55   48   46 ar 
    56   48   49 ar 
    57   52   48 1  
    58   50   49 1  
    59   51   50 1  
    60   50   54 2  
    61   50   55 2  
    62   52   51 2  
    63   52   53 1  
    64   57   58 2  
    65   57   59 2  
    66    1   60 1  
    67    1   61 1  
    68    2   62 1  
    69    3   63 1  
    70    3   64 1  
    71    4   65 1  
    72    4   66 1  
    73    7   67 1  
    74    8   68 1  
    75    8   69 1  
    76    8   70 1  
    77    9   71 1  
    78    9   72 1  
    79    9   73 1  
    80   10   74 1  
    81   11   75 1  
    82   12   76 1  
    83   13   77 1  
    84   14   78 1  
    85   15   79 1  
    86   16   80 1  
    87   18   81 1  
    88   21   82 1  
    89   25   83 1  
    90   26   84 1  
    91   29   85 1  
    92   30   86 1  
    93   32   87 1  
    94   33   88 1  
    95   35   89 1  
    96   36   90 1  
    97   37   91 1  
    98   37   92 1  
    99   38   93 1  
   100   39   94 1  
   101   39   95 1  
   102   40   96 1  
   103   40   97 1  
   104   42   98 1  
   105   42   99 1  
   106   43  100 1  
   107   43  101 1  
   108   45  102 1  
   109   46  103 1  
   110   47  104 1  
   111   53  105 1  
@<TRIPOS>SUBSTRUCTURE
     1 1E9         1

