### 
### Created by X-TOOL on Mon Sep 10 21:13:13 2018
### 

@<TRIPOS>MOLECULE
4ifh_ligand
   58    61     1     0     0
SMALL
GAST_HUCK


@<TRIPOS>ATOM
      1 CAU        99.9950   -4.3020   41.2400 C.ar      1 1EF        -0.0548
      2 CAV        99.6360   -5.3280   40.3270 C.ar      1 1EF        -0.0259
      3 CAZ        99.2720   -6.6330   40.8170 C.ar      1 1EF        -0.0578
      4 CBA        98.9110   -7.6590   39.8940 C.ar      1 1EF        -0.0637
      5 CBB        98.9130   -7.3920   38.4990 C.ar      1 1EF        -0.0634
      6 CBC        99.2710   -6.1120   38.0210 C.ar      1 1EF        -0.0568
      7 CAW        99.6370   -5.0670   38.9520 C.ar      1 1EF        -0.0222
      8 CAX       100.0020   -3.7620   38.4590 C.ar      1 1EF        -0.0567
      9 CAY       100.3530   -2.7630   39.3450 C.ar      1 1EF        -0.0565
     10 CAT       100.3510   -3.0270   40.7550 C.ar      1 1EF        -0.0389
     11 CAR       100.7450   -1.9060   41.7630 C.3       1 1EF         0.0166
     12 CAQ       100.0970   -0.5440   41.4040 C.3       1 1EF         0.1120
     13 CAS       101.1230    0.4430   40.9410 C.3       1 1EF         0.0739
     14 CBD       102.4500    0.5880   41.7490 C.2       1 1EF         0.2022
     15 NBF       102.6570    1.7360   42.5530 N.am      1 1EF        -0.1641
     16 OBG       103.8020    1.8540   43.2260 O.3       1 1EF        -0.2717
     17 OBE       103.3460   -0.2650   41.6800 O.2       1 1EF        -0.3968
     18 NAB        99.3720   -0.1090   42.5220 N.pl3     1 1EF        -0.1739
     19 CAC        98.2330   -0.7370   42.9880 C.2       1 1EF         0.0720
     20 NAA        99.6480    0.9140   43.2870 N.2       1 1EF        -0.1014
     21 NAE        98.7310    1.0180   44.2660 N.2       1 1EF        -0.2245
     22 CAD        97.8130    0.0200   44.1440 C.2       1 1EF         0.0589
     23 CAF        96.6240   -0.2250   45.0210 C.3       1 1EF         0.0647
     24 NAG        95.7480   -1.2460   44.5220 N.am      1 1EF        -0.2792
     25 CAH        95.1320   -1.1340   43.2300 C.2       1 1EF         0.2012
     26 OAJ        95.3540   -0.1650   42.5260 O.2       1 1EF        -0.3877
     27 CAI        94.1670   -2.2600   42.7070 C.ar      1 1EF         0.0429
     28 CAK        94.2500   -2.7350   41.3740 C.ar      1 1EF        -0.0485
     29 CAL        93.3720   -3.7440   40.9330 C.ar      1 1EF        -0.0547
     30 CAM        92.4180   -4.2700   41.7990 C.ar      1 1EF        -0.0414
     31 CAP        91.4480   -5.3780   41.3160 C.3       1 1EF        -0.0289
     32 CAN        92.3320   -3.7970   43.1180 C.ar      1 1EF        -0.0547
     33 CAO        93.2160   -2.7890   43.5630 C.ar      1 1EF        -0.0485
     34 H1         99.9954   -4.4981   42.3061 H         1 1EF         0.0531
     35 H2         99.2724   -6.8343   41.8821 H         1 1EF         0.0603
     36 H3         98.6352   -8.6424   40.2573 H         1 1EF         0.0611
     37 H4         98.6389   -8.1730   37.7990 H         1 1EF         0.0598
     38 H5         99.2715   -5.9125   36.9555 H         1 1EF         0.0619
     39 H6        100.0008   -3.5654   37.3930 H         1 1EF         0.0620
     40 H7        100.6293   -1.7818   38.9762 H         1 1EF         0.0586
     41 H8        101.8389   -1.7910   41.7557 H         1 1EF         0.0462
     42 H9        100.4140   -2.2018   42.7695 H         1 1EF         0.0462
     43 H10        99.3903   -0.6992   40.5755 H         1 1EF         0.0733
     44 H11       100.6400    1.4312   40.9341 H         1 1EF         0.0536
     45 H12       101.3997    0.1629   39.9139 H         1 1EF         0.0536
     46 H13       101.9558    2.4463   42.6148 H         1 1EF         0.2216
     47 H14       103.8927    1.1224   43.8252 H         1 1EF         0.2490
     48 H15        97.7516   -1.6200   42.5702 H         1 1EF         0.0899
     49 H16        96.0543    0.7122   45.1058 H         1 1EF         0.0636
     50 H17        96.9814   -0.5282   46.0161 H         1 1EF         0.0636
     51 H18        95.5629   -2.0514   45.0852 H         1 1EF         0.1862
     52 H19        94.9878   -2.3224   40.6954 H         1 1EF         0.0652
     53 H20        93.4395   -4.1121   39.9157 H         1 1EF         0.0570
     54 H21        90.7748   -5.6602   42.1389 H         1 1EF         0.0401
     55 H22        92.0260   -6.2579   40.9971 H         1 1EF         0.0401
     56 H23        90.8547   -5.0024   40.4693 H         1 1EF         0.0401
     57 H24        91.5887   -4.2045   43.7937 H         1 1EF         0.0570
     58 H25        93.1493   -2.4269   44.5825 H         1 1EF         0.0652
@<TRIPOS>BOND
     1    1    2 ar 
     2    1   10 ar 
     3    2    3 ar 
     4    2    7 ar 
     5    3    4 ar 
     6    4    5 ar 
     7    5    6 ar 
     8    6    7 ar 
     9    7    8 ar 
    10    8    9 ar 
    11    9   10 ar 
    12   10   11 1  
    13   11   12 1  
    14   12   13 1  
    15   12   18 1  
    16   13   14 1  
    17   14   15 am 
    18   14   17 2  
    19   15   16 1  
    20   18   19 1  
    21   18   20 1  
    22   19   22 2  
    23   20   21 2  
    24   21   22 1  
    25   22   23 1  
    26   23   24 1  
    27   24   25 am 
    28   25   26 2  
    29   25   27 1  
    30   27   28 ar 
    31   27   33 ar 
    32   28   29 ar 
    33   29   30 ar 
    34   30   31 1  
    35   30   32 ar 
    36   32   33 ar 
    37    1   34 1  
    38    3   35 1  
    39    4   36 1  
    40    5   37 1  
    41    6   38 1  
    42    8   39 1  
    43    9   40 1  
    44   11   41 1  
    45   11   42 1  
    46   12   43 1  
    47   13   44 1  
    48   13   45 1  
    49   15   46 1  
    50   16   47 1  
    51   19   48 1  
    52   23   49 1  
    53   23   50 1  
    54   24   51 1  
    55   28   52 1  
    56   29   53 1  
    57   31   54 1  
    58   31   55 1  
    59   31   56 1  
    60   32   57 1  
    61   33   58 1  
@<TRIPOS>SUBSTRUCTURE
     1 1EF         1

