### 
### Created by X-TOOL on Mon Sep 10 21:13:13 2018
### 

@<TRIPOS>MOLECULE
4igq_ligand
   65    64     1     0     0
SMALL
GAST_HUCK


@<TRIPOS>ATOM
      1 N          33.0250   -6.6710  -14.0900 N.4       1 THR         0.2398
      2 CA         32.0240   -5.9490  -14.8720 C.3       1 THR         0.0910
      3 C          32.5300   -5.2970  -16.1460 C.2       1 THR         0.2293
      4 O          33.7340   -5.2540  -16.4190 O.2       1 THR        -0.3906
      5 CB         31.3730   -4.7990  -14.0710 C.3       1 THR         0.1120
      6 OG1        32.3880   -3.9470  -13.5240 O.3       1 THR        -0.3840
      7 CG2        30.5470   -5.3360  -12.9700 C.3       1 THR        -0.0314
      8 N          31.8500   -4.9150  -17.1320 N.am      1 M3L        -0.2609
      9 CA         31.9490   -4.6430  -18.5370 C.3       1 M3L         0.1311
     10 CB         31.6830   -3.1560  -18.7460 C.3       1 M3L        -0.0122
     11 CG         32.2960   -2.2900  -17.7110 C.3       1 M3L        -0.0440
     12 CD         31.3900   -1.3800  -16.9380 C.3       1 M3L        -0.0123
     13 CE         31.4070    0.1140  -17.3860 C.3       1 M3L        -0.0309
     14 NZ         30.8400    0.3400  -18.7370 N.4       1 M3L         0.2369
     15 C          33.3360   -5.1160  -18.8560 C.2       1 M3L         0.2033
     16 O          33.6330   -6.2960  -18.7520 O.2       1 M3L        -0.3944
     17 CM1        29.7810   -0.5410  -19.1380 C.3       1 M3L        -0.0418
     18 CM2        30.2460    1.6850  -18.8080 C.3       1 M3L        -0.0418
     19 CM3        31.9530    0.2300  -19.7300 C.3       1 M3L        -0.0418
     20 N          34.4150   -4.2300  -19.0150 N.am      1 GLN        -0.2693
     21 CA         35.3430   -5.1380  -19.5980 C.3       1 GLN         0.0964
     22 C          35.7330   -6.3950  -18.8030 C.2       1 GLN         0.0602
     23 O          36.5121   -6.3318  -17.8148 O.co2     1 GLN        -0.5666
     24 CB         36.6020   -4.3480  -19.9750 C.3       1 GLN        -0.0010
     25 CG         37.6460   -5.1510  -20.7470 C.3       1 GLN         0.0407
     26 CD         38.7940   -4.2980  -21.2480 C.2       1 GLN         0.1737
     27 OE1        38.7770   -3.0750  -21.1020 O.2       1 GLN        -0.3973
     28 NE2        39.7980   -4.9340  -21.8460 N.am      1 GLN        -0.3009
     29 O          35.2633   -7.5124  -19.1471 O.co2     1 GLN        -0.5666
     30 H1         33.4212   -7.4090  -14.6508 H         1 THR         0.2016
     31 H2         32.5902   -7.0675  -13.2716 H         1 THR         0.2016
     32 H3         33.7542   -6.0347  -13.8082 H         1 THR         0.2016
     33 H4         31.2469   -6.6783  -15.1443 H         1 THR         0.1125
     34 H5         30.7335   -4.2118  -14.7465 H         1 THR         0.0674
     35 H6         32.9475   -4.4532  -12.9467 H         1 THR         0.2102
     36 H7         30.0929   -4.5035  -12.4126 H         1 THR         0.0258
     37 H8         31.1793   -5.9290  -12.2928 H         1 THR         0.0258
     38 H9         29.7538   -5.9753  -13.3848 H         1 THR         0.0258
     39 H10        30.9124   -4.7394  -16.8320 H         1 M3L         0.1884
     40 H11        31.2132   -5.2209  -19.1155 H         1 M3L         0.0800
     41 H12        30.5952   -2.9929  -18.7355 H         1 M3L         0.0312
     42 H13        32.0880   -2.8652  -19.7265 H         1 M3L         0.0312
     43 H14        33.0453   -1.6595  -18.2119 H         1 M3L         0.0269
     44 H15        32.7965   -2.9486  -16.9859 H         1 M3L         0.0269
     45 H16        31.6888   -1.4211  -15.8802 H         1 M3L         0.0317
     46 H17        30.3612   -1.7548  -17.0433 H         1 M3L         0.0317
     47 H18        32.4496    0.4647  -17.3844 H         1 M3L         0.0815
     48 H19        30.8219    0.6999  -16.6619 H         1 M3L         0.0815
     49 H20        29.4465   -0.2747  -20.1515 H         1 M3L         0.0778
     50 H21        28.9388   -0.4449  -18.4369 H         1 M3L         0.0778
     51 H22        30.1457   -1.5788  -19.1331 H         1 M3L         0.0778
     52 H23        30.9965    2.4333  -18.5134 H         1 M3L         0.0778
     53 H24        29.3845    1.7418  -18.1264 H         1 M3L         0.0778
     54 H25        29.9132    1.8850  -19.8372 H         1 M3L         0.0778
     55 H26        32.3952   -0.7757  -19.6751 H         1 M3L         0.0778
     56 H27        32.7229    0.9820  -19.5026 H         1 M3L         0.0778
     57 H28        31.5594    0.4027  -20.7426 H         1 M3L         0.0778
     58 H29        34.5036   -3.2601  -18.7883 H         1 GLN         0.1875
     59 H30        34.8782   -5.5005  -20.5267 H         1 GLN         0.0727
     60 H31        37.0674   -3.9807  -19.0485 H         1 GLN         0.0330
     61 H32        36.2978   -3.4929  -20.5965 H         1 GLN         0.0330
     62 H33        37.1566   -5.6235  -21.6114 H         1 GLN         0.0504
     63 H34        38.0508   -5.9297  -20.0838 H         1 GLN         0.0504
     64 H35        40.5800   -4.4175  -22.1948 H         1 GLN         0.1814
     65 H36        39.7706   -5.9285  -21.9467 H         1 GLN         0.1814
@<TRIPOS>BOND
     1    1    2 1  
     2    2    3 1  
     3    2    5 1  
     4    3    4 2  
     5    3    8 am 
     6    5    6 1  
     7    5    7 1  
     8    8    9 1  
     9    9   10 1  
    10    9   15 1  
    11   10   11 1  
    12   11   12 1  
    13   12   13 1  
    14   13   14 1  
    15   14   17 1  
    16   14   18 1  
    17   14   19 1  
    18   15   16 2  
    19   15   20 am 
    20   20   21 1  
    21   21   22 1  
    22   21   24 1  
    23   22   23 ar 
    24   24   25 1  
    25   25   26 1  
    26   26   27 2  
    27   26   28 am 
    28   22   29 ar 
    29    1   30 1  
    30    1   31 1  
    31    1   32 1  
    32    2   33 1  
    33    5   34 1  
    34    6   35 1  
    35    7   36 1  
    36    7   37 1  
    37    7   38 1  
    38    8   39 1  
    39    9   40 1  
    40   10   41 1  
    41   10   42 1  
    42   11   43 1  
    43   11   44 1  
    44   12   45 1  
    45   12   46 1  
    46   13   47 1  
    47   13   48 1  
    48   17   49 1  
    49   17   50 1  
    50   17   51 1  
    51   18   52 1  
    52   18   53 1  
    53   18   54 1  
    54   19   55 1  
    55   19   56 1  
    56   19   57 1  
    57   20   58 1  
    58   21   59 1  
    59   24   60 1  
    60   24   61 1  
    61   25   62 1  
    62   25   63 1  
    63   28   64 1  
    64   28   65 1  
@<TRIPOS>SUBSTRUCTURE
     1 THR         1

