### 
### Created by X-TOOL on Mon Sep 10 21:13:14 2018
### 

@<TRIPOS>MOLECULE
4igr_ligand
   32    31     1     0     0
SMALL
GAST_HUCK


@<TRIPOS>ATOM
      1 O6         -6.5720   30.4960  -15.9980 O.3       1 3ZA        -0.2694
      2 C5         -5.6530   28.2060  -17.6080 C.3       1 3ZA         0.0409
      3 C3         -4.2030   28.0060  -15.4090 C.3       1 3ZA         0.0205
      4 O2         -2.3900   31.8320  -12.8640 O.co2     1 3ZA        -0.5643
      5 O1         -1.0700   30.3160  -13.9220 O.co2     1 3ZA        -0.5643
      6 C7         -3.3770   26.8790  -14.7850 C.2       1 3ZA         0.0383
      7 C8         -6.8890   28.1530  -16.7120 C.2       1 3ZA         0.2012
      8 C1         -3.4370   29.7820  -13.6590 C.3       1 3ZA         0.0301
      9 C2         -3.5970   29.3980  -15.1390 C.3       1 3ZA         0.0169
     10 C4         -4.3660   27.6940  -16.9230 C.3       1 3ZA        -0.0214
     11 N1         -4.7450   30.3560  -13.1440 N.4       1 3ZA         0.2328
     12 C6         -2.1770   30.7200  -13.4660 C.2       1 3ZA         0.0845
     13 O3         -2.1250   27.0250  -14.7320 O.co2     1 3ZA        -0.5687
     14 O4         -4.0530   25.8900  -14.3780 O.co2     1 3ZA        -0.5687
     15 O5         -7.4540   27.0720  -16.5260 O.2       1 3ZA        -0.3968
     16 N2         -7.3450   29.3210  -16.1220 N.am      1 3ZA        -0.1538
     17 C9         -8.6680   29.5330  -15.5550 C.3       1 3ZA         0.0516
     18 H1         -6.3185   30.7996  -16.8617 H         1 3ZA         0.2492
     19 H2         -5.4912   29.2498  -17.9149 H         1 3ZA         0.0503
     20 H3         -5.8423   27.5874  -18.4976 H         1 3ZA         0.0503
     21 H4         -5.2024   27.9934  -14.9497 H         1 3ZA         0.0470
     22 H5         -3.2409   28.8621  -13.0887 H         1 3ZA         0.1025
     23 H6         -4.2476   30.1473  -15.6137 H         1 3ZA         0.0359
     24 H7         -2.6012   29.4289  -15.6053 H         1 3ZA         0.0359
     25 H8         -3.5094   28.1413  -17.4485 H         1 3ZA         0.0310
     26 H9         -4.3388   26.6008  -17.0417 H         1 3ZA         0.0310
     27 H10        -4.6421   30.6085  -12.1736 H         1 3ZA         0.2010
     28 H11        -5.4741   29.6661  -13.2362 H         1 3ZA         0.2010
     29 H12        -4.9870   31.1745  -13.6802 H         1 3ZA         0.2010
     30 H13        -9.2621   28.6128  -15.6563 H         1 3ZA         0.0514
     31 H14        -9.1689   30.3535  -16.0896 H         1 3ZA         0.0514
     32 H15        -8.5733   29.7929  -14.4904 H         1 3ZA         0.0514
@<TRIPOS>BOND
     1   16    1 1  
     2    2    7 1  
     3   10    2 1  
     4    3    6 1  
     5    9    3 1  
     6    3   10 1  
     7   12    4 ar 
     8   12    5 ar 
     9    6   13 ar 
    10    6   14 ar 
    11    7   15 2  
    12    7   16 am 
    13    8    9 1  
    14    8   11 1  
    15    8   12 1  
    16   16   17 1  
    17    1   18 1  
    18    2   19 1  
    19    2   20 1  
    20    3   21 1  
    21    8   22 1  
    22    9   23 1  
    23    9   24 1  
    24   10   25 1  
    25   10   26 1  
    26   11   27 1  
    27   11   28 1  
    28   11   29 1  
    29   17   30 1  
    30   17   31 1  
    31   17   32 1  
@<TRIPOS>SUBSTRUCTURE
     1 3ZA         1

