### 
### Created by X-TOOL on Mon Sep 10 21:13:12 2018
### 

@<TRIPOS>MOLECULE
4igt_ligand
   32    31     1     0     0
SMALL
GAST_HUCK


@<TRIPOS>ATOM
      1 O6         19.4510   12.1410   23.4220 O.3       1 3ZA        -0.2694
      2 C5         19.2510   14.7980   22.3760 C.3       1 3ZA         0.0409
      3 C3         21.7950   14.6570   22.9630 C.3       1 3ZA         0.0205
      4 O2         23.0790   12.6440   27.2090 O.co2     1 3ZA        -0.5643
      5 O1         23.5090   14.7970   26.8430 O.co2     1 3ZA        -0.5643
      6 C7         23.0980   15.3050   22.4470 C.2       1 3ZA         0.0383
      7 C8         19.2310   13.5570   21.4800 C.2       1 3ZA         0.2012
      8 C1         22.8430   13.4700   24.9730 C.3       1 3ZA         0.0301
      9 C2         21.7580   14.4420   24.4960 C.3       1 3ZA         0.0169
     10 C4         20.6060   15.5020   22.4410 C.3       1 3ZA        -0.0214
     11 N1         22.4560   12.0460   24.7350 N.4       1 3ZA         0.2328
     12 C6         23.1690   13.6650   26.4650 C.2       1 3ZA         0.0845
     13 O3         23.4150   15.0410   21.2530 O.co2     1 3ZA        -0.5687
     14 O4         23.7750   16.0290   23.2140 O.co2     1 3ZA        -0.5687
     15 O5         19.3910   13.5510   20.2480 O.2       1 3ZA        -0.3968
     16 N2         19.0090   12.3500   22.0940 N.am      1 3ZA        -0.1538
     17 C9         19.1660   11.1180   21.3330 C.3       1 3ZA         0.0516
     18 H1         19.0338   12.7722   23.9965 H         1 3ZA         0.2492
     19 H2         18.9719   14.4922   23.3951 H         1 3ZA         0.0503
     20 H3         18.5089   15.5131   21.9915 H         1 3ZA         0.0503
     21 H4         21.7205   13.6587   22.5070 H         1 3ZA         0.0470
     22 H5         23.7546   13.6781   24.3937 H         1 3ZA         0.1025
     23 H6         20.7735   14.0368   24.7728 H         1 3ZA         0.0359
     24 H7         21.9084   15.4117   24.9930 H         1 3ZA         0.0359
     25 H8         20.4990   16.3742   23.1026 H         1 3ZA         0.0310
     26 H9         20.8565   15.8410   21.4250 H         1 3ZA         0.0310
     27 H10        23.1919   11.4389   25.0605 H         1 3ZA         0.2010
     28 H11        22.3099   11.8978   23.7487 H         1 3ZA         0.2010
     29 H12        21.6053   11.8409   25.2353 H         1 3ZA         0.2010
     30 H13        18.8228   11.2787   20.3003 H         1 3ZA         0.0514
     31 H14        18.5677   10.3208   21.7983 H         1 3ZA         0.0514
     32 H15        20.2260   10.8241   21.3256 H         1 3ZA         0.0514
@<TRIPOS>BOND
     1   16    1 1  
     2    2    7 1  
     3   10    2 1  
     4    3    6 1  
     5    9    3 1  
     6    3   10 1  
     7   12    4 ar 
     8   12    5 ar 
     9    6   13 ar 
    10    6   14 ar 
    11    7   15 2  
    12    7   16 am 
    13    8    9 1  
    14    8   11 1  
    15    8   12 1  
    16   16   17 1  
    17    1   18 1  
    18    2   19 1  
    19    2   20 1  
    20    3   21 1  
    21    8   22 1  
    22    9   23 1  
    23    9   24 1  
    24   10   25 1  
    25   10   26 1  
    26   11   27 1  
    27   11   28 1  
    28   11   29 1  
    29   17   30 1  
    30   17   31 1  
    31   17   32 1  
@<TRIPOS>SUBSTRUCTURE
     1 3ZA         1

