### 
### Created by X-TOOL on Mon Sep 10 21:13:19 2018
### 

@<TRIPOS>MOLECULE
4ih3_ligand
   15    15     1     0     0
SMALL
GAST_HUCK


@<TRIPOS>ATOM
      1 N1         -0.3030  -12.9480    8.4730 N.ar      1 PDC        -0.2669
      2 C2         -1.4830  -12.2890    8.4450 C.ar      1 PDC         0.0863
      3 C3         -2.6980  -12.8970    8.7810 C.ar      1 PDC        -0.0170
      4 C4         -2.7340  -14.2180    9.1880 C.ar      1 PDC        -0.0351
      5 C5         -1.5080  -14.9050    9.2190 C.ar      1 PDC        -0.0170
      6 C6         -0.3280  -14.2340    8.8680 C.ar      1 PDC         0.0863
      7 C7         -1.5790  -10.8050    7.9950 C.2       1 PDC         0.0819
      8 O1         -0.7970   -9.9460    8.4870 O.co2     1 PDC        -0.5571
      9 O2         -2.4630  -10.5740    7.1310 O.co2     1 PDC        -0.5571
     10 C8          0.9610  -14.9810    8.9010 C.2       1 PDC         0.0819
     11 O3          1.3440  -15.5690    9.9530 O.co2     1 PDC        -0.5571
     12 O4          1.5720  -14.9540    7.8130 O.co2     1 PDC        -0.5571
     13 H          -3.6185  -12.3276    8.7217 H         1 PDC         0.0764
     14 H          -3.6629  -14.7006    9.4696 H         1 PDC         0.0751
     15 H          -1.4751  -15.9479    9.5127 H         1 PDC         0.0764
@<TRIPOS>BOND
     1    1    2 ar 
     2    1    6 ar 
     3    2    3 ar 
     4    2    7 1  
     5    3    4 ar 
     6    4    5 ar 
     7    5    6 ar 
     8    6   10 1  
     9    7    8 ar 
    10    7    9 ar 
    11   10   11 ar 
    12   10   12 ar 
    13    3   13 1  
    14    4   14 1  
    15    5   15 1  
@<TRIPOS>SUBSTRUCTURE
     1 PDC         1

