### 
### Created by X-TOOL on Mon Sep 10 21:13:14 2018
### 

@<TRIPOS>MOLECULE
4ih6_ligand
   45    46     1     0     0
SMALL
GAST_HUCK


@<TRIPOS>ATOM
      1 N1        -18.6950  -11.4410  -60.8030 N.am      1 1EP        -0.1520
      2 C2        -20.0270  -11.1130  -60.5910 C.2       1 1EP         0.2953
      3 O3        -20.4440  -10.1050  -60.0480 O.2       1 1EP        -0.3911
      4 N4        -20.7710  -12.1160  -61.0990 N.am      1 1EP        -0.2461
      5 C5        -19.9800  -13.1890  -61.6790 C.3       1 1EP         0.1393
      6 C6        -18.5650  -12.6520  -61.4560 C.2       1 1EP         0.2352
      7 O7        -17.5070  -13.1700  -61.7620 O.2       1 1EP        -0.3839
      8 C8        -20.3460  -13.4350  -63.1570 C.3       1 1EP        -0.0060
      9 C9        -19.9160  -14.8160  -63.6250 C.3       1 1EP        -0.0584
     10 C10       -19.8270  -12.3370  -64.0930 C.3       1 1EP        -0.0584
     11 C11       -17.5550  -10.6030  -60.3970 C.3       1 1EP         0.1076
     12 C12       -17.4260   -9.3370  -61.2120 C.ar      1 1EP         0.0156
     13 C13       -17.0170   -8.1490  -60.6220 C.ar      1 1EP        -0.0262
     14 C14       -16.9140   -6.9840  -61.3640 C.ar      1 1EP        -0.0449
     15 C15       -17.2230   -6.9670  -62.7230 C.ar      1 1EP        -0.0568
     16 C16       -17.6190   -8.1650  -63.3110 C.ar      1 1EP        -0.0449
     17 C17       -17.7200   -9.3290  -62.5690 C.ar      1 1EP        -0.0262
     18 C18       -17.1550   -5.6630  -63.5370 C.3       1 1EP        -0.0520
     19 C19       -15.7180   -5.1240  -63.5570 C.3       1 1EP        -0.0877
     20 C20       -17.5720   -5.8650  -65.0060 C.3       1 1EP        -0.0877
     21 C21       -18.0930   -4.5970  -62.9360 C.3       1 1EP        -0.0877
     22 H1        -21.7708  -12.1214  -61.0788 H         1 1EP         0.1884
     23 H2        -20.1252  -14.1290  -61.1264 H         1 1EP         0.0805
     24 H3        -21.4440  -13.4060  -63.2168 H         1 1EP         0.0343
     25 H4        -20.1954  -14.9488  -64.6806 H         1 1EP         0.0235
     26 H5        -20.4158  -15.5823  -63.0143 H         1 1EP         0.0235
     27 H6        -18.8257  -14.9162  -63.5189 H         1 1EP         0.0235
     28 H7        -20.1567  -11.3546  -63.7240 H         1 1EP         0.0235
     29 H8        -20.2242  -12.5004  -65.1057 H         1 1EP         0.0235
     30 H9        -18.7278  -12.3682  -64.1208 H         1 1EP         0.0235
     31 H10       -16.6315  -11.1891  -60.5133 H         1 1EP         0.0813
     32 H11       -17.6833  -10.3266  -59.3401 H         1 1EP         0.0813
     33 H12       -16.7748   -8.1328  -59.5655 H         1 1EP         0.0653
     34 H13       -16.5878   -6.0706  -60.8799 H         1 1EP         0.0833
     35 H14       -17.8525   -8.1867  -64.3693 H         1 1EP         0.0833
     36 H15       -18.0328  -10.2467  -63.0538 H         1 1EP         0.0653
     37 H16       -15.6838   -4.1928  -64.1415 H         1 1EP         0.0126
     38 H17       -15.0529   -5.8700  -64.0166 H         1 1EP         0.0126
     39 H18       -15.3874   -4.9229  -62.5273 H         1 1EP         0.0126
     40 H19       -18.6007   -6.2525  -65.0451 H         1 1EP         0.0126
     41 H20       -16.8910   -6.5839  -65.4850 H         1 1EP         0.0126
     42 H21       -17.5222   -4.9029  -65.5369 H         1 1EP         0.0126
     43 H22       -17.8252   -4.4247  -61.8831 H         1 1EP         0.0126
     44 H23       -19.1337   -4.9480  -62.9969 H         1 1EP         0.0126
     45 H24       -17.9893   -3.6578  -63.4992 H         1 1EP         0.0126
@<TRIPOS>BOND
     1    1    2 am 
     2    1    6 am 
     3    1   11 1  
     4    2    3 2  
     5    2    4 am 
     6    4    5 1  
     7    5    6 1  
     8    5    8 1  
     9    6    7 2  
    10    8    9 1  
    11    8   10 1  
    12   11   12 1  
    13   12   13 ar 
    14   12   17 ar 
    15   13   14 ar 
    16   14   15 ar 
    17   15   16 ar 
    18   15   18 1  
    19   16   17 ar 
    20   18   19 1  
    21   18   20 1  
    22   18   21 1  
    23    4   22 1  
    24    5   23 1  
    25    8   24 1  
    26    9   25 1  
    27    9   26 1  
    28    9   27 1  
    29   10   28 1  
    30   10   29 1  
    31   10   30 1  
    32   11   31 1  
    33   11   32 1  
    34   13   33 1  
    35   14   34 1  
    36   16   35 1  
    37   17   36 1  
    38   19   37 1  
    39   19   38 1  
    40   19   39 1  
    41   20   40 1  
    42   20   41 1  
    43   20   42 1  
    44   21   43 1  
    45   21   44 1  
    46   21   45 1  
@<TRIPOS>SUBSTRUCTURE
     1 1EP         1

