### 
### Created by X-TOOL on Mon Sep 10 21:13:15 2018
### 

@<TRIPOS>MOLECULE
4ih7_ligand
   34    35     1     0     0
SMALL
GAST_HUCK


@<TRIPOS>ATOM
      1 O         -10.7330    6.0850    9.9460 O.2       1 1ER        -0.3862
      2 C13       -11.2320    6.8760   10.7520 C.2       1 1ER         0.1920
      3 N         -12.3290    6.4770   11.5130 N.2       1 1ER        -0.2615
      4 C12       -12.9650    7.2550   12.4330 C.2       1 1ER         0.0146
      5 C11       -12.5530    8.5250   12.6690 C.2       1 1ER        -0.0175
      6 C10       -11.4540    9.0310   11.9390 C.2       1 1ER        -0.0103
      7 C9        -10.7940    8.2620   11.0070 C.3       1 1ER         0.1249
      8 C8         -9.6510    8.8130   10.2280 C.ar      1 1ER         0.0269
      9 C7         -9.5770    8.6450    8.8450 C.ar      1 1ER        -0.0248
     10 C6         -8.4970    9.1470    8.1350 C.ar      1 1ER        -0.0365
     11 C5         -7.4850    9.8290    8.7960 C.ar      1 1ER        -0.0443
     12 C14        -8.6330    9.5110   10.8780 C.ar      1 1ER        -0.0315
     13 C4         -7.5400   10.0280   10.1750 C.ar      1 1ER        -0.0528
     14 C1         -6.4060   10.7630   10.9080 C.3       1 1ER        -0.0462
     15 C3         -6.9030   11.4180   12.2040 C.3       1 1ER        -0.0838
     16 C2         -5.8120   11.8860   10.0410 C.3       1 1ER        -0.0838
     17 C          -5.2880    9.7690   11.2810 C.3       1 1ER        -0.0838
     18 H1        -13.8133    6.8525   12.9847 H         1 1ER         0.1095
     19 H2        -13.0599    9.1439   13.4078 H         1 1ER         0.0557
     20 H3        -11.1215   10.0525   12.1177 H         1 1ER         0.1062
     21 H4        -10.1010    7.9101   11.7854 H         1 1ER         0.0976
     22 H5        -10.3681    8.1192    8.3227 H         1 1ER         0.0818
     23 H6         -8.4430    9.0065    7.0615 H         1 1ER         0.0686
     24 H7         -6.6413   10.2117    8.2332 H         1 1ER         0.0809
     25 H8         -8.6903    9.6558   11.9508 H         1 1ER         0.0796
     26 H9         -6.0662   11.9326   12.6990 H         1 1ER         0.0138
     27 H10        -7.3060   10.6447   12.8745 H         1 1ER         0.0138
     28 H11        -7.6928   12.1461   11.9674 H         1 1ER         0.0138
     29 H12        -5.4407   11.4623    9.0962 H         1 1ER         0.0138
     30 H13        -4.9810   12.3647   10.5798 H         1 1ER         0.0138
     31 H14        -6.5895   12.6341    9.8268 H         1 1ER         0.0138
     32 H15        -5.7062    8.9627   11.9015 H         1 1ER         0.0138
     33 H16        -4.5026   10.2948   11.8437 H         1 1ER         0.0138
     34 H17        -4.8576    9.3402   10.3640 H         1 1ER         0.0138
@<TRIPOS>BOND
     1    1    2 2  
     2    2    3 1  
     3    2    7 1  
     4    3    4 2  
     5    4    5 1  
     6    5    6 2  
     7    6    7 1  
     8    7    8 1  
     9    8    9 ar 
    10    8   12 ar 
    11    9   10 ar 
    12   10   11 ar 
    13   11   13 ar 
    14   12   13 ar 
    15   13   14 1  
    16   14   15 1  
    17   14   16 1  
    18   14   17 1  
    19    4   18 1  
    20    5   19 1  
    21    6   20 1  
    22    7   21 1  
    23    9   22 1  
    24   10   23 1  
    25   11   24 1  
    26   12   25 1  
    27   15   26 1  
    28   15   27 1  
    29   15   28 1  
    30   16   29 1  
    31   16   30 1  
    32   16   31 1  
    33   17   32 1  
    34   17   33 1  
    35   17   34 1  
@<TRIPOS>SUBSTRUCTURE
     1 1ER         1

