### 
### Created by X-TOOL on Mon Sep 10 21:13:12 2018
### 

@<TRIPOS>MOLECULE
4iic_ligand
   24    24     1     0     0
SMALL
GAST_HUCK


@<TRIPOS>ATOM
      1 O4         20.3370  -16.7790   25.9570 O.3       1 IFM        -0.3885
      2 C4         20.7100  -17.7180   24.9440 C.3       1 IFM         0.0958
      3 C3         21.6480  -18.7310   25.5660 C.3       1 IFM         0.1209
      4 O3         22.8620  -18.1160   25.9920 O.3       1 IFM        -0.3839
      5 C2         22.0650  -19.8000   24.4710 C.3       1 IFM        -0.0045
      6 N          20.8580  -20.4980   23.9020 N.4       1 IFM         0.2292
      7 C1         19.8930  -19.4770   23.3070 C.3       1 IFM        -0.0261
      8 C5         19.4640  -18.5740   24.4220 C.3       1 IFM         0.0507
      9 C6         18.4140  -17.5870   23.7750 C.3       1 IFM         0.0543
     10 O6         18.9320  -16.8830   22.5630 O.3       1 IFM        -0.3945
     11 H1         19.7470  -16.1330   25.5867 H         1 IFM         0.2099
     12 H2         21.1905  -17.1910   24.1065 H         1 IFM         0.0626
     13 H3         21.1505  -19.2206   26.4161 H         1 IFM         0.0673
     14 H4         23.4302  -18.7727   26.3772 H         1 IFM         0.2101
     15 H5         22.7266  -20.5474   24.9332 H         1 IFM         0.0840
     16 H6         22.6007  -19.2894   23.6572 H         1 IFM         0.0840
     17 H7         20.3920  -21.0090   24.6353 H         1 IFM         0.2014
     18 H8         21.1522  -21.1380   23.1810 H         1 IFM         0.2014
     19 H9         19.0187  -19.9891   22.8788 H         1 IFM         0.0818
     20 H10        20.3972  -18.8940   22.5223 H         1 IFM         0.0818
     21 H11        19.0193  -19.1484   25.2480 H         1 IFM         0.0401
     22 H12        18.1365  -16.8319   24.5252 H         1 IFM         0.0562
     23 H13        17.5226  -18.1644   23.4888 H         1 IFM         0.0562
     24 H14        19.6980  -16.3725   22.7979 H         1 IFM         0.2094
@<TRIPOS>BOND
     1    1    2 1  
     2    2    3 1  
     3    2    8 1  
     4    3    4 1  
     5    3    5 1  
     6    5    6 1  
     7    6    7 1  
     8    7    8 1  
     9    8    9 1  
    10    9   10 1  
    11    1   11 1  
    12    2   12 1  
    13    3   13 1  
    14    4   14 1  
    15    5   15 1  
    16    5   16 1  
    17    6   17 1  
    18    6   18 1  
    19    7   19 1  
    20    7   20 1  
    21    8   21 1  
    22    9   22 1  
    23    9   23 1  
    24   10   24 1  
@<TRIPOS>SUBSTRUCTURE
     1 IFM         1

