### 
### Created by X-TOOL on Mon Sep 10 21:13:12 2018
### 

@<TRIPOS>MOLECULE
4iid_ligand
   25    25     1     0     0
SMALL
GAST_HUCK


@<TRIPOS>ATOM
      1 C1        -20.8870  -20.3580  -23.4400 C.3       1 NOJ        -0.0040
      2 C2        -22.0330  -19.7770  -24.2580 C.3       1 NOJ         0.1231
      3 O2        -22.8080  -20.8310  -24.8510 O.3       1 NOJ        -0.3838
      4 C3        -21.5510  -18.8710  -25.3870 C.3       1 NOJ         0.1171
      5 O3        -22.7050  -18.1920  -25.9100 O.3       1 NOJ        -0.3862
      6 C4        -20.5550  -17.8490  -24.8340 C.3       1 NOJ         0.1280
      7 O4        -20.1510  -16.9300  -25.8340 O.3       1 NOJ        -0.3835
      8 C5        -19.3580  -18.5730  -24.2430 C.3       1 NOJ         0.0301
      9 N5        -19.8890  -19.3230  -23.0880 N.4       1 NOJ         0.2346
     10 C6        -18.3320  -17.6240  -23.6960 C.3       1 NOJ         0.0893
     11 O6        -18.9200  -16.8110  -22.6920 O.3       1 NOJ        -0.3894
     12 H1        -20.3924  -21.1455  -24.0276 H         1 NOJ         0.0840
     13 H2        -21.2932  -20.7916  -22.5143 H         1 NOJ         0.0840
     14 H3        -22.6743  -19.1909  -23.5833 H         1 NOJ         0.0674
     15 H4        -22.2519  -21.3495  -25.4205 H         1 NOJ         0.2101
     16 H5        -21.0711  -19.4682  -26.1763 H         1 NOJ         0.0649
     17 H6        -23.3265  -18.8319  -26.2368 H         1 NOJ         0.2100
     18 H7        -21.0497  -17.2832  -24.0308 H         1 NOJ         0.0678
     19 H8        -19.5348  -16.3099  -25.4623 H         1 NOJ         0.2102
     20 H9        -18.9026  -19.2406  -24.9893 H         1 NOJ         0.0900
     21 H10       -19.1170  -19.7742  -22.6228 H         1 NOJ         0.2019
     22 H11       -20.3236  -18.6667  -22.4583 H         1 NOJ         0.2019
     23 H12       -17.9541  -16.9859  -24.5084 H         1 NOJ         0.0614
     24 H13       -17.4991  -18.1964  -23.2617 H         1 NOJ         0.0614
     25 H14       -19.6390  -16.3164  -23.0675 H         1 NOJ         0.2097
@<TRIPOS>BOND
     1    1    2 1  
     2    1    9 1  
     3    2    3 1  
     4    2    4 1  
     5    4    5 1  
     6    4    6 1  
     7    6    7 1  
     8    6    8 1  
     9    8    9 1  
    10    8   10 1  
    11   10   11 1  
    12    1   12 1  
    13    1   13 1  
    14    2   14 1  
    15    3   15 1  
    16    4   16 1  
    17    5   17 1  
    18    6   18 1  
    19    7   19 1  
    20    8   20 1  
    21    9   21 1  
    22    9   22 1  
    23   10   23 1  
    24   10   24 1  
    25   11   25 1  
@<TRIPOS>SUBSTRUCTURE
     1 NOJ         1

