### 
### Created by X-TOOL on Mon Sep 10 21:13:12 2018
### 

@<TRIPOS>MOLECULE
4iie_ligand
   26    27     1     0     0
SMALL
GAST_HUCK


@<TRIPOS>ATOM
      1 O2         20.9410  -20.4650   22.4700 O.3       1 CGB        -0.3478
      2 C2         20.5920  -19.5010   23.4000 C.3       1 CGB         0.1201
      3 N1         19.1180  -18.9740   23.5000 N.4       1 CGB         0.2572
      4 C8         20.9880  -18.2370   22.8110 C.3       1 CGB         0.0273
      5 C7         20.4620  -17.1100   23.7460 C.3       1 CGB         0.0008
      6 C6         19.2500  -17.8180   24.4270 C.3       1 CGB         0.0096
      7 C3         21.1880  -19.8900   24.8180 C.3       1 CGB         0.1548
      8 O3         22.3270  -20.8150   24.9890 O.3       1 CGB        -0.3808
      9 C4         21.3630  -18.5390   25.3940 C.3       1 CGB         0.1202
     10 O4         22.6180  -18.2260   26.0010 O.3       1 CGB        -0.3861
     11 C5         19.9960  -17.9520   25.7410 C.3       1 CGB         0.1261
     12 O5         20.2540  -16.5820   26.0910 O.3       1 CGB        -0.3835
     13 H1         21.8667  -20.6620   22.5519 H         1 CGB         0.2158
     14 H2         18.5048  -19.6777   23.8807 H         1 CGB         0.2049
     15 H3         18.7743  -18.6806   22.5990 H         1 CGB         0.2049
     16 H4         20.5457  -18.1328   21.8092 H         1 CGB         0.0352
     17 H5         22.0841  -18.1832   22.7354 H         1 CGB         0.0352
     18 H6         20.1424  -16.2275   23.1725 H         1 CGB         0.0324
     19 H7         21.2211  -16.8123   24.4843 H         1 CGB         0.0324
     20 H8         18.3072  -17.2594   24.5224 H         1 CGB         0.0878
     21 H9         20.3746  -20.3864   25.3675 H         1 CGB         0.0708
     22 H10        22.5213  -20.9087   25.9141 H         1 CGB         0.2103
     23 H11        21.5360  -17.9688   24.4694 H         1 CGB         0.0650
     24 H12        22.7783  -18.8246   26.7210 H         1 CGB         0.2100
     25 H13        19.4543  -18.5223   26.5099 H         1 CGB         0.0677
     26 H14        20.6489  -16.1362   25.3508 H         1 CGB         0.2102
@<TRIPOS>BOND
     1    1    2 1  
     2    2    3 1  
     3    2    4 1  
     4    2    7 1  
     5    3    6 1  
     6    4    5 1  
     7    5    6 1  
     8    6   11 1  
     9    7    8 1  
    10    7    9 1  
    11    9   10 1  
    12    9   11 1  
    13   11   12 1  
    14    1   13 1  
    15    3   14 1  
    16    3   15 1  
    17    4   16 1  
    18    4   17 1  
    19    5   18 1  
    20    5   19 1  
    21    6   20 1  
    22    7   21 1  
    23    8   22 1  
    24    9   23 1  
    25   10   24 1  
    26   11   25 1  
    27   12   26 1  
@<TRIPOS>SUBSTRUCTURE
     1 CGB         1

