### 
### Created by X-TOOL on Mon Sep 10 21:13:12 2018
### 

@<TRIPOS>MOLECULE
4iif_ligand
   29    30     1     0     0
SMALL
GAST_HUCK


@<TRIPOS>ATOM
      1 C1         20.9580  -20.2160   23.3600 C.3       1 CTS        -0.0023
      2 C2         22.1030  -19.6860   24.2130 C.3       1 CTS         0.1231
      3 C3         21.6330  -18.7700   25.3240 C.3       1 CTS         0.1171
      4 C4         20.7290  -17.6740   24.7620 C.3       1 CTS         0.1283
      5 C5         19.5830  -18.4220   24.0430 C.3       1 CTS         0.0349
      6 C6         18.6030  -17.5360   23.3480 C.3       1 CTS         0.1050
      7 O2         22.7460  -20.7620   24.8610 O.3       1 CTS        -0.3838
      8 O3         22.7910  -18.2690   25.9400 O.3       1 CTS        -0.3862
      9 O4         20.2420  -16.7980   25.7810 O.3       1 CTS        -0.3834
     10 O6         19.3370  -16.5460   22.5980 O.3       1 CTS        -0.3859
     11 N          20.1900  -19.0870   22.8770 N.4       1 CTS         0.2431
     12 C7         17.9380  -18.5310   22.3870 C.3       1 CTS         0.0189
     13 C8         19.0500  -19.5430   22.0510 C.3       1 CTS        -0.0288
     14 H1         20.3150  -20.8711   23.9661 H         1 CTS         0.0841
     15 H2         21.3606  -20.7836   22.5081 H         1 CTS         0.0841
     16 H3         22.8120  -19.1499   23.5649 H         1 CTS         0.0674
     17 H4         21.0563  -19.3486   26.0607 H         1 CTS         0.0649
     18 H5         21.2909  -17.0725   24.0323 H         1 CTS         0.0678
     19 H6         19.0843  -19.1174   24.7342 H         1 CTS         0.0904
     20 H7         17.8853  -17.0646   24.0355 H         1 CTS         0.0653
     21 H8         22.1281  -21.1995   25.4348 H         1 CTS         0.2101
     22 H9         23.3117  -18.9924   26.2687 H         1 CTS         0.2100
     23 H10        19.6641  -16.1520   25.3921 H         1 CTS         0.2102
     24 H11        19.8742  -16.0348   23.1916 H         1 CTS         0.2100
     25 H12        20.7807  -18.4564   22.3579 H         1 CTS         0.2039
     26 H13        17.5896  -18.0198   21.4775 H         1 CTS         0.0344
     27 H14        17.0889  -19.0334   22.8734 H         1 CTS         0.0344
     28 H15        18.7486  -20.5646   22.3258 H         1 CTS         0.0815
     29 H16        19.3015  -19.5103   20.9807 H         1 CTS         0.0815
@<TRIPOS>BOND
     1    1    2 1  
     2    1   11 1  
     3    2    3 1  
     4    2    7 1  
     5    3    4 1  
     6    3    8 1  
     7    4    5 1  
     8    4    9 1  
     9    5    6 1  
    10    5   11 1  
    11    6   10 1  
    12    6   12 1  
    13   11   13 1  
    14   12   13 1  
    15    1   14 1  
    16    1   15 1  
    17    2   16 1  
    18    3   17 1  
    19    4   18 1  
    20    5   19 1  
    21    6   20 1  
    22    7   21 1  
    23    8   22 1  
    24    9   23 1  
    25   10   24 1  
    26   11   25 1  
    27   12   26 1  
    28   12   27 1  
    29   13   28 1  
    30   13   29 1  
@<TRIPOS>SUBSTRUCTURE
     1 CTS         1

