### 
### Created by X-TOOL on Mon Sep 10 21:13:14 2018
### 

@<TRIPOS>MOLECULE
4ij1_ligand
   28    29     1     0     0
SMALL
GAST_HUCK


@<TRIPOS>ATOM
      1 OAA         7.3740    3.6460   27.1310 O.co2     1 17C        -0.5646
      2 OAB         3.5830    1.1730   29.2050 O.co2     1 17C        -0.5646
      3 OAC         8.5270    3.1560   25.3520 O.co2     1 17C        -0.5646
      4 OAD         5.1170    2.5240   28.3980 O.co2     1 17C        -0.5646
      5 CAE        10.7050    0.1150   28.6140 C.ar      1 17C        -0.0695
      6 CAF         7.1580    1.1210   32.7180 C.ar      1 17C        -0.0695
      7 CAG        11.1010    0.6470   27.3950 C.ar      1 17C        -0.0703
      8 CAH         5.7740    1.0360   32.8270 C.ar      1 17C        -0.0703
      9 CAI         9.5010    0.5190   29.1800 C.ar      1 17C        -0.0356
     10 CAJ         7.7460    1.4060   31.4930 C.ar      1 17C        -0.0356
     11 CAK        10.2900    1.5770   26.7550 C.ar      1 17C        -0.0578
     12 CAL         4.9770    1.2430   31.7020 C.ar      1 17C        -0.0578
     13 NAM         7.4890    1.8790   29.1170 N.pl3     1 17C        -0.2695
     14 CAN         8.2790    2.9900   26.5690 C.2       1 17C         0.0569
     15 CAO         4.7030    1.7450   29.2850 C.2       1 17C         0.0569
     16 CAP         8.6770    1.4670   28.5660 C.ar      1 17C         0.0741
     17 CAQ         6.9650    1.5960   30.3540 C.ar      1 17C         0.0741
     18 CAR         9.0890    1.9840   27.3320 C.ar      1 17C         0.0321
     19 CAS         5.5790    1.5230   30.4790 C.ar      1 17C         0.0321
     20 H          11.3302   -0.6107   29.1215 H         1 17C         0.0607
     21 H           7.7795    0.9642   33.5922 H         1 17C         0.0607
     22 H          12.0376    0.3390   26.9444 H         1 17C         0.0522
     23 H           5.3166    0.8096   33.7834 H         1 17C         0.0522
     24 H           9.1922    0.0864   30.1248 H         1 17C         0.0538
     25 H           8.8250    1.4817   31.4214 H         1 17C         0.0538
     26 H          10.5944    1.9888   25.7996 H         1 17C         0.0619
     27 H           3.8972    1.1863   31.7793 H         1 17C         0.0619
     28 H           6.9098    2.4852   28.5187 H         1 17C         0.2110
@<TRIPOS>BOND
     1   14    1 ar 
     2   15    2 ar 
     3   14    3 ar 
     4   15    4 ar 
     5    5    7 ar 
     6    9    5 ar 
     7    8    6 ar 
     8    6   10 ar 
     9    7   11 ar 
    10   12    8 ar 
    11   16    9 ar 
    12   10   17 ar 
    13   11   18 ar 
    14   19   12 ar 
    15   13   16 1  
    16   17   13 1  
    17   18   14 1  
    18   15   19 1  
    19   16   18 ar 
    20   17   19 ar 
    21    5   20 1  
    22    6   21 1  
    23    7   22 1  
    24    8   23 1  
    25    9   24 1  
    26   10   25 1  
    27   11   26 1  
    28   12   27 1  
    29   13   28 1  
@<TRIPOS>SUBSTRUCTURE
     1 17C         1

