### 
### Created by X-TOOL on Fri Sep 26 17:34:58 2014
### 

@<TRIPOS>MOLECULE
4ijh_ligand
   34    37     1     0     0
SMALL
GAST_HUCK


@<TRIPOS>ATOM
      1 C01        12.9810  -10.2520   22.2960 C.ar      1 1EJ        -0.0251
      2 C02        13.5760   -9.3580   21.4490 C.ar      1 1EJ         0.1350
      3 C03        14.2660   -8.2720   21.9740 C.ar      1 1EJ        -0.0251
      4 C04        14.3150   -8.0680   23.3360 C.ar      1 1EJ        -0.0489
      5 C05        13.7310   -8.9820   24.1800 C.ar      1 1EJ         0.0278
      6 C06        13.0440  -10.0580   23.6700 C.ar      1 1EJ        -0.0489
      7 C07        13.7770   -8.7390   25.6140 C.2       1 1EJ         0.1666
      8 N08        13.9810   -9.6230   26.6230 N.pl3     1 1EJ        -0.1615
      9 C09        13.9270   -8.9090   27.7620 C.2       1 1EJ         0.2116
     10 N10        13.6470   -7.6580   27.4720 N.2       1 1EJ        -0.2542
     11 N11        13.5770   -7.5340   26.1480 N.2       1 1EJ        -0.2635
     12 C12        14.2250  -11.0090   26.4090 C.ar      1 1EJ         0.0977
     13 C13        15.3380  -11.3290   25.6660 C.ar      1 1EJ        -0.0137
     14 C14        15.5870  -12.6690   25.3850 C.ar      1 1EJ         0.0365
     15 C15        14.7070  -13.6510   25.8380 C.ar      1 1EJ        -0.0106
     16 C16        13.5760  -13.3170   26.6100 C.ar      1 1EJ        -0.0658
     17 C17        13.3300  -11.9730   26.8910 C.ar      1 1EJ        -0.0335
     18 S18        14.1390   -9.5770   29.3370 S.3       1 1EJ        -0.0551
     19 S19        16.8590  -13.3930   24.5020 S.3       1 1EJ        -0.0305
     20 C20        16.2880  -14.9890   24.7110 C.2       1 1EJ         0.0770
     21 C21        15.1040  -14.9780   25.4430 C.2       1 1EJ         0.0530
     22 C22        17.0120  -16.1100   24.0950 C.2       1 1EJ         0.0725
     23 O23        16.6690  -17.2820   24.2910 O.co2     1 1EJ        -0.5607
     24 O24        17.9510  -15.7880   23.3330 O.co2     1 1EJ        -0.5607
     25 CL2        14.1600  -16.3470   25.9000 Cl        1 1EJ        -0.0836
     26 F26        13.4900   -9.5340   20.1280 F         1 1EJ        -0.1812
     27 H1         12.4595  -11.1133   21.8944 H         1 1EJ         0.0611
     28 H2         14.7691   -7.5807   21.3077 H         1 1EJ         0.0611
     29 H3         14.8109   -7.1924   23.7390 H         1 1EJ         0.0633
     30 H4         12.5520  -10.7543   24.3394 H         1 1EJ         0.0633
     31 H5         16.0062  -10.5544   25.3074 H         1 1EJ         0.0530
     32 H6         12.9104  -14.0894   26.9781 H         1 1EJ         0.0575
     33 H7         12.4626  -11.6800   27.4714 H         1 1EJ         0.0540
     34 H8         14.3456  -10.5605   29.2585 H         1 1EJ         0.1321
@<TRIPOS>BOND
     1    1    2 ar 
     2    1    6 ar 
     3    2    3 ar 
     4    2   26 1  
     5    3    4 ar 
     6    4    5 ar 
     7    5    6 ar 
     8    5    7 1  
     9    7    8 1  
    10    7   11 2  
    11    8    9 1  
    12    8   12 1  
    13    9   10 2  
    14    9   18 1  
    15   10   11 1  
    16   12   13 ar 
    17   12   17 ar 
    18   13   14 ar 
    19   14   15 ar 
    20   14   19 1  
    21   15   16 ar 
    22   15   21 1  
    23   16   17 ar 
    24   19   20 1  
    25   20   21 2  
    26   20   22 1  
    27   21   25 1  
    28   22   23 ar 
    29   22   24 ar 
    30    1   27 1  
    31    3   28 1  
    32    4   29 1  
    33    6   30 1  
    34   13   31 1  
    35   16   32 1  
    36   17   33 1  
    37   18   34 1  
@<TRIPOS>SUBSTRUCTURE
     1 1EJ         1

