### 
### Created by X-TOOL on Mon Sep 10 21:13:14 2018
### 

@<TRIPOS>MOLECULE
4ijl_ligand
   37    40     1     0     0
SMALL
GAST_HUCK


@<TRIPOS>ATOM
      1 C01        -5.1840  -14.6600    6.0380 C.ar      1 1EK        -0.0692
      2 C02        -6.3150  -14.0510    5.4970 C.ar      1 1EK        -0.0483
      3 C03        -6.1830  -12.8380    4.8190 C.ar      1 1EK         0.0397
      4 C04        -4.9230  -12.2460    4.6750 C.ar      1 1EK        -0.0052
      5 C05        -3.7850  -12.8440    5.2140 C.ar      1 1EK        -0.0638
      6 C06        -3.9330  -14.0530    5.8940 C.ar      1 1EK        -0.0703
      7 S07        -7.2890  -11.8090    4.0390 S.3       1 1EK        -0.0275
      8 C08        -6.2210  -10.6340    3.4950 C.2       1 1EK         0.1006
      9 C09        -4.9490  -11.0080    3.9390 C.2       1 1EK         0.0579
     10 C10        -6.5660   -9.3950    2.7470 C.2       1 1EK         0.1807
     11 N11        -6.0540   -8.9240    1.5540 N.pl3     1 1EK        -0.1582
     12 C12        -6.7130   -7.7400    1.3340 C.2       1 1EK         0.2179
     13 N13        -7.5610   -7.5150    2.3290 N.2       1 1EK        -0.2510
     14 N14        -7.4690   -8.5170    3.1910 N.2       1 1EK        -0.2607
     15 S15        -6.4960   -6.6720   -0.0390 S.3       1 1EK        -0.0219
     16 C16        -7.9270   -5.6460    0.0200 C.3       1 1EK         0.0678
     17 C17        -8.0160   -4.8590   -1.2300 C.2       1 1EK         0.0477
     18 O18        -8.9280   -4.0070   -1.3810 O.co2     1 1EK        -0.5679
     19 O19        -7.1240   -5.0800   -2.1130 O.co2     1 1EK        -0.5679
     20 C20        -5.0800   -9.4800    0.6600 C.ar      1 1EK         0.1031
     21 C21        -3.8840   -8.8080    0.4140 C.ar      1 1EK        -0.0275
     22 C22        -2.9590   -9.3690   -0.4700 C.ar      1 1EK        -0.0664
     23 C23        -3.2340  -10.5780   -1.1060 C.ar      1 1EK        -0.0692
     24 C24        -4.4360  -11.2440   -0.8620 C.ar      1 1EK        -0.0664
     25 C25        -5.3600  -10.6810    0.0170 C.ar      1 1EK        -0.0275
     26 CL2        -3.5140  -10.0940    3.6330 Cl        1 1EK        -0.0821
     27 H1         -5.2742  -15.6010    6.5685 H         1 1EK         0.0578
     28 H2         -7.2889  -14.5154    5.6019 H         1 1EK         0.0571
     29 H3         -2.8104  -12.3816    5.1075 H         1 1EK         0.0581
     30 H4         -3.0589  -14.5322    6.3200 H         1 1EK         0.0561
     31 H5         -7.8547   -4.9635    0.8796 H         1 1EK         0.0577
     32 H6         -8.8248   -6.2730    0.1242 H         1 1EK         0.0577
     33 H7         -3.6744   -7.8630    0.9019 H         1 1EK         0.0580
     34 H8         -2.0212   -8.8605   -0.6624 H         1 1EK         0.0599
     35 H9         -2.5113  -11.0030   -1.7931 H         1 1EK         0.0554
     36 H10        -4.6486  -12.1881   -1.3503 H         1 1EK         0.0599
     37 H11        -6.3032  -11.1827    0.2006 H         1 1EK         0.0580
@<TRIPOS>BOND
     1    1    2 ar 
     2    1    6 ar 
     3    2    3 ar 
     4    3    4 ar 
     5    3    7 1  
     6    4    5 ar 
     7    4    9 1  
     8    5    6 ar 
     9    7    8 1  
    10    8    9 2  
    11    8   10 1  
    12    9   26 1  
    13   10   11 1  
    14   10   14 2  
    15   11   12 1  
    16   11   20 1  
    17   12   13 2  
    18   12   15 1  
    19   13   14 1  
    20   15   16 1  
    21   16   17 1  
    22   17   18 ar 
    23   17   19 ar 
    24   20   21 ar 
    25   20   25 ar 
    26   21   22 ar 
    27   22   23 ar 
    28   23   24 ar 
    29   24   25 ar 
    30    1   27 1  
    31    2   28 1  
    32    5   29 1  
    33    6   30 1  
    34   16   31 1  
    35   16   32 1  
    36   21   33 1  
    37   22   34 1  
    38   23   35 1  
    39   24   36 1  
    40   25   37 1  
@<TRIPOS>SUBSTRUCTURE
     1 1EK         1

