### 
### Created by X-TOOL on Mon Sep 10 21:13:16 2018
### 

@<TRIPOS>MOLECULE
4ijp_ligand
   42    45     1     0     0
SMALL
GAST_HUCK


@<TRIPOS>ATOM
      1 CAB       -20.6170  -32.6050   18.5280 C.ar      1 1EH        -0.0148
      2 CAE       -19.2940  -33.0170   18.6980 C.ar      1 1EH         0.1095
      3 CL        -18.0010  -31.9730   18.2200 Cl        1 1EH        -0.0421
      4 NAH       -19.0190  -34.2260   19.2320 N.ar      1 1EH        -0.2917
      5 CAF       -19.9870  -35.0570   19.6050 C.ar      1 1EH         0.0004
      6 CAC       -21.3270  -34.6980   19.4660 C.ar      1 1EH        -0.0337
      7 CAA       -21.6470  -33.4460   18.9450 C.ar      1 1EH        -0.0035
      8 CAD       -23.1130  -33.0640   18.7430 C.3       1 1EH         0.0698
      9 NAG       -23.5570  -31.9150   19.5560 N.am      1 1EH        -0.2743
     10 CAM       -23.3420  -30.6450   19.2060 C.2       1 1EH         0.2107
     11 OAP       -22.7370  -30.3060   18.1900 O.2       1 1EH        -0.3903
     12 CAL       -23.9400  -29.5810   20.1390 C.2       1 1EH         0.1010
     13 SAK       -23.7040  -27.9280   19.9910 S.3       1 1EH        -0.0213
     14 CAO       -24.8090  -29.7910   21.1340 C.2       1 1EH        -0.0512
     15 CAN       -25.2160  -28.6620   21.7580 C.2       1 1EH        -0.0572
     16 CAJ       -24.7270  -27.5110   21.2650 C.2       1 1EH         0.0407
     17 CAV       -24.9360  -26.1810   21.6550 C.ar      1 1EH        -0.0061
     18 CAY       -23.9090  -25.2430   21.5000 C.ar      1 1EH        -0.0601
     19 CAX       -24.0910  -23.9090   21.8580 C.ar      1 1EH        -0.0672
     20 CAT       -25.3250  -23.4910   22.3460 C.ar      1 1EH        -0.0469
     21 CAQ       -26.3650  -24.4110   22.4840 C.ar      1 1EH         0.0421
     22 SAS       -27.9380  -24.2280   23.0560 S.3       1 1EH        -0.0232
     23 CAR       -26.1970  -25.7710   22.1360 C.ar      1 1EH        -0.0063
     24 CAU       -27.3220  -26.4980   22.3570 C.2       1 1EH        -0.0360
     25 CAW       -28.3680  -25.8270   22.8530 C.2       1 1EH         0.1045
     26 CAZ       -29.7420  -26.4150   23.2030 C.2       1 1EH         0.2116
     27 OBB       -30.5640  -25.7530   23.8350 O.2       1 1EH        -0.3865
     28 NBA       -29.9570  -27.6620   22.7890 N.am      1 1EH        -0.3003
     29 H1        -20.8400  -31.6444   18.0779 H         1 1EH         0.0632
     30 H2        -19.7318  -36.0245   20.0219 H         1 1EH         0.0793
     31 H3        -22.1116  -35.3857   19.7602 H         1 1EH         0.0627
     32 H4        -23.7350  -33.9326   19.0050 H         1 1EH         0.0708
     33 H5        -23.2611  -32.8135   17.6822 H         1 1EH         0.0708
     34 H6        -24.0427  -32.0969   20.4110 H         1 1EH         0.1866
     35 H7        -25.1579  -30.7831   21.4167 H         1 1EH         0.0529
     36 H8        -25.8975  -28.6841   22.6071 H         1 1EH         0.0470
     37 H9        -22.9551  -25.5600   21.0942 H         1 1EH         0.0570
     38 H10       -23.2763  -23.2011   21.7570 H         1 1EH         0.0590
     39 H11       -25.4782  -22.4530   22.6184 H         1 1EH         0.0576
     40 H12       -27.3703  -27.5647   22.1431 H         1 1EH         0.0548
     41 H13       -30.8304  -28.1092   22.9817 H         1 1EH         0.1803
     42 H14       -29.2451  -28.1514   22.2854 H         1 1EH         0.1803
@<TRIPOS>BOND
     1    1    2 ar 
     2    1    7 ar 
     3    2    3 1  
     4    2    4 ar 
     5    4    5 ar 
     6    5    6 ar 
     7    6    7 ar 
     8    7    8 1  
     9    8    9 1  
    10    9   10 am 
    11   10   11 2  
    12   10   12 1  
    13   12   13 1  
    14   12   14 2  
    15   13   16 1  
    16   14   15 1  
    17   15   16 2  
    18   16   17 1  
    19   17   18 ar 
    20   17   23 ar 
    21   18   19 ar 
    22   19   20 ar 
    23   20   21 ar 
    24   21   22 1  
    25   21   23 ar 
    26   22   25 1  
    27   23   24 1  
    28   24   25 2  
    29   25   26 1  
    30   26   27 2  
    31   26   28 am 
    32    1   29 1  
    33    5   30 1  
    34    6   31 1  
    35    8   32 1  
    36    8   33 1  
    37    9   34 1  
    38   14   35 1  
    39   15   36 1  
    40   18   37 1  
    41   19   38 1  
    42   20   39 1  
    43   24   40 1  
    44   28   41 1  
    45   28   42 1  
@<TRIPOS>SUBSTRUCTURE
     1 1EH         1

