### 
### Created by X-TOOL on Mon Sep 10 21:13:13 2018
### 

@<TRIPOS>MOLECULE
4ikr_ligand
   44    46     1     0     0
SMALL
GAST_HUCK


@<TRIPOS>ATOM
      1 CL         -4.0660   -3.9660   17.1000 Cl        1 PVP        -0.0712
      2 C8         -3.2660   -4.8360   15.7820 C.ar      1 PVP         0.1079
      3 C9         -3.3480   -4.2860   14.5100 C.ar      1 PVP         0.0418
      4 C16        -4.0260   -2.9840   14.1980 C.3       1 PVP        -0.0126
      5 N3         -2.7230   -4.9040   13.5180 N.ar      1 PVP        -0.2765
      6 C6         -2.1090   -6.0910   13.7360 C.ar      1 PVP         0.1192
      7 C5         -1.4400   -6.7680   12.6330 C.ar      1 PVP         0.0864
      8 N23        -1.2040   -6.0520   11.5080 N.ar      1 PVP        -0.2829
      9 C1         -0.5470   -6.6410   10.4990 C.ar      1 PVP         0.0147
     10 C2         -0.1680   -7.9840   10.5630 C.ar      1 PVP        -0.0308
     11 C3         -0.4340   -8.7260   11.6980 C.ar      1 PVP        -0.0381
     12 C4         -1.0550   -8.0960   12.7620 C.ar      1 PVP        -0.0194
     13 N2         -2.0310   -6.6440   14.9510 N.ar      1 PVP        -0.2536
     14 C7         -2.5990   -6.0480   15.9980 C.ar      1 PVP         0.1371
     15 N4         -2.4010   -6.7210   17.2100 N.pl3     1 PVP        -0.2780
     16 C13        -2.2600   -8.1750   17.1550 C.3       1 PVP         0.0722
     17 C12        -2.2240   -8.8540   18.5310 C.3       1 PVP        -0.0107
     18 N5         -2.5600   -7.9670   19.6540 N.4       1 PVP         0.2398
     19 C11        -3.0640   -6.6110   19.4760 C.3       1 PVP        -0.0107
     20 C10        -2.1610   -5.9550   18.4440 C.3       1 PVP         0.0722
     21 C14        -2.3870   -8.4500   21.0250 C.3       1 PVP        -0.0080
     22 C15        -3.5300   -9.4290   21.2940 C.3       1 PVP         0.0841
     23 O1         -3.1500  -10.7780   20.9720 O.3       1 PVP        -0.3898
     24 H1         -3.9482   -2.7792   13.1200 H         1 PVP         0.0440
     25 H2         -3.5403   -2.1735   14.7612 H         1 PVP         0.0440
     26 H3         -5.0864   -3.0450   14.4840 H         1 PVP         0.0440
     27 H4         -0.3046   -6.0629    9.6146 H         1 PVP         0.0839
     28 H5          0.3356   -8.4449    9.7209 H         1 PVP         0.0734
     29 H6         -0.1633   -9.7742   11.7534 H         1 PVP         0.0745
     30 H7         -1.2388   -8.6329   13.6856 H         1 PVP         0.0751
     31 H8         -1.3235   -8.4115   16.6286 H         1 PVP         0.0578
     32 H9         -3.1112   -8.5834   16.5905 H         1 PVP         0.0578
     33 H10        -1.2097   -9.2470   18.6945 H         1 PVP         0.0835
     34 H11        -2.9430   -9.6865   18.5230 H         1 PVP         0.0835
     35 H12        -3.5048   -8.3178   19.6372 H         1 PVP         0.2036
     36 H13        -3.0196   -6.0598   20.4269 H         1 PVP         0.0835
     37 H14        -4.1024   -6.6346   19.1140 H         1 PVP         0.0835
     38 H15        -2.4319   -4.8980   18.3052 H         1 PVP         0.0578
     39 H16        -1.1062   -6.0264   18.7479 H         1 PVP         0.0578
     40 H17        -2.4343   -7.6087   21.7321 H         1 PVP         0.0837
     41 H18        -1.4183   -8.9610   21.1274 H         1 PVP         0.0837
     42 H19        -4.3971   -9.1448   20.6797 H         1 PVP         0.0610
     43 H20        -3.8023   -9.3780   22.3585 H         1 PVP         0.0610
     44 H21        -3.8783  -11.3618   21.1490 H         1 PVP         0.2096
@<TRIPOS>BOND
     1    1    2 1  
     2    2    3 ar 
     3    2   14 ar 
     4    3    4 1  
     5    3    5 ar 
     6    5    6 ar 
     7    6    7 1  
     8    6   13 ar 
     9    7    8 ar 
    10    7   12 ar 
    11    8    9 ar 
    12    9   10 ar 
    13   10   11 ar 
    14   11   12 ar 
    15   13   14 ar 
    16   14   15 1  
    17   15   16 1  
    18   15   20 1  
    19   16   17 1  
    20   17   18 1  
    21   18   19 1  
    22   18   21 1  
    23   19   20 1  
    24   21   22 1  
    25   22   23 1  
    26    4   24 1  
    27    4   25 1  
    28    4   26 1  
    29    9   27 1  
    30   10   28 1  
    31   11   29 1  
    32   12   30 1  
    33   16   31 1  
    34   16   32 1  
    35   17   33 1  
    36   17   34 1  
    37   18   35 1  
    38   19   36 1  
    39   19   37 1  
    40   20   38 1  
    41   20   39 1  
    42   21   40 1  
    43   21   41 1  
    44   22   42 1  
    45   22   43 1  
    46   23   44 1  
@<TRIPOS>SUBSTRUCTURE
     1 PVP         1

