### 
### Created by X-TOOL on Mon Sep 10 21:13:14 2018
### 

@<TRIPOS>MOLECULE
4iks_ligand
   44    46     1     0     0
SMALL
GAST_HUCK


@<TRIPOS>ATOM
      1 F1         14.8620    7.1750   15.9130 F         1 TFD        -0.2161
      2 C18        14.7230    7.7890   17.0760 C.3       1 TFD         0.3895
      3 F2         14.1600    8.9680   16.8880 F         1 TFD        -0.2161
      4 F3         13.9420    7.0650   17.8630 F         1 TFD        -0.2161
      5 C14        16.0880    7.9800   17.6810 C.ar      1 TFD         0.1037
      6 N6         16.2370    8.5960   18.8850 N.ar      1 TFD        -0.2585
      7 C15        17.2150    7.5300   16.9890 C.ar      1 TFD        -0.0157
      8 C16        18.4820    7.7060   17.5360 C.ar      1 TFD        -0.0203
      9 C17        18.6090    8.3330   18.7710 C.ar      1 TFD         0.0153
     10 C13        17.4680    8.7740   19.4420 C.ar      1 TFD         0.1412
     11 N5         17.5980    9.3830   20.6490 N.pl3     1 TFD        -0.2991
     12 C11        17.4970    8.6450   21.8990 C.3       1 TFD         0.0482
     13 C10        16.1020    8.0590   22.1220 C.3       1 TFD         0.0491
     14 N4         15.8570    6.9590   21.1990 N.pl3     1 TFD        -0.3002
     15 C7         14.6750    6.3030   21.1540 C.ar      1 TFD         0.1343
     16 C8         14.6010    5.0740   20.5390 C.ar      1 TFD         0.1077
     17 CL         16.1150    4.4240   19.8550 Cl        1 TFD        -0.0713
     18 N3         13.5710    6.8380   21.6820 N.ar      1 TFD        -0.2537
     19 C6         12.4040    6.1620   21.6140 C.ar      1 TFD         0.1192
     20 N2         12.3070    4.9430   21.0360 N.ar      1 TFD        -0.2765
     21 C9         13.4010    4.3820   20.4690 C.ar      1 TFD         0.0418
     22 C12        13.2880    3.0300   19.8120 C.3       1 TFD        -0.0126
     23 C5         11.2290    6.7650   22.2700 C.ar      1 TFD         0.0864
     24 N1         10.1470    5.9960   22.5150 N.ar      1 TFD        -0.2829
     25 C1          9.0830    6.5220   23.1460 C.ar      1 TFD         0.0147
     26 C2          9.0880    7.8500   23.5690 C.ar      1 TFD        -0.0308
     27 C3         10.2040    8.6410   23.3470 C.ar      1 TFD        -0.0381
     28 C4         11.2940    8.0830   22.7080 C.ar      1 TFD        -0.0194
     29 H1         17.1024    7.0441   16.0266 H         1 TFD         0.0881
     30 H2         19.3609    7.3582   17.0053 H         1 TFD         0.0785
     31 H3         19.5894    8.4783   19.2099 H         1 TFD         0.0878
     32 H4         17.7733   10.3975   20.6805 H         1 TFD         0.1820
     33 H5         17.7306    9.3260   22.7306 H         1 TFD         0.0539
     34 H6         18.2268    7.8221   21.8828 H         1 TFD         0.0539
     35 H7         15.3491    8.8439   21.9576 H         1 TFD         0.0543
     36 H8         16.0259    7.6885   23.1549 H         1 TFD         0.0543
     37 H9         16.6102    6.6707   20.5583 H         1 TFD         0.1843
     38 H10        12.2481    2.6770   19.8760 H         1 TFD         0.0440
     39 H11        13.9496    2.3165   20.3251 H         1 TFD         0.0440
     40 H12        13.5837    3.1098   18.7555 H         1 TFD         0.0440
     41 H13         8.2101    5.9056   23.3281 H         1 TFD         0.0839
     42 H14         8.2205    8.2634   24.0707 H         1 TFD         0.0734
     43 H15        10.2212    9.6762   23.6682 H         1 TFD         0.0745
     44 H16        12.1928    8.6679   22.5493 H         1 TFD         0.0751
@<TRIPOS>BOND
     1    1    2 1  
     2    2    3 1  
     3    2    4 1  
     4    2    5 1  
     5    5    6 ar 
     6    5    7 ar 
     7    6   10 ar 
     8    7    8 ar 
     9    8    9 ar 
    10    9   10 ar 
    11   10   11 1  
    12   11   12 1  
    13   12   13 1  
    14   13   14 1  
    15   14   15 1  
    16   15   16 ar 
    17   15   18 ar 
    18   16   17 1  
    19   16   21 ar 
    20   18   19 ar 
    21   19   20 ar 
    22   19   23 1  
    23   20   21 ar 
    24   21   22 1  
    25   23   24 ar 
    26   23   28 ar 
    27   24   25 ar 
    28   25   26 ar 
    29   26   27 ar 
    30   27   28 ar 
    31    7   29 1  
    32    8   30 1  
    33    9   31 1  
    34   11   32 1  
    35   12   33 1  
    36   12   34 1  
    37   13   35 1  
    38   13   36 1  
    39   14   37 1  
    40   22   38 1  
    41   22   39 1  
    42   22   40 1  
    43   25   41 1  
    44   26   42 1  
    45   27   43 1  
    46   28   44 1  
@<TRIPOS>SUBSTRUCTURE
     1 TFD         1

