### 
### Created by X-TOOL on Mon Sep 10 21:13:14 2018
### 

@<TRIPOS>MOLECULE
4ikt_ligand
   44    46     1     0     0
SMALL
GAST_HUCK


@<TRIPOS>ATOM
      1 F3         20.5010   -0.1900   22.3850 F         1 TFV        -0.2299
      2 C18        19.8660   -0.7180   21.3620 C.3       1 TFV         0.3691
      3 F1         18.5810   -0.7450   21.6690 F         1 TFV        -0.2299
      4 F2         20.0660    0.0860   20.3270 F         1 TFV        -0.2299
      5 C15        20.3630   -2.1120   21.0480 C.ar      1 TFV         0.0577
      6 C14        19.6780   -2.9120   20.1270 C.ar      1 TFV         0.0318
      7 N6         20.1060   -4.1540   19.8220 N.ar      1 TFV        -0.2434
      8 C16        21.5240   -2.6230   21.6420 C.ar      1 TFV        -0.0262
      9 C17        21.9520   -3.9180   21.3120 C.ar      1 TFV         0.0136
     10 C13        21.2240   -4.6860   20.3910 C.ar      1 TFV         0.1470
     11 N5         21.6590   -5.9400   20.0730 N.pl3     1 TFV        -0.2872
     12 C11        20.8780   -6.9170   19.3210 C.3       1 TFV         0.0548
     13 C10        21.1440   -6.8820   17.8120 C.3       1 TFV         0.0506
     14 N4         20.6410   -5.6440   17.2550 N.pl3     1 TFV        -0.3000
     15 C7         20.6460   -5.3630   15.9340 C.ar      1 TFV         0.1343
     16 N3         21.2100   -6.2010   15.0310 N.ar      1 TFV        -0.2537
     17 C8         20.0510   -4.1810   15.5070 C.ar      1 TFV         0.1077
     18 CL         19.3190   -3.0500   16.6800 Cl        1 TFV        -0.0713
     19 C9         20.0300   -3.8360   14.1740 C.ar      1 TFV         0.0418
     20 C12        19.3940   -2.5450   13.7270 C.3       1 TFV        -0.0126
     21 N2         20.6230   -4.6840   13.3000 N.ar      1 TFV        -0.2765
     22 C6         21.1670   -5.8540   13.7160 C.ar      1 TFV         0.1192
     23 C5         21.8430   -6.6870   12.7000 C.ar      1 TFV         0.0864
     24 N1         22.1870   -6.0450   11.5560 N.ar      1 TFV        -0.2829
     25 C4         22.2070   -8.0110   12.9060 C.ar      1 TFV        -0.0194
     26 C3         22.8700   -8.6720   11.8840 C.ar      1 TFV        -0.0381
     27 C2         23.2100   -8.0000   10.7210 C.ar      1 TFV        -0.0308
     28 C1         22.8410   -6.6610   10.5690 C.ar      1 TFV         0.0147
     29 H1         18.7851   -2.5257   19.6489 H         1 TFV         0.1052
     30 H2         22.0862   -2.0242   22.3494 H         1 TFV         0.0902
     31 H3         22.8463   -4.3255   21.7693 H         1 TFV         0.0698
     32 H4         22.6014   -6.2152   20.3845 H         1 TFV         0.1941
     33 H5         19.8103   -6.7144   19.4910 H         1 TFV         0.0558
     34 H6         21.1246   -7.9218   19.6947 H         1 TFV         0.0558
     35 H7         20.6365   -7.7315   17.3317 H         1 TFV         0.0544
     36 H8         22.2266   -6.9512   17.6301 H         1 TFV         0.0544
     37 H9         20.2585   -4.9391   17.9014 H         1 TFV         0.1843
     38 H10        19.4792   -2.4535   12.6341 H         1 TFV         0.0440
     39 H11        19.9066   -1.6983   14.2069 H         1 TFV         0.0440
     40 H12        18.3320   -2.5409   14.0136 H         1 TFV         0.0440
     41 H13        21.9792   -8.5132   13.8393 H         1 TFV         0.0751
     42 H14        23.1238   -9.7200   11.9951 H         1 TFV         0.0745
     43 H15        23.7575   -8.5087    9.9358 H         1 TFV         0.0734
     44 H16        23.0838   -6.1271    9.6574 H         1 TFV         0.0839
@<TRIPOS>BOND
     1    1    2 1  
     2    2    3 1  
     3    2    4 1  
     4    2    5 1  
     5    5    6 ar 
     6    5    8 ar 
     7    6    7 ar 
     8    7   10 ar 
     9    8    9 ar 
    10    9   10 ar 
    11   10   11 1  
    12   11   12 1  
    13   12   13 1  
    14   13   14 1  
    15   14   15 1  
    16   15   16 ar 
    17   15   17 ar 
    18   16   22 ar 
    19   17   18 1  
    20   17   19 ar 
    21   19   20 1  
    22   19   21 ar 
    23   21   22 ar 
    24   22   23 1  
    25   23   24 ar 
    26   23   25 ar 
    27   24   28 ar 
    28   25   26 ar 
    29   26   27 ar 
    30   27   28 ar 
    31    6   29 1  
    32    8   30 1  
    33    9   31 1  
    34   11   32 1  
    35   12   33 1  
    36   12   34 1  
    37   13   35 1  
    38   13   36 1  
    39   14   37 1  
    40   20   38 1  
    41   20   39 1  
    42   20   40 1  
    43   25   41 1  
    44   26   42 1  
    45   27   43 1  
    46   28   44 1  
@<TRIPOS>SUBSTRUCTURE
     1 TFV         1

