### 
### Created by X-TOOL on Mon Sep 10 21:13:14 2018
### 

@<TRIPOS>MOLECULE
4iku_ligand
   44    46     1     0     0
SMALL
GAST_HUCK


@<TRIPOS>ATOM
      1 CL         19.7080   -3.0930   16.8680 Cl        1 SHX        -0.0713
      2 C8         20.3740   -4.2020   15.6480 C.ar      1 SHX         0.1078
      3 C7         20.3920   -3.8150   14.3330 C.ar      1 SHX         0.0418
      4 C19        19.8370   -2.4930   13.8860 C.3       1 SHX        -0.0126
      5 N2         20.9280   -4.6610   13.4430 N.ar      1 SHX        -0.2765
      6 C6         21.4140   -5.8580   13.8310 C.ar      1 SHX         0.1192
      7 C5         22.0770   -6.7050   12.8270 C.ar      1 SHX         0.0864
      8 C4         22.4580   -8.0180   13.0820 C.ar      1 SHX        -0.0194
      9 C3         23.1440   -8.7190   12.0940 C.ar      1 SHX        -0.0381
     10 C2         23.4660   -8.0920   10.8900 C.ar      1 SHX        -0.0308
     11 C1         23.1000   -6.7610   10.7100 C.ar      1 SHX         0.0147
     12 N1         22.4310   -6.0960   11.6640 N.ar      1 SHX        -0.2829
     13 N3         21.4180   -6.2440   15.1320 N.ar      1 SHX        -0.2536
     14 C9         20.8940   -5.4140   16.0470 C.ar      1 SHX         0.1366
     15 N4         20.8490   -5.7630   17.3540 N.pl3     1 SHX        -0.2795
     16 C10        21.1480   -7.1040   17.7980 C.3       1 SHX         0.1387
     17 C11        22.0380   -7.0150   19.0020 C.2       1 SHX         0.2015
     18 N5         22.0780   -5.8660   19.6730 N.am      1 SHX        -0.2988
     19 O          22.7070   -7.9830   19.3270 O.2       1 SHX        -0.3945
     20 C12        19.8580   -7.8590   18.1320 C.3       1 SHX         0.0216
     21 C13        19.0130   -8.0220   16.8840 C.ar      1 SHX        -0.0385
     22 C18        17.9870   -7.1120   16.6020 C.ar      1 SHX        -0.0601
     23 C17        17.2220   -7.2630   15.4460 C.ar      1 SHX        -0.0686
     24 C16        17.4760   -8.3240   14.5740 C.ar      1 SHX        -0.0687
     25 C15        18.4950   -9.2300   14.8530 C.ar      1 SHX        -0.0686
     26 C14        19.2660   -9.0780   16.0040 C.ar      1 SHX        -0.0601
     27 H1         19.9566   -2.3945   12.7970 H         1 SHX         0.0440
     28 H2         20.3788   -1.6787   14.3894 H         1 SHX         0.0440
     29 H3         18.7692   -2.4374   14.1441 H         1 SHX         0.0440
     30 H4         22.2254   -8.4864   14.0315 H         1 SHX         0.0751
     31 H5         23.4279   -9.7519   12.2602 H         1 SHX         0.0745
     32 H6         23.9911   -8.6309   10.1097 H         1 SHX         0.0734
     33 H7         23.3590   -6.2552    9.7869 H         1 SHX         0.0839
     34 H8         20.5938   -5.0506   18.0528 H         1 SHX         0.1875
     35 H9         21.6758   -7.6421   16.9968 H         1 SHX         0.0827
     36 H10        22.6625   -5.7781   20.4796 H         1 SHX         0.1815
     37 H11        21.5235   -5.0907   19.3705 H         1 SHX         0.1815
     38 H12        19.2897   -7.2933   18.8850 H         1 SHX         0.0474
     39 H13        20.1106   -8.8518   18.5327 H         1 SHX         0.0474
     40 H14        17.7876   -6.2912   17.2814 H         1 SHX         0.0557
     41 H15        16.4301   -6.5568   15.2241 H         1 SHX         0.0599
     42 H16        16.8780   -8.4421   13.6776 H         1 SHX         0.0559
     43 H17        18.6889  -10.0535   14.1753 H         1 SHX         0.0599
     44 H18        20.0637   -9.7803   16.2172 H         1 SHX         0.0557
@<TRIPOS>BOND
     1    1    2 1  
     2    2    3 ar 
     3    2   14 ar 
     4    3    4 1  
     5    3    5 ar 
     6    5    6 ar 
     7    6    7 1  
     8    6   13 ar 
     9    7    8 ar 
    10    7   12 ar 
    11    8    9 ar 
    12    9   10 ar 
    13   10   11 ar 
    14   11   12 ar 
    15   13   14 ar 
    16   14   15 1  
    17   15   16 1  
    18   16   17 1  
    19   16   20 1  
    20   17   18 am 
    21   17   19 2  
    22   20   21 1  
    23   21   22 ar 
    24   21   26 ar 
    25   22   23 ar 
    26   23   24 ar 
    27   24   25 ar 
    28   25   26 ar 
    29    4   27 1  
    30    4   28 1  
    31    4   29 1  
    32    8   30 1  
    33    9   31 1  
    34   10   32 1  
    35   11   33 1  
    36   15   34 1  
    37   16   35 1  
    38   18   36 1  
    39   18   37 1  
    40   20   38 1  
    41   20   39 1  
    42   22   40 1  
    43   23   41 1  
    44   24   42 1  
    45   25   43 1  
    46   26   44 1  
@<TRIPOS>SUBSTRUCTURE
     1 SHX         1

