### 
### Created by X-TOOL on Mon Sep 10 21:13:14 2018
### 

@<TRIPOS>MOLECULE
4im0_ligand
   71    75     1     0     0
SMALL
GAST_HUCK


@<TRIPOS>ATOM
      1 CAM       103.8840    9.8990  -29.2550 C.3       1 1FV        -0.0331
      2 CAH       105.2070    9.1630  -29.4820 C.3       1 1FV        -0.0484
      3 CAN       105.3730    9.8940  -30.8150 C.3       1 1FV        -0.0331
      4 CBF       104.2680   10.8560  -30.3770 C.3       1 1FV         0.0486
      5 CAZ       104.8360   12.1550  -29.7950 C.2       1 1FV         0.1790
      6 OAA       105.4680   12.8840  -30.5640 O.2       1 1FV        -0.3968
      7 NAV       104.5850   12.3350  -28.4680 N.am      1 1FV        -0.2867
      8 CAI       104.9690   13.4630  -27.5570 C.3       1 1FV         0.0327
      9 CAG       106.0470   14.2880  -28.2100 C.3       1 1FV        -0.0125
     10 CAJ       107.3770   13.5580  -28.3920 C.3       1 1FV         0.0297
     11 NAW       107.9450   14.4600  -29.3760 N.pl3     1 1FV        -0.3058
     12 C4        108.7210   15.5080  -29.3500 C.ar      1 1FV         0.1184
     13 N3        109.2680   16.0670  -28.2820 N.ar      1 1FV        -0.2447
     14 C5        108.9430   16.0060  -30.6050 C.ar      1 1FV         0.0168
     15 CBG       108.2360   15.2510  -31.7380 C.3       1 1FV        -0.0054
     16 CAO       108.5120   15.7360  -33.1540 C.3       1 1FV        -0.0403
     17 CAP       107.1660   16.0300  -32.4860 C.3       1 1FV        -0.0403
     18 C6        109.7330   17.1320  -30.7480 C.ar      1 1FV         0.0015
     19 N1        110.2680   17.6600  -29.6510 N.ar      1 1FV        -0.2783
     20 C2        110.0580   17.1460  -28.4180 C.ar      1 1FV         0.1872
     21 NAX       110.6400   17.7410  -27.3560 N.pl3     1 1FV        -0.2497
     22 CBB       110.5330   17.3840  -26.0560 C.ar      1 1FV         0.0571
     23 CAF       111.2740   18.1090  -25.1260 C.ar      1 1FV        -0.0327
     24 CAD       109.7750   16.3000  -25.5950 C.ar      1 1FV        -0.0455
     25 CAB       109.7040   15.9640  -24.2520 C.ar      1 1FV        -0.0779
     26 CAC       110.4380   16.7100  -23.3440 C.ar      1 1FV        -0.0670
     27 CBA       111.2230   17.7730  -23.7780 C.ar      1 1FV        -0.0085
     28 CAS       111.9980   18.5530  -22.7130 C.3       1 1FV        -0.0006
     29 NBH       113.2430   17.8470  -22.3710 N.4       1 1FV         0.2502
     30 CAQ       113.8840   18.4760  -21.2130 C.3       1 1FV        -0.0064
     31 CAK       115.1750   17.7230  -20.8810 C.3       1 1FV         0.0878
     32 OAY       116.0890   17.7450  -22.0010 O.3       1 1FV        -0.3693
     33 CAL       115.4560   17.1220  -23.1310 C.3       1 1FV         0.0878
     34 CAR       114.1730   17.8580  -23.5100 C.3       1 1FV        -0.0064
     35 H1        103.7906   10.3718  -28.2662 H         1 1FV         0.0292
     36 H2        102.9872    9.2956  -29.4591 H         1 1FV         0.0292
     37 H3        105.1052    8.0718  -29.5762 H         1 1FV         0.0268
     38 H4        105.9853    9.3960  -28.7404 H         1 1FV         0.0268
     39 H5        105.1255    9.2891  -31.6998 H         1 1FV         0.0292
     40 H6        106.3569   10.3651  -30.9564 H         1 1FV         0.0292
     41 H7        103.4885   11.0557  -31.1270 H         1 1FV         0.0538
     42 H8        104.0635   11.6006  -28.0337 H         1 1FV         0.1851
     43 H9        105.3436   13.0558  -26.6063 H         1 1FV         0.0520
     44 H10       104.0894   14.0948  -27.3641 H         1 1FV         0.0520
     45 H11       106.2249   15.1770  -27.5870 H         1 1FV         0.0304
     46 H12       105.6878   14.6009  -29.2015 H         1 1FV         0.0304
     47 H13       107.2465   12.5381  -28.7828 H         1 1FV         0.0521
     48 H14       107.9672   13.5225  -27.4644 H         1 1FV         0.0521
     49 H15       107.6655   14.2103  -30.3354 H         1 1FV         0.1825
     50 H16       108.1211   14.1819  -31.5059 H         1 1FV         0.0437
     51 H17       108.5699   15.0141  -33.9820 H         1 1FV         0.0288
     52 H18       109.2306   16.5507  -33.3269 H         1 1FV         0.0288
     53 H19       106.9165   17.0564  -32.1789 H         1 1FV         0.0288
     54 H20       106.2557   15.5198  -32.8340 H         1 1FV         0.0288
     55 H21       109.9105   17.5703  -31.7234 H         1 1FV         0.0775
     56 H22       111.2323   18.5590  -27.5581 H         1 1FV         0.2157
     57 H23       111.8919   18.9371  -25.4540 H         1 1FV         0.0472
     58 H24       109.2248   15.7031  -26.3134 H         1 1FV         0.0479
     59 H25       109.0881   15.1362  -23.9196 H         1 1FV         0.0570
     60 H26       110.4002   16.4637  -22.2890 H         1 1FV         0.0462
     61 H27       111.3766   18.6514  -21.8107 H         1 1FV         0.0978
     62 H28       112.2423   19.5529  -23.1009 H         1 1FV         0.0978
     63 H29       113.0197   16.8912  -22.1417 H         1 1FV         0.2050
     64 H30       113.2033   18.4374  -20.3498 H         1 1FV         0.0837
     65 H31       114.1197   19.5245  -21.4475 H         1 1FV         0.0837
     66 H32       114.9300   16.6788  -20.6369 H         1 1FV         0.0613
     67 H33       115.6566   18.1990  -20.0141 H         1 1FV         0.0613
     68 H34       115.2121   16.0797  -22.8780 H         1 1FV         0.0613
     69 H35       116.1475   17.1395  -23.9863 H         1 1FV         0.0613
     70 H36       114.4128   18.8979  -23.7768 H         1 1FV         0.0837
     71 H37       113.7043   17.3574  -24.3701 H         1 1FV         0.0837
@<TRIPOS>BOND
     1    1    2 1  
     2    1    4 1  
     3    2    3 1  
     4    3    4 1  
     5    4    5 1  
     6    5    6 2  
     7    5    7 am 
     8    7    8 1  
     9    8    9 1  
    10    9   10 1  
    11   10   11 1  
    12   11   12 1  
    13   12   13 ar 
    14   12   14 ar 
    15   13   20 ar 
    16   14   15 1  
    17   14   18 ar 
    18   15   16 1  
    19   15   17 1  
    20   16   17 1  
    21   18   19 ar 
    22   19   20 ar 
    23   20   21 1  
    24   21   22 1  
    25   22   23 ar 
    26   22   24 ar 
    27   23   27 ar 
    28   24   25 ar 
    29   25   26 ar 
    30   26   27 ar 
    31   27   28 1  
    32   28   29 1  
    33   29   30 1  
    34   29   34 1  
    35   30   31 1  
    36   31   32 1  
    37   32   33 1  
    38   33   34 1  
    39    1   35 1  
    40    1   36 1  
    41    2   37 1  
    42    2   38 1  
    43    3   39 1  
    44    3   40 1  
    45    4   41 1  
    46    7   42 1  
    47    8   43 1  
    48    8   44 1  
    49    9   45 1  
    50    9   46 1  
    51   10   47 1  
    52   10   48 1  
    53   11   49 1  
    54   15   50 1  
    55   16   51 1  
    56   16   52 1  
    57   17   53 1  
    58   17   54 1  
    59   18   55 1  
    60   21   56 1  
    61   23   57 1  
    62   24   58 1  
    63   25   59 1  
    64   26   60 1  
    65   28   61 1  
    66   28   62 1  
    67   29   63 1  
    68   30   64 1  
    69   30   65 1  
    70   31   66 1  
    71   31   67 1  
    72   33   68 1  
    73   33   69 1  
    74   34   70 1  
    75   34   71 1  
@<TRIPOS>SUBSTRUCTURE
     1 1FV         1

