### 
### Created by X-TOOL on Mon Sep 10 21:13:13 2018
### 

@<TRIPOS>MOLECULE
4imq_ligand
   74    75     1     0     0
SMALL
GAST_HUCK


@<TRIPOS>ATOM
      1 C1        -34.8730  -38.4550   18.3140 C.2       1 PHQ         0.3239
      2 O1        -35.3700  -39.5650   18.4620 O.2       1 PHQ        -0.3773
      3 O2        -33.7160  -38.3070   19.0280 O.3       1 PHQ        -0.2506
      4 C2        -33.3660  -37.0150   19.3930 C.3       1 PHQ         0.1113
      5 C3        -34.0390  -36.8550   20.6140 C.ar      1 PHQ        -0.0130
      6 C4        -34.9380  -37.8570   20.9370 C.ar      1 PHQ        -0.0578
      7 C5        -35.6430  -37.8550   22.1280 C.ar      1 PHQ        -0.0685
      8 C6        -35.4320  -36.8470   23.0540 C.ar      1 PHQ        -0.0687
      9 C7        -34.5120  -35.8510   22.7660 C.ar      1 PHQ        -0.0685
     10 C8        -33.8100  -35.8700   21.5660 C.ar      1 PHQ        -0.0578
     11 N         -35.6570  -37.4480   17.9150 N.am      1 LEU        -0.2411
     12 CA        -36.9150  -37.6760   17.1300 C.3       1 LEU         0.1331
     13 C         -36.8990  -37.4240   15.5890 C.2       1 LEU         0.2040
     14 O         -36.5260  -36.3390   15.1150 O.2       1 LEU        -0.3944
     15 CB        -38.0140  -36.6960   17.5910 C.3       1 LEU        -0.0101
     16 CG        -38.3370  -36.7270   19.0950 C.3       1 LEU        -0.0425
     17 CD1       -39.4180  -35.6940   19.4550 C.3       1 LEU        -0.0625
     18 CD2       -38.8600  -38.1000   19.4810 C.3       1 LEU        -0.0625
     19 N         -37.5150  -38.3570   14.8380 N.am      1 PHE        -0.2619
     20 CA        -37.5390  -38.1830   13.3530 C.3       1 PHE         0.1405
     21 C         -38.4900  -36.9970   13.0120 C.2       1 PHE         0.2061
     22 O         -39.5640  -36.7200   13.5650 O.2       1 PHE        -0.3942
     23 CB        -37.9520  -39.4140   12.5070 C.3       1 PHE         0.0214
     24 CG        -37.0860  -40.6770   12.6870 C.ar      1 PHE        -0.0386
     25 CD1       -35.8340  -40.7850   12.0830 C.ar      1 PHE        -0.0601
     26 CD2       -37.5750  -41.7410   13.4360 C.ar      1 PHE        -0.0601
     27 CE1       -35.0720  -41.9390   12.2460 C.ar      1 PHE        -0.0686
     28 CE2       -36.8150  -42.8930   13.6000 C.ar      1 PHE        -0.0686
     29 CZ        -35.5650  -42.9940   13.0050 C.ar      1 PHE        -0.0687
     30 C         -39.1580  -35.3250   10.1080 C.2       1 1HD         0.1265
     31 CD        -37.0550  -32.3850   13.6200 C.2       1 1HD         0.1731
     32 N         -37.9460  -36.2620   12.0960 N.am      1 1HD        -0.2629
     33 OE1       -36.2530  -31.7790   12.9330 O.2       1 1HD        -0.3974
     34 CA        -38.5640  -35.0800   11.5480 C.3       1 1HD         0.1327
     35 CB        -37.5500  -33.9070   11.7940 C.3       1 1HD         0.0697
     36 C1        -37.1640  -32.0290   15.1210 C.3       1 1HD         0.0257
     37 N1        -37.6300  -33.5190   13.2090 N.am      1 1HD        -0.2826
     38 O1        -40.2610  -35.8270    9.8420 O.2       1 1HD        -0.3724
     39 H1        -33.7127  -36.2832   18.6485 H         1 PHQ         0.0776
     40 H2        -32.2779  -36.9188   19.5226 H         1 PHQ         0.0776
     41 H3        -35.0946  -38.6683   20.2353 H         1 PHQ         0.0557
     42 H4        -36.3595  -38.6415   22.3358 H         1 PHQ         0.0599
     43 H5        -35.9783  -36.8371   23.9902 H         1 PHQ         0.0559
     44 H6        -34.3390  -35.0536   23.4796 H         1 PHQ         0.0599
     45 H7        -33.0705  -35.1021   21.3699 H         1 PHQ         0.0557
     46 H8        -35.3960  -36.5111   18.1477 H         1 LEU         0.1899
     47 H9        -37.2248  -38.7155   17.3129 H         1 LEU         0.0799
     48 H10       -38.9357  -36.9365   17.0409 H         1 LEU         0.0315
     49 H11       -37.6893  -35.6768   17.3346 H         1 LEU         0.0315
     50 H12       -37.4202  -36.5078   19.6619 H         1 LEU         0.0298
     51 H13       -39.6255  -35.7414   20.5342 H         1 LEU         0.0232
     52 H14       -40.3382  -35.9158   18.8946 H         1 LEU         0.0232
     53 H15       -39.0635  -34.6860   19.1938 H         1 LEU         0.0232
     54 H16       -38.1060  -38.8621   19.2346 H         1 LEU         0.0232
     55 H17       -39.7869  -38.3085   18.9265 H         1 LEU         0.0232
     56 H18       -39.0657  -38.1236   20.5613 H         1 LEU         0.0232
     57 H19       -37.9480  -39.1508   15.2652 H         1 PHE         0.1885
     58 H20       -36.5179  -37.9130   13.0456 H         1 PHE         0.0823
     59 H21       -37.9086  -39.1241   11.4468 H         1 PHE         0.0474
     60 H22       -38.9869  -39.6743   12.7739 H         1 PHE         0.0474
     61 H23       -35.4519  -39.9666   11.4836 H         1 PHE         0.0557
     62 H24       -38.5547  -41.6718   13.8948 H         1 PHE         0.0557
     63 H25       -34.0955  -42.0145   11.7815 H         1 PHE         0.0599
     64 H26       -37.1992  -43.7144   14.1939 H         1 PHE         0.0599
     65 H27       -34.9743  -43.8940   13.1320 H         1 PHE         0.0559
     66 H28       -38.5392  -35.0240    9.2639 H         1 1HD         0.1374
     67 H29       -37.0469  -36.5287   11.7489 H         1 1HD         0.1885
     68 H30       -39.4405  -34.8508   12.1719 H         1 1HD         0.0811
     69 H31       -37.8118  -33.0490   11.1574 H         1 1HD         0.0569
     70 H32       -36.5293  -34.2415   11.5570 H         1 1HD         0.0569
     71 H33       -37.9284  -32.6633   15.5937 H         1 1HD         0.0467
     72 H34       -37.4480  -30.9716   15.2274 H         1 1HD         0.0467
     73 H35       -36.1932  -32.1989   15.6096 H         1 1HD         0.0467
     74 H36       -38.1132  -34.1018   13.8623 H         1 1HD         0.1853
@<TRIPOS>BOND
     1    1    2 2  
     2    1    3 1  
     3   11    1 am 
     4    3    4 1  
     5    4    5 1  
     6    5    6 ar 
     7    5   10 ar 
     8    6    7 ar 
     9    7    8 ar 
    10    9    8 ar 
    11   10    9 ar 
    12   12   11 1  
    13   13   12 1  
    14   12   15 1  
    15   13   14 2  
    16   19   13 am 
    17   15   16 1  
    18   16   17 1  
    19   16   18 1  
    20   20   19 1  
    21   21   20 1  
    22   20   23 1  
    23   21   22 2  
    24   32   21 am 
    25   23   24 1  
    26   24   25 ar 
    27   24   26 ar 
    28   25   27 ar 
    29   26   28 ar 
    30   27   29 ar 
    31   28   29 ar 
    32   34   30 1  
    33   30   38 2  
    34   31   33 2  
    35   31   36 1  
    36   37   31 am 
    37   34   32 1  
    38   35   34 1  
    39   35   37 1  
    40    4   39 1  
    41    4   40 1  
    42    6   41 1  
    43    7   42 1  
    44    8   43 1  
    45    9   44 1  
    46   10   45 1  
    47   11   46 1  
    48   12   47 1  
    49   15   48 1  
    50   15   49 1  
    51   16   50 1  
    52   17   51 1  
    53   17   52 1  
    54   17   53 1  
    55   18   54 1  
    56   18   55 1  
    57   18   56 1  
    58   19   57 1  
    59   20   58 1  
    60   23   59 1  
    61   23   60 1  
    62   25   61 1  
    63   26   62 1  
    64   27   63 1  
    65   28   64 1  
    66   29   65 1  
    67   30   66 1  
    68   32   67 1  
    69   34   68 1  
    70   35   69 1  
    71   35   70 1  
    72   36   71 1  
    73   36   72 1  
    74   36   73 1  
    75   37   74 1  
@<TRIPOS>SUBSTRUCTURE
     1 PHQ         1

