### 
### Created by X-TOOL on Mon Sep 10 21:13:12 2018
### 

@<TRIPOS>MOLECULE
4imz_ligand
   80    81     1     0     0
SMALL
GAST_HUCK


@<TRIPOS>ATOM
      1 C1         35.2720   38.4570   18.0520 C.2       1 PHQ         0.3239
      2 O1         35.6890   39.5720   18.2830 O.2       1 PHQ        -0.3773
      3 O2         34.1070   38.0750   18.4750 O.3       1 PHQ        -0.2506
      4 C2         33.2080   39.0800   18.2820 C.3       1 PHQ         0.1113
      5 C3         31.8530   38.8130   18.2840 C.ar      1 PHQ        -0.0130
      6 C4         31.3790   37.6800   17.7210 C.ar      1 PHQ        -0.0578
      7 C5         30.0660   37.3830   17.6890 C.ar      1 PHQ        -0.0685
      8 C6         29.1730   38.2740   18.1860 C.ar      1 PHQ        -0.0687
      9 C7         29.6350   39.4120   18.7610 C.ar      1 PHQ        -0.0685
     10 C8         30.9520   39.7030   18.8030 C.ar      1 PHQ        -0.0578
     11 N          35.9420   37.5690   17.4130 N.am      1 LEU        -0.2411
     12 CA         37.2390   37.8640   16.9080 C.3       1 LEU         0.1331
     13 C          37.1770   37.5950   15.4100 C.2       1 LEU         0.2040
     14 O          36.5700   36.6270   14.9750 O.2       1 LEU        -0.3944
     15 CB         38.2680   36.9350   17.4980 C.3       1 LEU        -0.0101
     16 CG         38.2960   36.9350   19.0160 C.3       1 LEU        -0.0425
     17 CD1        38.9380   35.6540   19.4520 C.3       1 LEU        -0.0625
     18 CD2        39.1030   38.1100   19.4430 C.3       1 LEU        -0.0625
     19 N          37.8110   38.5020   14.6950 N.am      1 PHE        -0.2619
     20 CA         37.8760   38.4130   13.2300 C.3       1 PHE         0.1404
     21 C          38.5570   37.0990   12.8830 C.2       1 PHE         0.2060
     22 O          39.5380   36.7360   13.4890 O.2       1 PHE        -0.3942
     23 CB         38.6460   39.5930   12.6210 C.3       1 PHE         0.0214
     24 CG         37.7890   40.8930   12.5810 C.ar      1 PHE        -0.0386
     25 CD1        38.1240   42.0320   13.3200 C.ar      1 PHE        -0.0601
     26 CD2        36.6520   40.9670   11.8190 C.ar      1 PHE        -0.0601
     27 CE1        37.3220   43.1680   13.2870 C.ar      1 PHE        -0.0686
     28 CE2        35.8740   42.0970   11.7730 C.ar      1 PHE        -0.0686
     29 CZ         36.2070   43.2270   12.5130 C.ar      1 PHE        -0.0687
     30 C          39.1160   35.2080   10.0550 C.2       1 1HB         0.1246
     31 CD         37.0360   32.4780   13.8150 C.2       1 1HB         0.1782
     32 CG         37.5440   33.8500   13.3520 C.3       1 1HB         0.0417
     33 N          38.0260   36.4390   11.8760 N.am      1 1HB        -0.2647
     34 OE1        36.3720   31.7930   13.0870 O.2       1 1HB        -0.3969
     35 NE2        37.3300   32.1100   15.0510 N.am      1 1HB        -0.2793
     36 CH1        38.0600   32.9910   15.9550 C.3       1 1HB         0.0222
     37 CH2        36.8580   30.8290   15.4770 C.3       1 1HB         0.0222
     38 CA         38.5880   35.1670   11.5130 C.3       1 1HB         0.1148
     39 CB         37.5570   34.0790   11.8670 C.3       1 1HB         0.0032
     40 O          39.9130   36.0150    9.6040 O.2       1 1HB        -0.3725
     41 H1         33.4403   39.5285   17.3048 H         1 PHQ         0.0776
     42 H2         33.3855   39.8197   19.0765 H         1 PHQ         0.0776
     43 H3         32.0822   36.9838   17.2784 H         1 PHQ         0.0557
     44 H4         29.7268   36.4423   17.2706 H         1 PHQ         0.0599
     45 H5         28.1082   38.0801   18.1248 H         1 PHQ         0.0559
     46 H6         28.9272   40.1066   19.1987 H         1 PHQ         0.0599
     47 H7         31.2931   40.6328   19.2436 H         1 PHQ         0.0557
     48 H8         35.5490   36.6609   17.2685 H         1 LEU         0.1899
     49 H9         37.5068   38.9106   17.1149 H         1 LEU         0.0799
     50 H10        39.2599   37.2397   17.1330 H         1 LEU         0.0315
     51 H11        38.0493   35.9129   17.1554 H         1 LEU         0.0315
     52 H12        37.2780   37.0062   19.4265 H         1 LEU         0.0298
     53 H13        38.9759   35.6183   20.5508 H         1 LEU         0.0232
     54 H14        39.9596   35.5998   19.0479 H         1 LEU         0.0232
     55 H15        38.3499   34.8031   19.0776 H         1 LEU         0.0232
     56 H16        38.6089   39.0347   19.1101 H         1 LEU         0.0232
     57 H17        40.1058   38.0485   18.9951 H         1 LEU         0.0232
     58 H18        39.1909   38.1156   20.5395 H         1 LEU         0.0232
     59 H19        38.2573   39.2670   15.1592 H         1 PHE         0.1885
     60 H20        36.8542   38.4142   12.8227 H         1 PHE         0.0823
     61 H21        38.9420   39.3315   11.5944 H         1 PHE         0.0474
     62 H22        39.5456   39.7796   13.2258 H         1 PHE         0.0474
     63 H23        39.0218   42.0296   13.9274 H         1 PHE         0.0557
     64 H24        36.3573   40.1040   11.2329 H         1 PHE         0.0557
     65 H25        37.5927   44.0255   13.8924 H         1 PHE         0.0599
     66 H26        34.9866   42.1090   11.1506 H         1 PHE         0.0599
     67 H27        35.5982   44.1231   12.4734 H         1 PHE         0.0559
     68 H28        38.7415   34.4474    9.3715 H         1 1HB         0.1373
     69 H29        38.5735   33.9699   13.7203 H         1 1HB         0.0505
     70 H30        36.9005   34.6182   13.8056 H         1 1HB         0.0505
     71 H31        37.2473   36.8148   11.3736 H         1 1HB         0.1884
     72 H32        38.1957   32.4901   16.9249 H         1 1HB         0.0486
     73 H33        37.4911   33.9213   16.0992 H         1 1HB         0.0486
     74 H34        39.0439   33.2261   15.5229 H         1 1HB         0.0486
     75 H35        36.3377   30.3342   14.6436 H         1 1HB         0.0486
     76 H36        36.1625   30.9561   16.3196 H         1 1HB         0.0486
     77 H37        37.7107   30.2113   15.7953 H         1 1HB         0.0486
     78 H38        39.4659   34.9874   12.1509 H         1 1HB         0.0792
     79 H39        36.5581   34.4027   11.5392 H         1 1HB         0.0338
     80 H40        37.8251   33.1426   11.3559 H         1 1HB         0.0338
@<TRIPOS>BOND
     1    1    2 2  
     2    1    3 1  
     3   11    1 am 
     4    3    4 1  
     5    4    5 1  
     6    5    6 ar 
     7    5   10 ar 
     8    6    7 ar 
     9    7    8 ar 
    10    9    8 ar 
    11   10    9 ar 
    12   12   11 1  
    13   13   12 1  
    14   12   15 1  
    15   13   14 2  
    16   19   13 am 
    17   15   16 1  
    18   16   17 1  
    19   16   18 1  
    20   20   19 1  
    21   21   20 1  
    22   20   23 1  
    23   21   22 2  
    24   33   21 am 
    25   23   24 1  
    26   24   25 ar 
    27   24   26 ar 
    28   25   27 ar 
    29   26   28 ar 
    30   27   29 ar 
    31   28   29 ar 
    32   38   30 1  
    33   30   40 2  
    34   32   31 1  
    35   31   34 2  
    36   31   35 am 
    37   39   32 1  
    38   38   33 1  
    39   35   36 1  
    40   35   37 1  
    41   38   39 1  
    42    4   41 1  
    43    4   42 1  
    44    6   43 1  
    45    7   44 1  
    46    8   45 1  
    47    9   46 1  
    48   10   47 1  
    49   11   48 1  
    50   12   49 1  
    51   15   50 1  
    52   15   51 1  
    53   16   52 1  
    54   17   53 1  
    55   17   54 1  
    56   17   55 1  
    57   18   56 1  
    58   18   57 1  
    59   18   58 1  
    60   19   59 1  
    61   20   60 1  
    62   23   61 1  
    63   23   62 1  
    64   25   63 1  
    65   26   64 1  
    66   27   65 1  
    67   28   66 1  
    68   29   67 1  
    69   30   68 1  
    70   32   69 1  
    71   32   70 1  
    72   33   71 1  
    73   36   72 1  
    74   36   73 1  
    75   36   74 1  
    76   37   75 1  
    77   37   76 1  
    78   37   77 1  
    79   38   78 1  
    80   39   79 1  
    81   39   80 1  
@<TRIPOS>SUBSTRUCTURE
     1 PHQ         1

