### 
### Created by X-TOOL on Mon Sep 10 21:13:15 2018
### 

@<TRIPOS>MOLECULE
4inb_ligand
   50    52     1     0     0
SMALL
GAST_HUCK


@<TRIPOS>ATOM
      1 C1         26.8060   14.0140   38.1320 C.ar      1 1F6         0.0013
      2 C2         27.3780   12.7460   38.3380 C.ar      1 1F6        -0.0233
      3 C3         26.7010   11.6610   39.0060 C.ar      1 1F6         0.1508
      4 C4         25.3740   11.8860   39.4860 C.ar      1 1F6         0.1495
      5 C5         24.7830   13.1970   39.2660 C.ar      1 1F6        -0.0047
      6 C6         25.4850   14.2360   38.6050 C.ar      1 1F6        -0.0525
      7 N7         27.4290   10.4100   39.1510 N.am      1 1F6        -0.1710
      8 C8         26.9080    9.1150   38.8630 C.2       1 1F6         0.2355
      9 C9         25.4210    8.8820   38.8640 C.2       1 1F6         0.1380
     10 C10        24.5240    9.5030   39.8900 C.2       1 1F6         0.2296
     11 N11        24.5920   10.8900   40.1780 N.am      1 1F6        -0.2000
     12 C12        24.8240    8.0770   37.9780 C.2       1 1F6         0.0542
     13 N13        25.3450    7.3410   36.9420 N.pl3     1 1F6        -0.2988
     14 C14        24.5920    6.3920   36.1270 C.3       1 1F6         0.0587
     15 C15        24.0210    7.0630   34.8710 C.3       1 1F6         0.0692
     16 O16        23.4390    8.3510   35.1900 O.3       1 1F6        -0.3808
     17 C17        23.4790    9.2280   34.0630 C.3       1 1F6         0.0365
     18 C18        28.8340   10.5270   39.5880 C.ar      1 1F6         0.0903
     19 C19        29.1630   10.9160   40.9340 C.ar      1 1F6        -0.0356
     20 C20        30.5150   11.0390   41.3430 C.ar      1 1F6        -0.0736
     21 C21        31.5640   10.7780   40.4200 C.ar      1 1F6        -0.0757
     22 C22        31.2690   10.3910   39.0900 C.ar      1 1F6        -0.0736
     23 C23        29.9220   10.2670   38.6750 C.ar      1 1F6        -0.0356
     24 C24        23.7680   11.3480   41.3250 C.3       1 1F6         0.0556
     25 C25        27.6120   15.0870   37.4330 C.3       1 1F6         0.3371
     26 F26        28.9620   14.8520   37.4540 F         1 1F6        -0.2536
     27 F27        27.4590   16.3160   38.0070 F         1 1F6        -0.2536
     28 F28        27.2920   15.2330   36.1240 F         1 1F6        -0.2536
     29 O29        27.6210    8.1460   38.5710 O.2       1 1F6        -0.3878
     30 O30        23.6990    8.7590   40.4460 O.2       1 1F6        -0.3880
     31 H1         28.3846   12.5740   37.9743 H         1 1F6         0.0601
     32 H2         23.7752   13.3850   39.6183 H         1 1F6         0.0614
     33 H3         25.0132   15.2012   38.4603 H         1 1F6         0.0757
     34 H4         23.7451    7.9909   38.0982 H         1 1F6         0.1287
     35 H5         26.3434    7.4683   36.7232 H         1 1F6         0.1966
     36 H6         23.7624    5.9863   36.7246 H         1 1F6         0.0566
     37 H7         25.2598    5.5726   35.8228 H         1 1F6         0.0566
     38 H8         23.2449    6.4148   34.4380 H         1 1F6         0.0582
     39 H9         24.8301    7.2051   34.1395 H         1 1F6         0.0582
     40 H10        23.0314   10.1953   34.3351 H         1 1F6         0.0524
     41 H11        22.9127    8.7828   33.2317 H         1 1F6         0.0524
     42 H12        24.5237    9.3813   33.7545 H         1 1F6         0.0524
     43 H13        28.3682   11.1172   41.6431 H         1 1F6         0.0521
     44 H14        30.7488   11.3322   42.3601 H         1 1F6         0.0581
     45 H15        32.5963   10.8758   40.7361 H         1 1F6         0.0499
     46 H16        32.0733   10.1902   38.3915 H         1 1F6         0.0581
     47 H17        29.7033    9.9720   37.6551 H         1 1F6         0.0521
     48 H18        23.8953   12.4325   41.4580 H         1 1F6         0.0588
     49 H19        24.0891   10.8264   42.2386 H         1 1F6         0.0588
     50 H20        22.7091   11.1246   41.1281 H         1 1F6         0.0588
@<TRIPOS>BOND
     1    1    2 ar 
     2    1    6 ar 
     3    1   25 1  
     4    2    3 ar 
     5    3    4 ar 
     6    3    7 1  
     7    4    5 ar 
     8    4   11 1  
     9    5    6 ar 
    10    7    8 am 
    11    7   18 1  
    12    8    9 1  
    13    8   29 2  
    14    9   10 1  
    15    9   12 2  
    16   10   11 am 
    17   10   30 2  
    18   11   24 1  
    19   12   13 1  
    20   13   14 1  
    21   14   15 1  
    22   15   16 1  
    23   16   17 1  
    24   18   19 ar 
    25   18   23 ar 
    26   19   20 ar 
    27   20   21 ar 
    28   21   22 ar 
    29   22   23 ar 
    30   25   26 1  
    31   25   27 1  
    32   25   28 1  
    33    2   31 1  
    34    5   32 1  
    35    6   33 1  
    36   12   34 1  
    37   13   35 1  
    38   14   36 1  
    39   14   37 1  
    40   15   38 1  
    41   15   39 1  
    42   17   40 1  
    43   17   41 1  
    44   17   42 1  
    45   19   43 1  
    46   20   44 1  
    47   21   45 1  
    48   22   46 1  
    49   23   47 1  
    50   24   48 1  
    51   24   49 1  
    52   24   50 1  
@<TRIPOS>SUBSTRUCTURE
     1 1F6         1

