### 
### Created by X-TOOL on Mon Sep 10 21:13:13 2018
### 

@<TRIPOS>MOLECULE
4inh_ligand
   70    70     1     0     0
SMALL
GAST_HUCK


@<TRIPOS>ATOM
      1 C1         -7.5330   62.7740   88.4050 C.2       1 PHQ         0.3239
      2 O1         -7.4780   62.7450   89.6390 O.2       1 PHQ        -0.3773
      3 O2         -6.6690   63.5560   87.7020 O.3       1 PHQ        -0.2506
      4 C2         -5.5370   64.0810   88.4060 C.3       1 PHQ         0.1113
      5 C3         -4.3660   63.6200   87.7790 C.ar      1 PHQ        -0.0130
      6 C4         -3.1830   63.2990   88.4430 C.ar      1 PHQ        -0.0578
      7 C5         -2.0870   62.8340   87.7120 C.ar      1 PHQ        -0.0685
      8 C6         -2.1620   62.6780   86.3290 C.ar      1 PHQ        -0.0687
      9 C7         -3.3480   62.9860   85.6740 C.ar      1 PHQ        -0.0685
     10 C8         -4.4370   63.4460   86.4020 C.ar      1 PHQ        -0.0578
     11 N          -8.5590   62.2870   87.7110 N.am      1 ALA        -0.2413
     12 CA         -9.5730   61.4320   88.3180 C.3       1 ALA         0.1300
     13 C          -9.5240   60.0890   87.5740 C.2       1 ALA         0.2036
     14 O          -9.2360   60.0740   86.3720 O.2       1 ALA        -0.3944
     15 CB        -10.9340   62.0810   88.0870 C.3       1 ALA        -0.0244
     16 N          -9.6220   58.9480   88.1170 N.am      1 LEU        -0.2637
     17 CA         -9.6240   57.6180   87.4740 C.3       1 LEU         0.1312
     18 C         -10.7890   57.6640   86.5050 C.2       1 LEU         0.2034
     19 O         -11.8650   58.2040   86.7720 O.2       1 LEU        -0.3944
     20 CB         -9.9770   56.5470   88.4950 C.3       1 LEU        -0.0101
     21 CG         -8.8940   56.4510   89.5720 C.3       1 LEU        -0.0425
     22 CD1        -9.2480   55.5170   90.6820 C.3       1 LEU        -0.0625
     23 CD2        -7.6070   55.9240   88.9330 C.3       1 LEU        -0.0625
     24 C         -12.2410   55.5580   84.1310 C.2       1 1HB         0.0602
     25 CD        -11.2780   60.1690   82.2880 C.2       1 1HB         0.1781
     26 CG        -11.3270   59.3030   83.5450 C.3       1 1HB         0.0410
     27 N         -10.5770   56.9980   85.4660 N.am      1 1HB        -0.2693
     28 OE1       -10.9200   59.7260   81.1870 O.2       1 1HB        -0.3969
     29 NE2       -11.7590   61.3970   82.4730 N.am      1 1HB        -0.2793
     30 CH1       -12.1490   61.8050   83.8360 C.3       1 1HB         0.0222
     31 CH2       -11.7770   62.3450   81.3490 C.3       1 1HB         0.0222
     32 CA        -11.6670   56.9680   84.4650 C.3       1 1HB         0.0964
     33 CB        -11.4340   57.7970   83.1930 C.3       1 1HB        -0.0010
     34 O         -12.4280   54.6810   85.0161 O.co2     1 1HB        -0.5666
     35 O         -12.5279   55.2858   82.9347 O.co2     1 1HB        -0.5666
     36 H1         -5.5580   63.7371   89.4506 H         1 PHQ         0.0776
     37 H2         -5.5624   65.1804   88.3813 H         1 PHQ         0.0776
     38 H3         -3.1140   63.4094   89.5192 H         1 PHQ         0.0557
     39 H4         -1.1651   62.5910   88.2278 H         1 PHQ         0.0599
     40 H5         -1.3045   62.3203   85.7706 H         1 PHQ         0.0559
     41 H6         -3.4227   62.8676   84.5991 H         1 PHQ         0.0599
     42 H7         -5.3623   63.6743   85.8854 H         1 PHQ         0.0557
     43 H8         -8.6374   62.5150   86.7405 H         1 ALA         0.1899
     44 H9         -9.3851   61.2935   89.3929 H         1 ALA         0.0796
     45 H10       -11.7195   61.4553   88.5359 H         1 ALA         0.0277
     46 H11       -11.1154   62.1780   87.0064 H         1 ALA         0.0277
     47 H12       -10.9487   63.0777   88.5522 H         1 ALA         0.0277
     48 H13        -9.7096   58.9481   89.1132 H         1 LEU         0.1883
     49 H14        -8.6667   57.4029   86.9767 H         1 LEU         0.0800
     50 H15       -10.0662   55.5766   87.9848 H         1 LEU         0.0315
     51 H16       -10.9364   56.8017   88.9690 H         1 LEU         0.0315
     52 H17        -8.7217   57.4542   89.9889 H         1 LEU         0.0298
     53 H18        -8.4306   55.4955   91.4178 H         1 LEU         0.0232
     54 H19        -9.4024   54.5065   90.2758 H         1 LEU         0.0232
     55 H20       -10.1717   55.8610   91.1702 H         1 LEU         0.0232
     56 H21        -7.3100   56.5865   88.1066 H         1 LEU         0.0232
     57 H22        -7.7789   54.9090   88.5455 H         1 LEU         0.0232
     58 H23        -6.8070   55.8978   89.6875 H         1 LEU         0.0232
     59 H24       -12.2022   59.5929   84.1450 H         1 1HB         0.0504
     60 H25       -10.4102   59.4692   84.1296 H         1 1HB         0.0504
     61 H26        -9.7156   56.5114   85.3200 H         1 1HB         0.1875
     62 H27       -12.5231   62.8393   83.8162 H         1 1HB         0.0486
     63 H28       -11.2751   61.7439   84.5012 H         1 1HB         0.0486
     64 H29       -12.9397   61.1362   84.2068 H         1 1HB         0.0486
     65 H30       -11.4516   61.8324   80.4318 H         1 1HB         0.0486
     66 H31       -11.0950   63.1810   81.5634 H         1 1HB         0.0486
     67 H32       -12.7978   62.7307   81.2109 H         1 1HB         0.0486
     68 H33       -12.4947   57.4830   84.9746 H         1 1HB         0.0727
     69 H34       -10.5005   57.4694   82.7122 H         1 1HB         0.0330
     70 H35       -12.2757   57.6448   82.5014 H         1 1HB         0.0330
@<TRIPOS>BOND
     1    1    2 2  
     2    1    3 1  
     3   11    1 am 
     4    3    4 1  
     5    4    5 1  
     6    5    6 ar 
     7    5   10 ar 
     8    6    7 ar 
     9    7    8 ar 
    10    9    8 ar 
    11   10    9 ar 
    12   12   11 1  
    13   13   12 1  
    14   12   15 1  
    15   13   14 2  
    16   16   13 am 
    17   17   16 1  
    18   18   17 1  
    19   17   20 1  
    20   18   19 2  
    21   27   18 am 
    22   20   21 1  
    23   21   22 1  
    24   21   23 1  
    25   32   24 1  
    26   24   34 ar 
    27   26   25 1  
    28   25   28 2  
    29   25   29 am 
    30   33   26 1  
    31   32   27 1  
    32   29   30 1  
    33   29   31 1  
    34   32   33 1  
    35   24   35 ar 
    36    4   36 1  
    37    4   37 1  
    38    6   38 1  
    39    7   39 1  
    40    8   40 1  
    41    9   41 1  
    42   10   42 1  
    43   11   43 1  
    44   12   44 1  
    45   15   45 1  
    46   15   46 1  
    47   15   47 1  
    48   16   48 1  
    49   17   49 1  
    50   20   50 1  
    51   20   51 1  
    52   21   52 1  
    53   22   53 1  
    54   22   54 1  
    55   22   55 1  
    56   23   56 1  
    57   23   57 1  
    58   23   58 1  
    59   26   59 1  
    60   26   60 1  
    61   27   61 1  
    62   30   62 1  
    63   30   63 1  
    64   30   64 1  
    65   31   65 1  
    66   31   66 1  
    67   31   67 1  
    68   32   68 1  
    69   33   69 1  
    70   33   70 1  
@<TRIPOS>SUBSTRUCTURE
     1 PHQ         1

