### 
### Created by X-TOOL on Mon Sep 10 21:13:15 2018
### 

@<TRIPOS>MOLECULE
4inr_ligand
   96    97     1     0     0
SMALL
GAST_HUCK


@<TRIPOS>ATOM
      1 C12        59.9250 -135.1340   34.4390 C.2       1 1G1         0.2449
      2 O13        60.0380 -136.3170   34.7400 O.2       1 1G1        -0.3906
      3 C8         58.5980 -134.6670   33.9020 C.3       1 1G1         0.3131
      4 N9         58.5820 -135.2860   32.5910 N.2       1 1G1         0.1934
      5 N10        59.2490 -134.9040   31.6760 N.1       1 1G1         0.1323
      6 N11        59.8850 -134.5850   30.7180 N.1       1 1G1         0.2336
      7 C7         57.3680 -135.1210   34.7340 C.3       1 1G1         0.0575
      8 C3         56.0810 -134.5060   34.1550 C.ar      1 1G1        -0.0354
      9 C2         55.3860 -135.1330   33.1040 C.ar      1 1G1        -0.0600
     10 C1         54.2150 -134.5620   32.5860 C.ar      1 1G1        -0.0686
     11 C4         55.5800 -133.3040   34.6840 C.ar      1 1G1        -0.0600
     12 C5         54.4080 -132.7310   34.1690 C.ar      1 1G1        -0.0686
     13 C6         53.7250 -133.3620   33.1190 C.ar      1 1G1        -0.0687
     14 N14        60.9120 -134.2080   34.5420 N.am      1 1G1        -0.2609
     15 C15        62.1280 -134.4550   35.3200 C.3       1 1G1         0.1313
     16 C25        61.7590 -134.6570   36.7580 C.2       1 1G1         0.2039
     17 O26        61.2290 -133.7240   37.3460 O.2       1 1G1        -0.3944
     18 C16        63.0850 -133.2410   35.1000 C.3       1 1G1        -0.0101
     19 C17        64.2950 -133.5010   34.1520 C.3       1 1G1        -0.0425
     20 C18        65.5360 -132.7170   34.6800 C.3       1 1G1        -0.0625
     21 C19        64.0390 -133.0560   32.6760 C.3       1 1G1        -0.0625
     22 N27        62.0250 -135.8730   37.2940 N.am      1 1G1        -0.2637
     23 C28        61.7950 -136.1310   38.7070 C.3       1 1G1         0.1311
     24 C33        63.0830 -136.1430   39.4960 C.2       1 1G1         0.2020
     25 O34        64.1090 -136.5370   38.9580 O.2       1 1G1        -0.3945
     26 C29        61.0350 -137.4690   38.9280 C.3       1 1G1        -0.0101
     27 C30        59.5460 -137.5000   38.4490 C.3       1 1G1        -0.0425
     28 C31        58.5190 -136.9860   39.5070 C.3       1 1G1        -0.0625
     29 C32        59.1710 -138.9650   38.0700 C.3       1 1G1        -0.0625
     30 O50        62.7240 -139.4960   42.4990 O.2       1 1G1        -0.1746
     31 S48        61.8950 -138.6090   43.2940 S.o2      1 1G1        -0.0337
     32 O49        61.7300 -138.8890   44.7100 O.2       1 1G1        -0.1746
     33 C51        60.2610 -138.5080   42.5510 C.3       1 1G1         0.0544
     34 C47        62.4440 -136.8950   43.0720 C.3       1 1G1         0.0677
     35 C46        63.9690 -136.7020   42.7880 C.3       1 1G1        -0.0088
     36 C36        64.1360 -135.5950   41.6820 C.3       1 1G1         0.0521
     37 C37        64.1090 -134.2250   42.4280 C.3       1 1G1         0.0009
     38 C38        64.7910 -132.9650   41.8790 C.ar      1 1G1        -0.0475
     39 C43        64.4900 -131.7640   42.5450 C.ar      1 1G1        -0.0666
     40 C42        65.0550 -130.5560   42.1320 C.ar      1 1G1        -0.0618
     41 C41        65.9380 -130.5240   41.0410 C.ar      1 1G1        -0.0054
     42 C44        66.5160 -129.1510   40.6520 C.3       1 1G1        -0.0046
     43 N45        65.8950 -128.4910   39.4830 N.4       1 1G1         0.2299
     44 C40        66.2440 -131.7240   40.3730 C.ar      1 1G1        -0.0618
     45 C39        65.6760 -132.9420   40.7870 C.ar      1 1G1        -0.0666
     46 N35        62.9940 -135.7020   40.7760 N.am      1 1G1        -0.2801
     47 H1         58.5824 -133.5699   33.8236 H         1 1G1         0.1271
     48 H2         57.4919 -134.7911   35.7760 H         1 1G1         0.0506
     49 H3         57.2927 -136.2180   34.7031 H         1 1G1         0.0506
     50 H4         55.7587 -136.0639   32.6921 H         1 1G1         0.0557
     51 H5         53.6885 -135.0488   31.7731 H         1 1G1         0.0599
     52 H6         56.1042 -132.8154   35.4974 H         1 1G1         0.0557
     53 H7         54.0308 -131.8023   34.5817 H         1 1G1         0.0599
     54 H8         52.8184 -132.9217   32.7199 H         1 1G1         0.0559
     55 H9         60.8058 -133.3313   34.0729 H         1 1G1         0.1884
     56 H10        62.6217 -135.3673   34.9541 H         1 1G1         0.0800
     57 H11        63.4820 -132.9407   36.0809 H         1 1G1         0.0315
     58 H12        62.4936 -132.4163   34.6756 H         1 1G1         0.0315
     59 H13        64.5134 -134.5791   34.1590 H         1 1G1         0.0298
     60 H14        66.3934 -132.8967   34.0148 H         1 1G1         0.0232
     61 H15        65.7817 -133.0604   35.6957 H         1 1G1         0.0232
     62 H16        65.3080 -131.6411   34.7018 H         1 1G1         0.0232
     63 H17        63.1668 -133.5945   32.2767 H         1 1G1         0.0232
     64 H18        64.9238 -133.2869   32.0647 H         1 1G1         0.0232
     65 H19        63.8460 -131.9734   32.6476 H         1 1G1         0.0232
     66 H20        62.3838 -136.6019   36.7109 H         1 1G1         0.1883
     67 H21        61.1674 -135.3153   39.0953 H         1 1G1         0.0800
     68 H22        61.0462 -137.6882   40.0059 H         1 1G1         0.0315
     69 H23        61.5787 -138.2579   38.3876 H         1 1G1         0.0315
     70 H24        59.4631 -136.8633   37.5559 H         1 1G1         0.0298
     71 H25        57.5030 -137.0422   39.0892 H         1 1G1         0.0232
     72 H26        58.7513 -135.9427   39.7669 H         1 1G1         0.0232
     73 H27        58.5791 -137.6110   40.4102 H         1 1G1         0.0232
     74 H28        59.8847 -139.3449   37.3242 H         1 1G1         0.0232
     75 H29        58.1549 -138.9863   37.6492 H         1 1G1         0.0232
     76 H30        59.2088 -139.5975   38.9691 H         1 1G1         0.0232
     77 H31        60.3595 -138.2962   41.4761 H         1 1G1         0.0464
     78 H32        59.6884 -137.7017   43.0326 H         1 1G1         0.0464
     79 H33        59.7354 -139.4643   42.6896 H         1 1G1         0.0464
     80 H34        62.1985 -136.3401   43.9895 H         1 1G1         0.0500
     81 H35        61.8862 -136.4686   42.2252 H         1 1G1         0.0500
     82 H36        64.4030 -137.6486   42.4336 H         1 1G1         0.0305
     83 H37        64.4807 -136.3861   43.7091 H         1 1G1         0.0305
     84 H38        65.0791 -135.7199   41.1298 H         1 1G1         0.0578
     85 H39        64.5581 -134.4078   43.4153 H         1 1G1         0.0435
     86 H40        63.0468 -133.9666   42.5505 H         1 1G1         0.0435
     87 H41        63.8108 -131.7761   43.3897 H         1 1G1         0.0540
     88 H42        64.8109 -129.6389   42.6559 H         1 1G1         0.0542
     89 H43        67.5853 -129.2864   40.4326 H         1 1G1         0.0965
     90 H44        66.4011 -128.4808   41.5166 H         1 1G1         0.0965
     91 H45        66.3467 -127.6051   39.3181 H         1 1G1         0.2007
     92 H46        64.9149 -128.3399   39.6638 H         1 1G1         0.2007
     93 H47        66.0002 -129.0782   38.6705 H         1 1G1         0.2007
     94 H48        66.9252 -131.7094   39.5299 H         1 1G1         0.0542
     95 H49        65.9199 -133.8605   40.2656 H         1 1G1         0.0540
     96 H50        62.0939 -135.4344   41.1199 H         1 1G1         0.1856
@<TRIPOS>BOND
     1    1    2 2  
     2    1    3 1  
     3   14    1 am 
     4    3    4 1  
     5    3    7 1  
     6    4    5 2  
     7    5    6 3  
     8    7    8 1  
     9    8    9 ar 
    10    8   11 ar 
    11    9   10 ar 
    12   10   13 ar 
    13   11   12 ar 
    14   12   13 ar 
    15   15   14 1  
    16   16   15 1  
    17   15   18 1  
    18   16   17 2  
    19   22   16 am 
    20   18   19 1  
    21   19   20 1  
    22   19   21 1  
    23   23   22 1  
    24   24   23 1  
    25   23   26 1  
    26   24   25 2  
    27   46   24 am 
    28   26   27 1  
    29   27   28 1  
    30   27   29 1  
    31   31   30 2  
    32   31   32 2  
    33   31   33 1  
    34   34   31 1  
    35   35   34 1  
    36   36   35 1  
    37   36   37 1  
    38   36   46 1  
    39   37   38 1  
    40   38   39 ar 
    41   38   45 ar 
    42   39   40 ar 
    43   40   41 ar 
    44   41   42 1  
    45   41   44 ar 
    46   42   43 1  
    47   44   45 ar 
    48    3   47 1  
    49    7   48 1  
    50    7   49 1  
    51    9   50 1  
    52   10   51 1  
    53   11   52 1  
    54   12   53 1  
    55   13   54 1  
    56   14   55 1  
    57   15   56 1  
    58   18   57 1  
    59   18   58 1  
    60   19   59 1  
    61   20   60 1  
    62   20   61 1  
    63   20   62 1  
    64   21   63 1  
    65   21   64 1  
    66   21   65 1  
    67   22   66 1  
    68   23   67 1  
    69   26   68 1  
    70   26   69 1  
    71   27   70 1  
    72   28   71 1  
    73   28   72 1  
    74   28   73 1  
    75   29   74 1  
    76   29   75 1  
    77   29   76 1  
    78   33   77 1  
    79   33   78 1  
    80   33   79 1  
    81   34   80 1  
    82   34   81 1  
    83   35   82 1  
    84   35   83 1  
    85   36   84 1  
    86   37   85 1  
    87   37   86 1  
    88   39   87 1  
    89   40   88 1  
    90   42   89 1  
    91   42   90 1  
    92   43   91 1  
    93   43   92 1  
    94   43   93 1  
    95   44   94 1  
    96   45   95 1  
    97   46   96 1  
@<TRIPOS>SUBSTRUCTURE
     1 1G1         1

