### 
### Created by X-TOOL on Mon Sep 10 21:13:15 2018
### 

@<TRIPOS>MOLECULE
4int_ligand
   81    82     1     0     0
SMALL
GAST_HUCK


@<TRIPOS>ATOM
      1 C1         55.3890 -134.4810   35.5050 C.ar      1 1G5        -0.0355
      2 C6         56.1640 -135.0260   36.5360 C.ar      1 1G5        -0.0720
      3 C5         57.4950 -135.3850   36.2940 C.ar      1 1G5        -0.0597
      4 C4         58.0700 -135.2070   35.0240 C.ar      1 1G5         0.0428
      5 C3         57.2860 -134.6570   33.9860 C.ar      1 1G5         0.0036
      6 C2         55.9440 -134.2950   34.2290 C.ar      1 1G5         0.0948
      7 C7         57.8780 -134.4460   32.5800 C.3       1 1G5        -0.0293
      8 C9         59.5170 -135.6010   34.7780 C.2       1 1G5         0.1996
      9 O8         55.1630 -133.7490   33.2010 O.3       1 1G5        -0.3358
     10 O32        59.7460 -136.7770   34.5370 O.2       1 1G5        -0.3886
     11 N10        60.5070 -134.6730   34.8200 N.am      1 1G5        -0.2660
     12 C11        61.7410 -134.8860   35.5840 C.3       1 1G5         0.1326
     13 C15        61.4600 -135.1260   37.0620 C.2       1 1G5         0.2042
     14 O16        60.8260 -134.2800   37.6740 O.2       1 1G5        -0.3944
     15 C12        62.7530 -133.7250   35.2990 C.3       1 1G5        -0.0063
     16 C13        63.2800 -133.7740   33.8360 C.3       1 1G5        -0.0584
     17 C14        63.9730 -133.7640   36.2630 C.3       1 1G5        -0.0584
     18 N17        61.9280 -136.2770   37.6130 N.am      1 1G5        -0.2616
     19 C18        61.8250 -136.6100   39.0430 C.3       1 1G5         0.1538
     20 C19        63.1220 -136.3390   39.8150 C.2       1 1G5         0.2043
     21 O33        64.1010 -136.9220   39.3660 O.2       1 1G5        -0.3944
     22 C40        61.0070 -137.8550   39.4940 C.3       1 1G5         0.0843
     23 O41        59.7060 -137.4540   39.9710 O.3       1 1G5        -0.3903
     24 O38        61.3800 -138.0560   45.1430 O.2       1 1G5        -0.1746
     25 S36        61.7670 -138.6690   43.8890 S.o2      1 1G5        -0.0337
     26 O37        62.5640 -139.8790   43.9250 O.2       1 1G5        -0.1746
     27 C39        60.2520 -139.0900   43.0050 C.3       1 1G5         0.0544
     28 C35        62.6070 -137.4580   42.8250 C.3       1 1G5         0.0677
     29 C23        64.0790 -136.9470   42.9990 C.3       1 1G5        -0.0088
     30 C21        64.2340 -135.6990   42.0690 C.3       1 1G5         0.0521
     31 C22        64.3050 -134.3680   42.8760 C.3       1 1G5         0.0009
     32 C24        64.9530 -133.1800   42.1390 C.ar      1 1G5        -0.0475
     33 C25        65.7660 -133.3450   41.0030 C.ar      1 1G5        -0.0666
     34 C26        66.3360 -132.2320   40.3700 C.ar      1 1G5        -0.0618
     35 C27        66.1090 -130.9380   40.8640 C.ar      1 1G5        -0.0054
     36 C30        66.7510 -129.7410   40.1480 C.3       1 1G5        -0.0046
     37 N31        65.7040 -128.9170   39.5090 N.4       1 1G5         0.2299
     38 C28        65.3020 -130.7680   42.0000 C.ar      1 1G5        -0.0618
     39 C29        64.7310 -131.8830   42.6300 C.ar      1 1G5        -0.0666
     40 N20        63.3330 -135.5460   40.9110 N.am      1 1G5        -0.2800
     41 H1         54.3584 -134.2021   35.6925 H         1 1G5         0.0556
     42 H2         55.7336 -135.1697   37.5205 H         1 1G5         0.0543
     43 H3         58.0900 -135.8058   37.0965 H         1 1G5         0.0556
     44 H4         58.9260 -134.7799   32.5696 H         1 1G5         0.0382
     45 H5         57.8307 -133.3786   32.3186 H         1 1G5         0.0382
     46 H6         57.3002 -135.0289   31.8476 H         1 1G5         0.0382
     47 H7         54.2918 -133.5634   33.5312 H         1 1G5         0.2456
     48 H8         60.3915 -133.8179   34.3146 H         1 1G5         0.1874
     49 H9         62.2035 -135.8087   35.2036 H         1 1G5         0.0802
     50 H10        62.2231 -132.7726   35.4478 H         1 1G5         0.0343
     51 H11        63.9860 -132.9464   33.6727 H         1 1G5         0.0234
     52 H12        62.4349 -133.6780   33.1384 H         1 1G5         0.0234
     53 H13        63.7918 -134.7321   33.6625 H         1 1G5         0.0234
     54 H14        63.6190 -133.7301   37.3039 H         1 1G5         0.0234
     55 H15        64.6222 -132.8977   36.0681 H         1 1G5         0.0234
     56 H16        64.5406 -134.6918   36.0988 H         1 1G5         0.0234
     57 H17        62.3703 -136.9396   37.0085 H         1 1G5         0.1884
     58 H18        61.1736 -135.8002   39.4032 H         1 1G5         0.0823
     59 H19        61.5467 -138.3703   40.3022 H         1 1G5         0.0606
     60 H20        60.8857 -138.5381   38.6404 H         1 1G5         0.0606
     61 H21        59.8084 -136.8654   40.7098 H         1 1G5         0.2097
     62 H22        59.6034 -138.2035   42.9463 H         1 1G5         0.0464
     63 H23        59.7263 -139.8941   43.5407 H         1 1G5         0.0464
     64 H24        60.5024 -139.4290   41.9890 H         1 1G5         0.0464
     65 H25        61.9809 -136.5545   42.8654 H         1 1G5         0.0500
     66 H26        62.5677 -137.8865   41.8127 H         1 1G5         0.0500
     67 H27        64.7904 -137.7317   42.7021 H         1 1G5         0.0305
     68 H28        64.2609 -136.6643   44.0463 H         1 1G5         0.0305
     69 H29        65.2303 -135.8270   41.6208 H         1 1G5         0.0578
     70 H30        64.8857 -134.5568   43.7910 H         1 1G5         0.0435
     71 H31        63.2783 -134.0801   43.1461 H         1 1G5         0.0435
     72 H32        65.9529 -134.3396   40.6146 H         1 1G5         0.0540
     73 H33        66.9568 -132.3716   39.4924 H         1 1G5         0.0542
     74 H34        67.4474 -130.1065   39.3790 H         1 1G5         0.0965
     75 H35        67.3002 -129.1300   40.8795 H         1 1G5         0.0965
     76 H36        66.1320 -128.1335   39.0411 H         1 1G5         0.2007
     77 H37        65.0654 -128.5803   40.2125 H         1 1G5         0.2007
     78 H38        65.2004 -129.4751   38.8375 H         1 1G5         0.2007
     79 H39        65.1200 -129.7734   42.3907 H         1 1G5         0.0542
     80 H40        64.1102 -131.7421   43.5074 H         1 1G5         0.0540
     81 H41        62.7772 -134.7149   40.9299 H         1 1G5         0.1856
@<TRIPOS>BOND
     1    2    1 ar 
     2    6    1 ar 
     3    3    2 ar 
     4    4    3 ar 
     5    4    5 ar 
     6    8    4 1  
     7    5    6 ar 
     8    5    7 1  
     9    6    9 1  
    10    8   10 2  
    11   11    8 am 
    12   12   11 1  
    13   13   12 1  
    14   12   15 1  
    15   13   14 2  
    16   18   13 am 
    17   15   16 1  
    18   15   17 1  
    19   19   18 1  
    20   20   19 1  
    21   19   22 1  
    22   20   21 2  
    23   40   20 am 
    24   22   23 1  
    25   25   24 2  
    26   25   26 2  
    27   25   27 1  
    28   28   25 1  
    29   29   28 1  
    30   30   29 1  
    31   30   31 1  
    32   30   40 1  
    33   31   32 1  
    34   32   33 ar 
    35   32   39 ar 
    36   33   34 ar 
    37   34   35 ar 
    38   35   36 1  
    39   35   38 ar 
    40   36   37 1  
    41   38   39 ar 
    42    1   41 1  
    43    2   42 1  
    44    3   43 1  
    45    7   44 1  
    46    7   45 1  
    47    7   46 1  
    48    9   47 1  
    49   11   48 1  
    50   12   49 1  
    51   15   50 1  
    52   16   51 1  
    53   16   52 1  
    54   16   53 1  
    55   17   54 1  
    56   17   55 1  
    57   17   56 1  
    58   18   57 1  
    59   19   58 1  
    60   22   59 1  
    61   22   60 1  
    62   23   61 1  
    63   27   62 1  
    64   27   63 1  
    65   27   64 1  
    66   28   65 1  
    67   28   66 1  
    68   29   67 1  
    69   29   68 1  
    70   30   69 1  
    71   31   70 1  
    72   31   71 1  
    73   33   72 1  
    74   34   73 1  
    75   36   74 1  
    76   36   75 1  
    77   37   76 1  
    78   37   77 1  
    79   37   78 1  
    80   38   79 1  
    81   39   80 1  
    82   40   81 1  
@<TRIPOS>SUBSTRUCTURE
     1 1G5         1

