### 
### Created by X-TOOL on Mon Sep 10 21:13:12 2018
### 

@<TRIPOS>MOLECULE
4io2_ligand
   18    17     1     0     0
SMALL
GAST_HUCK


@<TRIPOS>ATOM
      1 N           3.6670   49.1320   -7.6020 N.4       1 GLU         0.2328
      2 CA          3.3770   50.5660   -7.6900 C.3       1 GLU         0.0298
      3 C           1.9610   50.8490   -7.1950 C.2       1 GLU         0.0845
      4 O           1.1660   49.8860   -7.0410 O.co2     1 GLU        -0.5643
      5 CB          3.5300   51.1110   -9.1130 C.3       1 GLU         0.0139
      6 CG          4.9010   50.9140   -9.7700 C.3       1 GLU         0.0069
      7 CD          6.0410   51.7470   -9.1850 C.2       1 GLU         0.0351
      8 OE1         5.7730   52.6010   -8.3420 O.co2     1 GLU        -0.5690
      9 OE2         7.2010   51.5800   -9.6460 O.co2     1 GLU        -0.5690
     10 OXT         1.6400   52.0340   -6.9430 O.co2     1 GLU        -0.5643
     11 H1          4.6037   48.9578   -7.9312 H         1 GLU         0.2010
     12 H2          3.0104   48.6209   -8.1709 H         1 GLU         0.2010
     13 H3          3.5865   48.8311   -6.6434 H         1 GLU         0.2010
     14 H4          4.0892   51.0967   -7.0410 H         1 GLU         0.1025
     15 H5          3.3248   52.1912   -9.0824 H         1 GLU         0.0356
     16 H6          2.7803   50.6130   -9.7454 H         1 GLU         0.0356
     17 H7          4.8058   51.1720  -10.8351 H         1 GLU         0.0433
     18 H8          5.1733   49.8527   -9.6727 H         1 GLU         0.0433
@<TRIPOS>BOND
     1    1    2 1  
     2    2    3 1  
     3    2    5 1  
     4    3    4 ar 
     5    3   10 ar 
     6    5    6 1  
     7    6    7 1  
     8    7    8 ar 
     9    7    9 ar 
    10    1   11 1  
    11    1   12 1  
    12    1   13 1  
    13    2   14 1  
    14    5   15 1  
    15    5   16 1  
    16    6   17 1  
    17    6   18 1  
@<TRIPOS>SUBSTRUCTURE
     1 GLU         1

