### 
### Created by X-TOOL on Mon Sep 10 21:13:12 2018
### 

@<TRIPOS>MOLECULE
4io3_ligand
   15    14     1     0     0
SMALL
GAST_HUCK


@<TRIPOS>ATOM
      1 N           3.4210   49.3240   -7.7980 N.4       1 ASP         0.2339
      2 CA          2.9470   50.7230   -7.9640 C.3       1 ASP         0.0398
      3 C           1.5240   50.8590   -7.4850 C.2       1 ASP         0.0862
      4 O           0.7880   49.8510   -7.2810 O.co2     1 ASP        -0.5642
      5 CB          3.0110   51.1810   -9.4340 C.3       1 ASP         0.0552
      6 CG          4.4010   51.5830   -9.8630 C.2       1 ASP         0.0419
      7 OD1         4.7380   51.3930  -11.0750 O.co2     1 ASP        -0.5687
      8 OD2         5.1620   52.1030   -9.0080 O.co2     1 ASP        -0.5687
      9 OXT         1.0720   51.9980   -7.3040 O.co2     1 ASP        -0.5642
     10 H1          4.3725   49.2509   -8.1226 H         1 ASP         0.2011
     11 H2          2.8344   48.7045   -8.3348 H         1 ASP         0.2011
     12 H3          3.3776   49.0679   -6.8241 H         1 ASP         0.2011
     13 H4          3.5917   51.3797   -7.3615 H         1 ASP         0.1043
     14 H5          2.3406   52.0436   -9.5626 H         1 ASP         0.0505
     15 H6          2.6713   50.3539  -10.0746 H         1 ASP         0.0505
@<TRIPOS>BOND
     1    1    2 1  
     2    2    3 1  
     3    2    5 1  
     4    3    4 ar 
     5    3    9 ar 
     6    5    6 1  
     7    6    7 ar 
     8    6    8 ar 
     9    1   10 1  
    10    1   11 1  
    11    1   12 1  
    12    2   13 1  
    13    5   14 1  
    14    5   15 1  
@<TRIPOS>SUBSTRUCTURE
     1 ASP         1

