### 
### Created by X-TOOL on Mon Sep 10 21:13:12 2018
### 

@<TRIPOS>MOLECULE
4io4_ligand
   14    13     1     0     0
SMALL
GAST_HUCK


@<TRIPOS>ATOM
      1 N          -3.9310   22.4840   -7.8260 N.4       1 SER         0.2343
      2 CA         -3.5440   21.0280   -7.9390 C.3       1 SER         0.0519
      3 C          -2.0980   20.8310   -7.5680 C.2       1 SER         0.0867
      4 O          -1.3070   21.8220   -7.4790 O.co2     1 SER        -0.5642
      5 CB         -3.8100   20.4630   -9.3400 C.3       1 SER         0.0987
      6 OG         -5.1940   20.2590   -9.5520 O.3       1 SER        -0.3876
      7 OXT        -1.7170   19.6640   -7.3570 O.co2     1 SER        -0.5642
      8 H1         -4.9007   22.5944   -8.0781 H         1 SER         0.2011
      9 H2         -3.3578   23.0332   -8.4471 H         1 SER         0.2011
     10 H3         -3.7928   22.7958   -6.8774 H         1 SER         0.2011
     11 H4         -4.1605   20.4619   -7.2253 H         1 SER         0.1047
     12 H5         -3.2848   19.5023   -9.4457 H         1 SER         0.0633
     13 H6         -3.4321   21.1721  -10.0912 H         1 SER         0.0633
     14 H7         -5.6519   21.0869   -9.4654 H         1 SER         0.2098
@<TRIPOS>BOND
     1    1    2 1  
     2    2    3 1  
     3    2    5 1  
     4    3    4 ar 
     5    3    7 ar 
     6    5    6 1  
     7    1    8 1  
     8    1    9 1  
     9    1   10 1  
    10    2   11 1  
    11    5   12 1  
    12    5   13 1  
    13    6   14 1  
@<TRIPOS>SUBSTRUCTURE
     1 SER         1

