### 
### Created by X-TOOL on Mon Sep 10 21:13:12 2018
### 

@<TRIPOS>MOLECULE
4io5_ligand
   13    12     1     0     0
SMALL
GAST_HUCK


@<TRIPOS>ATOM
      1 N           3.6780   49.0990   -7.5620 N.4       1 ALA         0.2325
      2 CA          3.3400   50.5220   -7.6630 C.3       1 ALA         0.0255
      3 C           1.9460   50.7850   -7.1650 C.2       1 ALA         0.0841
      4 O           1.1720   49.8130   -6.9740 O.co2     1 ALA        -0.5643
      5 CB          3.4880   50.9890   -9.0990 C.3       1 ALA        -0.0095
      6 OXT         1.5490   51.9380   -6.9440 O.co2     1 ALA        -0.5643
      7 H1          4.6155   48.9514   -7.9017 H         1 ALA         0.2010
      8 H2          3.0312   48.5598   -8.1160 H         1 ALA         0.2010
      9 H3          3.6198   48.8073   -6.5989 H         1 ALA         0.2010
     10 H4          4.0430   51.0908   -7.0367 H         1 ALA         0.1021
     11 H5          3.2326   52.0569   -9.1654 H         1 ALA         0.0303
     12 H6          2.8118   50.4095   -9.7446 H         1 ALA         0.0303
     13 H7          4.5269   50.8393   -9.4280 H         1 ALA         0.0303
@<TRIPOS>BOND
     1    1    2 1  
     2    2    3 1  
     3    2    5 1  
     4    3    4 ar 
     5    3    6 ar 
     6    1    7 1  
     7    1    8 1  
     8    1    9 1  
     9    2   10 1  
    10    5   11 1  
    11    5   12 1  
    12    5   13 1  
@<TRIPOS>SUBSTRUCTURE
     1 ALA         1

