### 
### Created by X-TOOL on Mon Sep 10 21:13:12 2018
### 

@<TRIPOS>MOLECULE
4io6_ligand
   20    19     1     0     0
SMALL
GAST_HUCK


@<TRIPOS>ATOM
      1 N           3.5260   49.1790   -7.5450 N.4       1 MET         0.2327
      2 CA          3.2300   50.6250   -7.4610 C.3       1 MET         0.0291
      3 C           1.7780   50.8490   -7.1330 C.2       1 MET         0.0844
      4 O           0.9700   49.8790   -7.0420 O.co2     1 MET        -0.5643
      5 CB          3.5900   51.3800   -8.7460 C.3       1 MET         0.0114
      6 CG          5.0490   51.7420   -8.8040 C.3       1 MET         0.0001
      7 SD          5.3670   53.0400   -7.5290 S.3       1 MET        -0.1638
      8 CE          7.1550   52.9210   -7.3760 C.3       1 MET        -0.0181
      9 OXT         1.3340   51.9900   -6.9570 O.co2     1 MET        -0.5643
     10 H1          4.5009   49.0479   -7.7650 H         1 MET         0.2010
     11 H2          2.9596   48.7614   -8.2667 H         1 MET         0.2010
     12 H3          3.3194   48.7418   -6.6606 H         1 MET         0.2010
     13 H4          3.8366   51.0427   -6.6439 H         1 MET         0.1024
     14 H5          2.9941   52.3034   -8.7929 H         1 MET         0.0347
     15 H6          3.3486   50.7435   -9.6100 H         1 MET         0.0347
     16 H7          5.2976   52.1309   -9.8025 H         1 MET         0.0379
     17 H8          5.6626   50.8537   -8.5932 H         1 MET         0.0379
     18 H9          7.5088   53.6509   -6.6330 H         1 MET         0.0340
     19 H10         7.6213   53.1333   -8.3494 H         1 MET         0.0340
     20 H11         7.4286   51.9061   -7.0519 H         1 MET         0.0340
@<TRIPOS>BOND
     1    1    2 1  
     2    2    3 1  
     3    2    5 1  
     4    3    4 ar 
     5    3    9 ar 
     6    5    6 1  
     7    6    7 1  
     8    7    8 1  
     9    1   10 1  
    10    1   11 1  
    11    1   12 1  
    12    2   13 1  
    13    5   14 1  
    14    5   15 1  
    15    6   16 1  
    16    6   17 1  
    17    8   18 1  
    18    8   19 1  
    19    8   20 1  
@<TRIPOS>SUBSTRUCTURE
     1 MET         1

