### 
### Created by X-TOOL on Mon Sep 10 21:13:12 2018
### 

@<TRIPOS>MOLECULE
4io7_ligand
   23    23     1     0     0
SMALL
GAST_HUCK


@<TRIPOS>ATOM
      1 N           3.3810   49.3590   -7.7330 N.4       1 PHE         0.2341
      2 CA          2.9120   50.7750   -7.8620 C.3       1 PHE         0.0378
      3 C           1.5410   50.9110   -7.2860 C.2       1 PHE         0.0866
      4 O           0.8500   49.8900   -7.1010 O.co2     1 PHE        -0.5641
      5 CB          2.8380   51.2060   -9.3200 C.3       1 PHE         0.0361
      6 CG          4.1670   51.2040  -10.0040 C.ar      1 PHE        -0.0360
      7 CD1         5.1110   52.1840   -9.7090 C.ar      1 PHE        -0.0600
      8 CD2         4.4820   50.2110  -10.9350 C.ar      1 PHE        -0.0600
      9 CE1         6.3690   52.1710  -10.3440 C.ar      1 PHE        -0.0686
     10 CE2         5.7280   50.1780  -11.5850 C.ar      1 PHE        -0.0686
     11 CZ          6.6920   51.1470  -11.2690 C.ar      1 PHE        -0.0687
     12 OXT         1.1390   52.0640   -7.0460 O.co2     1 PHE        -0.5641
     13 H1          4.3064   49.2747   -8.1236 H         1 PHE         0.2012
     14 H2          2.7500   48.7495   -8.2294 H         1 PHE         0.2012
     15 H3          3.4024   49.0995   -6.7592 H         1 PHE         0.2012
     16 H4          3.6088   51.4323   -7.3213 H         1 PHE         0.1048
     17 H5          2.4247   52.2245   -9.3627 H         1 PHE         0.0500
     18 H6          2.1688   50.5159   -9.8548 H         1 PHE         0.0500
     19 H7          4.8775   52.9595   -8.9885 H         1 PHE         0.0557
     20 H8          3.7472   49.4469  -11.1618 H         1 PHE         0.0557
     21 H9          7.0927   52.9475  -10.1240 H         1 PHE         0.0599
     22 H10         5.9416   49.4124  -12.3221 H         1 PHE         0.0599
     23 H11         7.6737   51.1129  -11.7275 H         1 PHE         0.0559
@<TRIPOS>BOND
     1    1    2 1  
     2    2    3 1  
     3    2    5 1  
     4    3    4 ar 
     5    3   12 ar 
     6    5    6 1  
     7    6    7 ar 
     8    6    8 ar 
     9    7    9 ar 
    10    8   10 ar 
    11    9   11 ar 
    12   10   11 ar 
    13    1   13 1  
    14    1   14 1  
    15    1   15 1  
    16    2   16 1  
    17    5   17 1  
    18    5   18 1  
    19    7   19 1  
    20    8   20 1  
    21    9   21 1  
    22   10   22 1  
    23   11   23 1  
@<TRIPOS>SUBSTRUCTURE
     1 PHE         1

