### 
### Created by X-TOOL on Mon Sep 10 21:13:13 2018
### 

@<TRIPOS>MOLECULE
4io8_ligand
   61    65     1     0     0
SMALL
GAST_HUCK


@<TRIPOS>ATOM
      1 C18         0.7100    7.5010   11.4630 C.ar      1 3FD        -0.0576
      2 C17        -0.1580    7.2680   10.3940 C.ar      1 3FD        -0.0541
      3 C16        -0.7090    5.9910   10.2390 C.ar      1 3FD         0.0469
      4 CL20       -1.7750    5.6230    8.9160 Cl        1 3FD        -0.0764
      5 C15        -0.4180    4.9900   11.1600 C.ar      1 3FD         0.0478
      6 C14         0.4310    5.2260   12.2120 C.ar      1 3FD        -0.0439
      7 C13         0.9960    6.4790   12.3630 C.ar      1 3FD        -0.0198
      8 C12         1.9010    6.6990   13.5360 C.3       1 3FD         0.0671
      9 N11         1.7440    5.6120   14.5160 N.pl3     1 3FD        -0.2633
     10 C6          0.9630    5.7780   15.6440 C.2       1 3FD         0.2238
     11 N7          0.1720    6.8040   15.8160 N.2       1 3FD        -0.3032
     12 C8         -0.4240    6.7120   17.0250 C.ar      1 3FD         0.0820
     13 C4         -1.3620    7.5090   17.7090 C.ar      1 3FD         0.1208
     14 N10        -1.8730    8.6530   17.0940 N.pl3     1 3FD        -0.3182
     15 N1         -1.7610    7.1080   18.9270 N.ar      1 3FD        -0.2757
     16 C2         -1.2640    6.0210   19.4970 C.ar      1 3FD         0.0488
     17 N3         -0.4000    5.2370   18.8680 N.ar      1 3FD        -0.2770
     18 C9          0.0430    5.5380   17.6480 C.ar      1 3FD         0.1531
     19 N5          0.9100    4.9500   16.7540 N.pl3     1 3FD        -0.1701
     20 C21         1.5940    3.6600   16.9860 C.3       1 3FD         0.2010
     21 O22         3.0200    3.6820   16.7060 O.3       1 3FD        -0.3374
     22 C24         1.0810    2.5500   16.0250 C.3       1 3FD         0.1377
     23 O26        -0.2160    2.0540   16.3750 O.3       1 3FD        -0.3837
     24 C25         2.1910    1.4870   16.2120 C.3       1 3FD         0.1145
     25 O27         1.9080    0.6850   17.3620 O.3       1 3FD        -0.3864
     26 C23         3.4520    2.3390   16.4340 C.3       1 3FD         0.1139
     27 C28         4.3640    2.3310   15.2030 C.3       1 3FD         0.0794
     28 O29         3.7530    2.9380   14.0540 O.3       1 3FD        -0.3630
     29 C30         4.6730    3.3520   13.0270 C.3       1 3FD         0.0860
     30 C31         3.9280    3.7460   11.7750 C.ar      1 3FD        -0.0081
     31 C32         4.1630    4.9850   11.1810 C.ar      1 3FD        -0.0464
     32 C33         3.4560    5.3580   10.0360 C.ar      1 3FD        -0.0334
     33 C34         2.5360    4.4540    9.4540 C.ar      1 3FD         0.0883
     34 C37         1.8020    4.8210    8.2660 C.1       1 3FD         0.0934
     35 N38         1.2280    5.1220    7.3250 N.1       1 3FD        -0.3338
     36 C35         2.3120    3.2010   10.0430 C.ar      1 3FD        -0.0334
     37 C36         2.9970    2.8700   11.2100 C.ar      1 3FD        -0.0464
     38 CL21       -1.0620    3.4010   11.0080 Cl        1 3FD        -0.0718
     39 H1          1.1610    8.4783   11.5917 H         1 3FD         0.0559
     40 H2         -0.4005    8.0620    9.6970 H         1 3FD         0.0606
     41 H3          0.6570    4.4362   12.9192 H         1 3FD         0.0563
     42 H4          1.6486    7.6571   14.0139 H         1 3FD         0.0690
     43 H5          2.9444    6.7260   13.1888 H         1 3FD         0.0690
     44 H6          2.2235    4.7141   14.3587 H         1 3FD         0.1920
     45 H7         -2.5594    9.2406   17.5885 H         1 3FD         0.1803
     46 H8         -1.5637    8.9097   16.1457 H         1 3FD         0.1803
     47 H9         -1.5719    5.7656   20.5045 H         1 3FD         0.0961
     48 H10         1.4235    3.3680   18.0327 H         1 3FD         0.0985
     49 H11         1.0497    2.9121   14.9868 H         1 3FD         0.0675
     50 H12        -0.4746    1.3820   15.7553 H         1 3FD         0.2101
     51 H13         2.2917    0.8471   15.3230 H         1 3FD         0.0648
     52 H14         1.0722    0.2489   17.2446 H         1 3FD         0.2100
     53 H15         4.0115    1.9457   17.2955 H         1 3FD         0.0647
     54 H16         4.6147    1.2883   14.9581 H         1 3FD         0.0589
     55 H17         5.2847    2.8826   15.4440 H         1 3FD         0.0589
     56 H18         5.3548    2.5204   12.7955 H         1 3FD         0.0745
     57 H19         5.2544    4.2132   13.3880 H         1 3FD         0.0745
     58 H20         4.8956    5.6599   11.6085 H         1 3FD         0.0584
     59 H21         3.6113    6.3359    9.5949 H         1 3FD         0.0701
     60 H22         1.6158    2.5002    9.5966 H         1 3FD         0.0701
     61 H23         2.8046    1.9164   11.6882 H         1 3FD         0.0584
@<TRIPOS>BOND
     1    1    2 ar 
     2    1    7 ar 
     3    2    3 ar 
     4    3    4 1  
     5    3    5 ar 
     6    5    6 ar 
     7    5   38 1  
     8    6    7 ar 
     9    7    8 1  
    10    8    9 1  
    11    9   10 1  
    12   10   11 2  
    13   10   19 1  
    14   11   12 1  
    15   12   13 ar 
    16   12   18 ar 
    17   13   14 1  
    18   13   15 ar 
    19   15   16 ar 
    20   16   17 ar 
    21   17   18 ar 
    22   18   19 1  
    23   19   20 1  
    24   20   21 1  
    25   20   22 1  
    26   21   26 1  
    27   22   23 1  
    28   22   24 1  
    29   24   25 1  
    30   24   26 1  
    31   26   27 1  
    32   27   28 1  
    33   28   29 1  
    34   29   30 1  
    35   30   31 ar 
    36   30   37 ar 
    37   31   32 ar 
    38   32   33 ar 
    39   33   34 1  
    40   33   36 ar 
    41   34   35 3  
    42   36   37 ar 
    43    1   39 1  
    44    2   40 1  
    45    6   41 1  
    46    8   42 1  
    47    8   43 1  
    48    9   44 1  
    49   14   45 1  
    50   14   46 1  
    51   16   47 1  
    52   20   48 1  
    53   22   49 1  
    54   23   50 1  
    55   24   51 1  
    56   25   52 1  
    57   26   53 1  
    58   27   54 1  
    59   27   55 1  
    60   29   56 1  
    61   29   57 1  
    62   31   58 1  
    63   32   59 1  
    64   36   60 1  
    65   37   61 1  
@<TRIPOS>SUBSTRUCTURE
     1 3FD         1

