### 
### Created by X-TOOL on Mon Sep 10 21:13:15 2018
### 

@<TRIPOS>MOLECULE
4ipf_ligand
   98   102     1     0     0
SMALL
GAST_HUCK


@<TRIPOS>ATOM
      1 N1         12.5930    8.4480   35.6800 N.am      1 1F0        -0.2067
      2 C5         11.6930    9.0880   34.7370 C.3       1 1F0         0.0627
      3 C57        10.6480    8.1090   34.1730 C.3       1 1F0        -0.0637
      4 C51        12.5190    9.7250   33.6330 C.ar      1 1F0        -0.0268
      5 C4         11.0400   10.1620   35.6600 C.3       1 1F0         0.0029
      6 C47         9.7150    9.6460   36.2220 C.3       1 1F0        -0.0832
      7 C41        10.8030   11.4630   34.9430 C.ar      1 1F0        -0.0478
      8 N3         11.9970   10.3170   36.7720 N.2       1 1F0        -0.3920
      9 C2         12.8170    9.3230   36.8000 C.2       1 1F0         0.1406
     10 C21        13.8480    9.0940   37.8320 C.ar      1 1F0         0.0971
     11 C56        13.8950    9.9110   33.8140 C.ar      1 1F0        -0.0376
     12 C55        14.6510   10.5850   32.8470 C.ar      1 1F0        -0.0181
     13 C54        14.0230   11.0690   31.6990 C.ar      1 1F0         0.0714
     14 CL5        14.9490   12.0200   30.5330 Cl        1 1F0        -0.0420
     15 C53        12.6640   10.8230   31.4760 C.ar      1 1F0        -0.0181
     16 C52        11.9130   10.1510   32.4430 C.ar      1 1F0        -0.0376
     17 C42         9.5430   11.7220   34.3940 C.ar      1 1F0        -0.0396
     18 C43         9.3140   12.9070   33.7010 C.ar      1 1F0        -0.0182
     19 C44        10.3530   13.8250   33.5590 C.ar      1 1F0         0.0714
     20 CL4        10.0880   15.3050   32.6470 Cl        1 1F0        -0.0420
     21 C45        11.6080   13.5830   34.1220 C.ar      1 1F0        -0.0182
     22 C46        11.8280   12.4000   34.8190 C.ar      1 1F0        -0.0396
     23 C10        13.0660    7.0970   35.4780 C.2       1 1F0         0.2960
     24 O10        13.3310    6.7080   34.3340 O.2       1 1F0        -0.3860
     25 N10        13.2410    6.2470   36.5800 N.am      1 1F0        -0.2425
     26 C14        13.8940    4.9610   36.3600 C.3       1 1F0         0.0752
     27 C13        14.7730    4.6360   37.5540 C.3       1 1F0        -0.0111
     28 N12        13.9860    4.6500   38.8110 N.4       1 1F0         0.2381
     29 C12        13.3380    5.9800   39.0310 C.3       1 1F0        -0.0111
     30 C11        12.4680    6.3950   37.8190 C.3       1 1F0         0.0752
     31 C22        13.5640    9.4060   39.1630 C.ar      1 1F0        -0.0207
     32 C23        14.5320    9.2370   40.1560 C.ar      1 1F0        -0.0449
     33 C24        15.8000    8.7430   39.8310 C.ar      1 1F0        -0.0548
     34 C30        16.8240    8.5630   40.9220 C.3       1 1F0        -0.0475
     35 C33        17.7970    9.7470   40.9110 C.3       1 1F0        -0.0845
     36 C31        17.6040    7.2640   40.6970 C.3       1 1F0        -0.0845
     37 C25        16.1090    8.4270   38.5040 C.ar      1 1F0        -0.0056
     38 C26        15.1270    8.6120   37.5190 C.ar      1 1F0         0.1408
     39 O27        15.4220    8.3400   36.2110 O.3       1 1F0        -0.3045
     40 C28        16.7390    7.8810   35.9490 C.3       1 1F0         0.0707
     41 C29        16.8820    7.5420   34.4590 C.3       1 1F0        -0.0367
     42 C32        16.1170    8.5010   42.2790 C.3       1 1F0        -0.0845
     43 C16        14.1050    4.2660   41.2850 C.3       1 1F0         0.0068
     44 C17        15.0680    3.7860   42.3820 C.3       1 1F0         0.0702
     45 S17        14.4700    4.2170   43.9960 S.o2      1 1F0        -0.0336
     46 C19        15.5690    3.4180   45.1430 C.3       1 1F0         0.0544
     47 O17        13.1380    3.6560   44.1630 O.2       1 1F0        -0.1746
     48 O18        14.5940    5.6660   44.1580 O.2       1 1F0        -0.1746
     49 C15        14.8370    4.2230   39.9420 C.3       1 1F0        -0.0303
     50 H1          9.9926    8.6393   33.4665 H         1 1F0         0.0154
     51 H2         10.0447    7.7015   34.9976 H         1 1F0         0.0154
     52 H3         11.1598    7.2866   33.6518 H         1 1F0         0.0154
     53 H4          9.2677   10.4141   36.8700 H         1 1F0         0.0134
     54 H5          9.8959    8.7324   36.8074 H         1 1F0         0.0134
     55 H6          9.0281    9.4203   35.3930 H         1 1F0         0.0134
     56 H7         14.3775    9.5313   34.7073 H         1 1F0         0.0848
     57 H8         15.7159   10.7296   32.9893 H         1 1F0         0.0703
     58 H9         12.1954   11.1528   30.5558 H         1 1F0         0.0703
     59 H10        10.8598    9.9586   32.2730 H         1 1F0         0.0848
     60 H11         8.7437   10.9988   34.5084 H         1 1F0         0.0847
     61 H12         8.3383   13.1137   33.2764 H         1 1F0         0.0703
     62 H13        12.4039   14.3113   34.0165 H         1 1F0         0.0703
     63 H14        12.7964   12.2063   35.2659 H         1 1F0         0.0847
     64 H15        14.5122    5.0130   35.4516 H         1 1F0         0.0573
     65 H16        13.1317    4.1771   36.2404 H         1 1F0         0.0573
     66 H17        15.5763    5.3842   37.6239 H         1 1F0         0.0834
     67 H18        15.2130    3.6373   37.4159 H         1 1F0         0.0834
     68 H19        13.2463    3.9716   38.7181 H         1 1F0         0.2035
     69 H20        14.1204    6.7376   39.1854 H         1 1F0         0.0834
     70 H21        12.7006    5.9234   39.9257 H         1 1F0         0.0834
     71 H22        11.5762    5.7527   37.7723 H         1 1F0         0.0573
     72 H23        12.1585    7.4443   37.9336 H         1 1F0         0.0573
     73 H24        12.5829    9.7830   39.4284 H         1 1F0         0.0727
     74 H25        14.2994    9.4900   41.1841 H         1 1F0         0.0769
     75 H26        18.5441    9.6150   41.7075 H         1 1F0         0.0135
     76 H27        17.2406   10.6805   41.0813 H         1 1F0         0.0135
     77 H28        18.3048    9.7953   39.9364 H         1 1F0         0.0135
     78 H29        16.9078    6.4124   40.7044 H         1 1F0         0.0135
     79 H30        18.3459    7.1381   41.4993 H         1 1F0         0.0135
     80 H31        18.1183    7.3086   39.7257 H         1 1F0         0.0135
     81 H32        17.0893    8.0461   38.2413 H         1 1F0         0.0765
     82 H33        16.9389    6.9813   36.5494 H         1 1F0         0.0616
     83 H34        17.4602    8.6676   36.2158 H         1 1F0         0.0616
     84 H35        17.9039    7.1867   34.2603 H         1 1F0         0.0256
     85 H36        16.6830    8.4413   33.8576 H         1 1F0         0.0256
     86 H37        16.1617    6.7550   34.1912 H         1 1F0         0.0256
     87 H38        15.5560    9.4329   42.4430 H         1 1F0         0.0135
     88 H39        16.8644    8.3778   43.0766 H         1 1F0         0.0135
     89 H40        15.4227    7.6479   42.2921 H         1 1F0         0.0135
     90 H41        13.7828    5.2958   41.4989 H         1 1F0         0.0333
     91 H42        13.2254    3.6065   41.2491 H         1 1F0         0.0333
     92 H43        16.0508    4.2549   42.2267 H         1 1F0         0.0501
     93 H44        15.1690    2.6926   42.3172 H         1 1F0         0.0501
     94 H45        15.2534    3.6452   46.1720 H         1 1F0         0.0464
     95 H46        16.5940    3.7844   44.9846 H         1 1F0         0.0464
     96 H47        15.5394    2.3302   44.9821 H         1 1F0         0.0464
     97 H48        15.7100    4.8900   39.9962 H         1 1F0         0.0815
     98 H49        15.1740    3.1921   39.7585 H         1 1F0         0.0815
@<TRIPOS>BOND
     1    1    2 1  
     2    1    9 1  
     3   23    1 am 
     4    2    3 1  
     5    2    4 1  
     6    2    5 1  
     7    4   11 ar 
     8    4   16 ar 
     9    5    6 1  
    10    5    7 1  
    11    8    5 1  
    12    7   17 ar 
    13    7   22 ar 
    14    9    8 2  
    15    9   10 1  
    16   10   31 ar 
    17   10   38 ar 
    18   11   12 ar 
    19   12   13 ar 
    20   13   14 1  
    21   15   13 ar 
    22   16   15 ar 
    23   17   18 ar 
    24   18   19 ar 
    25   19   20 1  
    26   21   19 ar 
    27   22   21 ar 
    28   23   24 2  
    29   25   23 am 
    30   26   25 1  
    31   30   25 1  
    32   27   26 1  
    33   28   27 1  
    34   28   29 1  
    35   49   28 1  
    36   29   30 1  
    37   31   32 ar 
    38   32   33 ar 
    39   33   34 1  
    40   37   33 ar 
    41   34   35 1  
    42   34   36 1  
    43   34   42 1  
    44   38   37 ar 
    45   38   39 1  
    46   39   40 1  
    47   40   41 1  
    48   43   44 1  
    49   43   49 1  
    50   44   45 1  
    51   45   46 1  
    52   45   47 2  
    53   45   48 2  
    54    3   50 1  
    55    3   51 1  
    56    3   52 1  
    57    6   53 1  
    58    6   54 1  
    59    6   55 1  
    60   11   56 1  
    61   12   57 1  
    62   15   58 1  
    63   16   59 1  
    64   17   60 1  
    65   18   61 1  
    66   21   62 1  
    67   22   63 1  
    68   26   64 1  
    69   26   65 1  
    70   27   66 1  
    71   27   67 1  
    72   28   68 1  
    73   29   69 1  
    74   29   70 1  
    75   30   71 1  
    76   30   72 1  
    77   31   73 1  
    78   32   74 1  
    79   35   75 1  
    80   35   76 1  
    81   35   77 1  
    82   36   78 1  
    83   36   79 1  
    84   36   80 1  
    85   37   81 1  
    86   40   82 1  
    87   40   83 1  
    88   41   84 1  
    89   41   85 1  
    90   41   86 1  
    91   42   87 1  
    92   42   88 1  
    93   42   89 1  
    94   43   90 1  
    95   43   91 1  
    96   44   92 1  
    97   44   93 1  
    98   46   94 1  
    99   46   95 1  
   100   46   96 1  
   101   49   97 1  
   102   49   98 1  
@<TRIPOS>SUBSTRUCTURE
     1 1F0         1

