### 
### Created by X-TOOL on Mon Sep 10 21:13:12 2018
### 

@<TRIPOS>MOLECULE
4ipi_ligand
   13    12     1     0     0
SMALL
GAST_HUCK


@<TRIPOS>ATOM
      1 C1         95.6610  -20.8910   53.0380 C.2       1 LMR         0.0650
      2 O1A        94.6900  -20.1080   52.8650 O.co2     1 LMR        -0.5662
      3 O1B        95.7550  -21.5130   54.1160 O.co2     1 LMR        -0.5662
      4 C2         96.7200  -21.0920   51.9920 C.3       1 LMR         0.1185
      5 O2         96.5730  -20.1780   50.9280 O.3       1 LMR        -0.3760
      6 C3         98.1110  -20.9690   52.6210 C.3       1 LMR         0.0381
      7 C4         98.2670  -19.6880   53.4070 C.2       1 LMR         0.0389
      8 O4A        99.3170  -19.4570   54.0610 O.co2     1 LMR        -0.5688
      9 O4B        97.3480  -18.8430   53.4240 O.co2     1 LMR        -0.5688
     10 H1         96.6126  -22.1086   51.5859 H         1 LMR         0.0782
     11 H2         96.6428  -19.2913   51.2618 H         1 LMR         0.2125
     12 H3         98.8654  -20.9883   51.8207 H         1 LMR         0.0474
     13 H4         98.2715  -21.8218   53.2969 H         1 LMR         0.0474
@<TRIPOS>BOND
     1    1    2 ar 
     2    1    3 ar 
     3    1    4 1  
     4    4    5 1  
     5    4    6 1  
     6    6    7 1  
     7    7    8 ar 
     8    7    9 ar 
     9    4   10 1  
    10    5   11 1  
    11    6   12 1  
    12    6   13 1  
@<TRIPOS>SUBSTRUCTURE
     1 LMR         1

