### 
### Created by X-TOOL on Mon Sep 10 21:13:14 2018
### 

@<TRIPOS>MOLECULE
4iq6_ligand
   42    45     1     0     0
SMALL
GAST_HUCK


@<TRIPOS>ATOM
      1 C1         40.8950   -5.4570  -35.6210 C.ar      1 IQ6        -0.0498
      2 C2         40.0090   -6.4270  -35.1990 C.ar      1 IQ6        -0.0533
      3 C3         37.4520   -8.0540  -34.2280 C.ar      1 IQ6        -0.0246
      4 C4         37.2720  -10.2230  -35.1320 C.ar      1 IQ6        -0.0358
      5 C5         41.4280   -5.5230  -36.8910 C.ar      1 IQ6        -0.0047
      6 C6         38.9510   -9.1600  -37.3540 C.2       1 IQ6         0.0488
      7 C7         39.7010   -7.4250  -36.1160 C.ar      1 IQ6         0.0142
      8 C8         37.8820   -8.9870  -35.1380 C.ar      1 IQ6        -0.0348
      9 C9         38.8440   -8.5620  -36.1200 C.2       1 IQ6         0.0012
     10 C10        40.2940   -7.3670  -37.3670 C.ar      1 IQ6         0.1412
     11 C11        36.4810   -8.3290  -33.2900 C.ar      1 IQ6         0.0981
     12 C12        36.2940  -10.4340  -34.1800 C.ar      1 IQ6         0.0936
     13 C13        38.5190   -4.8500  -29.7810 C.3       1 IQ6        -0.0529
     14 C14        39.2100   -5.6730  -30.8550 C.3       1 IQ6        -0.0510
     15 C15        37.2680   -5.5420  -29.2490 C.3       1 IQ6        -0.0510
     16 C16        38.2410   -6.0530  -31.9590 C.3       1 IQ6        -0.0302
     17 C17        36.3370   -6.0410  -30.3520 C.3       1 IQ6        -0.0302
     18 C18        37.0730   -6.8690  -31.4040 C.3       1 IQ6         0.0376
     19 N19        41.1640   -6.4550  -37.8170 N.ar      1 IQ6        -0.2842
     20 N20        35.8770   -9.5340  -33.2710 N.ar      1 IQ6        -0.2806
     21 N21        39.8580   -8.4450  -38.0790 N.pl3     1 IQ6        -0.2563
     22 N22        36.1050   -7.2600  -32.4340 N.pl3     1 IQ6        -0.3080
     23 CL1        35.4990  -11.9600  -34.1570 Cl        1 IQ6        -0.0469
     24 H1         41.1710   -4.6461  -34.9566 H         1 IQ6         0.0604
     25 H2         39.5762   -6.4115  -34.2052 H         1 IQ6         0.0674
     26 H3         37.8927   -7.0638  -34.2480 H         1 IQ6         0.0515
     27 H4         37.5474  -10.9943  -35.8422 H         1 IQ6         0.0525
     28 H5         42.1296   -4.7443  -37.1676 H         1 IQ6         0.0753
     29 H6         38.4101  -10.0432  -37.6906 H         1 IQ6         0.1075
     30 H7         38.2328   -3.8774  -30.2077 H         1 IQ6         0.0265
     31 H8         39.2197   -4.6930  -28.9478 H         1 IQ6         0.0265
     32 H9         39.6146   -6.5895  -30.4008 H         1 IQ6         0.0266
     33 H10        40.0325   -5.0834  -31.2860 H         1 IQ6         0.0266
     34 H11        36.7143   -4.8280  -28.6216 H         1 IQ6         0.0266
     35 H12        37.5783   -6.4028  -28.6384 H         1 IQ6         0.0266
     36 H13        38.7719   -6.6518  -32.7137 H         1 IQ6         0.0287
     37 H14        37.8503   -5.1370  -32.4261 H         1 IQ6         0.0287
     38 H15        35.8759   -5.1725  -30.8450 H         1 IQ6         0.0287
     39 H16        35.5526   -6.6639  -29.8974 H         1 IQ6         0.0287
     40 H17        37.4761   -7.7795  -30.9366 H         1 IQ6         0.0553
     41 H18        40.1699   -8.6855  -39.0307 H         1 IQ6         0.2355
     42 H19        35.1974   -6.7829  -32.5317 H         1 IQ6         0.1799
@<TRIPOS>BOND
     1    2    1 ar 
     2    1    5 ar 
     3    7    2 ar 
     4    3    8 ar 
     5   11    3 ar 
     6    8    4 ar 
     7   12    4 ar 
     8   19    5 ar 
     9    9    6 2  
    10    6   21 1  
    11    9    7 1  
    12    7   10 ar 
    13    8    9 1  
    14   10   19 ar 
    15   10   21 1  
    16   11   20 ar 
    17   22   11 1  
    18   20   12 ar 
    19   12   23 1  
    20   14   13 1  
    21   15   13 1  
    22   16   14 1  
    23   17   15 1  
    24   18   16 1  
    25   18   17 1  
    26   18   22 1  
    27    1   24 1  
    28    2   25 1  
    29    3   26 1  
    30    4   27 1  
    31    5   28 1  
    32    6   29 1  
    33   13   30 1  
    34   13   31 1  
    35   14   32 1  
    36   14   33 1  
    37   15   34 1  
    38   15   35 1  
    39   16   36 1  
    40   16   37 1  
    41   17   38 1  
    42   17   39 1  
    43   18   40 1  
    44   21   41 1  
    45   22   42 1  
@<TRIPOS>SUBSTRUCTURE
     1 IQ6         1

