### 
### Created by X-TOOL on Mon Sep 10 21:13:13 2018
### 

@<TRIPOS>MOLECULE
4iqt_ligand
   39    40     1     0     0
SMALL
GAST_HUCK


@<TRIPOS>ATOM
      1 OAA        20.1980    7.9910   15.9300 O.2       1 1FO        -0.3912
      2 OAB        19.4620   11.0920   11.6090 O.co2     1 1FO        -0.5662
      3 OAC        15.6100    8.0500   23.1790 O.2       1 1FO        -0.3834
      4 OAD        18.8370   12.2140   13.2890 O.co2     1 1FO        -0.5662
      5 OAE        19.0850    8.5270   13.3250 O.3       1 1FO        -0.3753
      6 FAF        16.7290    3.9500   26.4020 F         1 1FO        -0.1823
      7 CAG        19.0130    9.0070   17.7840 C.3       1 1FO         0.0322
      8 CAH        17.6510    8.3010   18.0160 C.3       1 1FO         0.0157
      9 CAI        18.8890    9.9270   15.3500 C.3       1 1FO         0.0591
     10 CAJ        19.4760    6.0460   24.7090 C.ar      1 1FO        -0.0580
     11 CAK        18.7830    5.1230   25.5600 C.ar      1 1FO        -0.0238
     12 CAL        18.6970    6.7900   23.7670 C.ar      1 1FO        -0.0480
     13 CAM        16.2440    6.4060   20.5210 C.2       1 1FO         0.0289
     14 CAN        16.6390    5.6960   24.5800 C.ar      1 1FO        -0.0105
     15 CAO        17.5560    8.1490   20.4950 C.2       1 1FO        -0.0702
     16 NAP        16.4570    6.7530   19.2440 N.pl3     1 1FO        -0.2838
     17 CAQ        19.4440    8.8860   16.3210 C.2       1 1FO         0.1110
     18 CAR        19.1780   11.1020   12.8570 C.2       1 1FO         0.0657
     19 CAS        19.2530    9.8250   13.8320 C.3       1 1FO         0.1227
     20 CAT        16.5440    7.3970   22.7230 C.2       1 1FO         0.1304
     21 CAU        17.3700    4.8960   25.5470 C.ar      1 1FO         0.1378
     22 CAV        17.2760    7.8000   19.2010 C.2       1 1FO         0.0393
     23 CAW        17.2680    6.6490   23.6730 C.ar      1 1FO         0.0261
     24 CAX        16.7930    7.3300   21.3230 C.2       1 1FO         0.0010
     25 H1         19.6462    7.9268   13.8019 H         1 1FO         0.2126
     26 H2         19.7754    8.5397   18.4246 H         1 1FO         0.0516
     27 H3         18.9169   10.0712   18.0450 H         1 1FO         0.0516
     28 H4         17.6236    7.4582   17.3096 H         1 1FO         0.0463
     29 H5         16.8796    9.0353   17.7409 H         1 1FO         0.0463
     30 H6         19.2379   10.9101   15.6988 H         1 1FO         0.0538
     31 H7         17.7923    9.8806   15.4213 H         1 1FO         0.0538
     32 H8         20.5501    6.1753   24.7768 H         1 1FO         0.0619
     33 H9         19.3748    4.5535   26.2675 H         1 1FO         0.0640
     34 H10        19.2001    7.4828   23.1022 H         1 1FO         0.0634
     35 H11        15.7108    5.5167   20.8538 H         1 1FO         0.0834
     36 H12        15.5627    5.5777   24.5295 H         1 1FO         0.0655
     37 H13        18.2486    8.9250   20.8175 H         1 1FO         0.0200
     38 H14        16.0497    6.2820   18.4235 H         1 1FO         0.2358
     39 H15        20.3479    9.8129   13.9370 H         1 1FO         0.0790
@<TRIPOS>BOND
     1   17    1 2  
     2   18    2 ar 
     3   20    3 2  
     4   18    4 ar 
     5   19    5 1  
     6   21    6 1  
     7    8    7 1  
     8    7   17 1  
     9   22    8 1  
    10   17    9 1  
    11    9   19 1  
    12   10   11 ar 
    13   12   10 ar 
    14   21   11 ar 
    15   23   12 ar 
    16   13   16 1  
    17   24   13 2  
    18   14   21 ar 
    19   23   14 ar 
    20   15   22 2  
    21   24   15 1  
    22   22   16 1  
    23   19   18 1  
    24   20   23 1  
    25   20   24 1  
    26    5   25 1  
    27    7   26 1  
    28    7   27 1  
    29    8   28 1  
    30    8   29 1  
    31    9   30 1  
    32    9   31 1  
    33   10   32 1  
    34   11   33 1  
    35   12   34 1  
    36   13   35 1  
    37   14   36 1  
    38   15   37 1  
    39   16   38 1  
    40   19   39 1  
@<TRIPOS>SUBSTRUCTURE
     1 1FO         1

