### 
### Created by X-TOOL on Mon Sep 10 21:13:14 2018
### 

@<TRIPOS>MOLECULE
4iqu_ligand
   37    38     1     0     0
SMALL
GAST_HUCK


@<TRIPOS>ATOM
      1 OAA        18.8400    8.6700   18.6050 O.2       1 1FQ        -0.3820
      2 OAB        20.6870    9.2140   13.8110 O.co2     1 1FQ        -0.5662
      3 OAC        12.5220    9.3800   21.8360 O.2       1 1FQ        -0.3846
      4 OAD        18.6760    8.6680   13.5410 O.co2     1 1FQ        -0.5662
      5 OAE        20.5230    8.7140   16.6440 O.3       1 1FQ        -0.3753
      6 FAF         6.9500    8.9560   18.6200 F         1 1FQ        -0.1793
      7 CAG        16.4880    8.1160   18.2450 C.3       1 1FQ         0.1006
      8 CAH        16.0910    7.0040   19.2120 C.2       1 1FQ         0.0304
      9 CAI        18.0790    8.7680   16.4240 C.3       1 1FQ         0.0644
     10 CAJ         9.0410    7.8180   18.7510 C.ar      1 1FQ        -0.0223
     11 CAK         8.5930    9.8500   20.1190 C.ar      1 1FQ        -0.0223
     12 CAL        10.3450    7.7370   19.3240 C.ar      1 1FQ        -0.0457
     13 CAM         9.8980    9.7610   20.6860 C.ar      1 1FQ        -0.0457
     14 CAN        13.4280    6.5690   21.1850 C.2       1 1FQ        -0.0293
     15 CAO        13.7010    7.5690   19.2710 C.2       1 1FQ        -0.0491
     16 NAP        14.3520    5.9610   20.4220 N.2       1 1FQ        -0.3464
     17 CAQ        17.9120    8.4800   17.8500 C.2       1 1FQ         0.1420
     18 CAR        19.5840    8.9820   14.3320 C.2       1 1FQ         0.0657
     19 CAS        19.4420    9.0950   15.8820 C.3       1 1FQ         0.1231
     20 CAT        12.1560    8.6050   20.8930 C.2       1 1FQ         0.1345
     21 CAU         8.1940    8.8780   19.1660 C.ar      1 1FQ         0.1377
     22 CAV        14.8000    6.8750   19.5780 C.2       1 1FQ         0.0502
     23 CAW        10.8060    8.6950   20.2970 C.ar      1 1FQ         0.0245
     24 CAX        13.0430    7.6280   20.4670 C.2       1 1FQ         0.0099
     25 H1         20.4758    9.1378   17.4929 H         1 1FQ         0.2126
     26 H2         16.0603    9.0363   18.6694 H         1 1FQ         0.0927
     27 H3         15.9773    7.8758   17.3008 H         1 1FQ         0.0927
     28 H4         16.8438    6.3210   19.6028 H         1 1FQ         0.1633
     29 H5         17.4308    9.6266   16.1946 H         1 1FQ         0.0542
     30 H6         17.7227    7.8829   15.8766 H         1 1FQ         0.0542
     31 H7          8.7070    7.0908   18.0198 H         1 1FQ         0.0617
     32 H8          7.9177   10.6462   20.4109 H         1 1FQ         0.0617
     33 H9         11.0064    6.9339   19.0196 H         1 1FQ         0.0659
     34 H10        10.2166   10.4968   21.4155 H         1 1FQ         0.0659
     35 H11        13.0724    6.2662   22.1688 H         1 1FQ         0.0711
     36 H12        13.4039    7.9838   18.3089 H         1 1FQ         0.0565
     37 H13        19.4692   10.1862   16.0180 H         1 1FQ         0.0790
@<TRIPOS>BOND
     1   17    1 2  
     2   18    2 ar 
     3   20    3 2  
     4   18    4 ar 
     5   19    5 1  
     6   21    6 1  
     7    8    7 1  
     8    7   17 1  
     9   22    8 2  
    10   17    9 1  
    11    9   19 1  
    12   12   10 ar 
    13   10   21 ar 
    14   13   11 ar 
    15   11   21 ar 
    16   23   12 ar 
    17   23   13 ar 
    18   14   16 2  
    19   24   14 1  
    20   15   22 1  
    21   24   15 2  
    22   22   16 1  
    23   19   18 1  
    24   20   23 1  
    25   20   24 1  
    26    5   25 1  
    27    7   26 1  
    28    7   27 1  
    29    8   28 1  
    30    9   29 1  
    31    9   30 1  
    32   10   31 1  
    33   11   32 1  
    34   12   33 1  
    35   13   34 1  
    36   14   35 1  
    37   15   36 1  
    38   19   37 1  
@<TRIPOS>SUBSTRUCTURE
     1 1FQ         1

