### 
### Created by X-TOOL on Mon Sep 10 21:13:13 2018
### 

@<TRIPOS>MOLECULE
4ir5_ligand
   46    49     1     0     0
SMALL
GAST_HUCK


@<TRIPOS>ATOM
      1 C01        25.0620   10.9700    0.6560 C.3       1 IR5         0.0060
      2 C02        25.5500    9.5590    0.9120 C.2       1 IR5         0.1283
      3 O01        24.7690    8.6300    1.1200 O.2       1 IR5        -0.4001
      4 C03        26.9620    9.3130    0.8190 C.2       1 IR5         0.1150
      5 C04        27.9440   10.2090    0.5340 C.2       1 IR5        -0.0636
      6 C05        29.1870    9.5250    0.5170 C.2       1 IR5        -0.0312
      7 C06        30.4830   10.1510    0.2740 C.ar      1 IR5        -0.0459
      8 C07        30.9040   11.1540    1.1470 C.ar      1 IR5        -0.0747
      9 C08        32.1400   11.7640    0.9520 C.ar      1 IR5        -0.0785
     10 C09        32.9480   11.3880   -0.1000 C.ar      1 IR5        -0.0777
     11 C10        32.5360   10.4080   -0.9820 C.ar      1 IR5        -0.0672
     12 C11        31.3080    9.7570   -0.8080 C.ar      1 IR5        -0.0227
     13 C12        30.8990    8.6820   -1.7910 C.3       1 IR5         0.0750
     14 O02        30.7810    9.1810   -3.1060 O.3       1 IR5        -0.3835
     15 C13        28.9130    8.2210    0.8730 C.2       1 IR5         0.0798
     16 C14        29.7290    7.0790    1.0470 C.2       1 IR5         0.0021
     17 C15        29.1490    5.9240    1.4140 C.2       1 IR5         0.1211
     18 O1         29.8690    4.7560    1.6010 O.3       1 IR5        -0.2550
     19 C16        31.2400    4.7930    1.8110 C.ar      1 IR5         0.1183
     20 C17        32.0900    4.4700    0.7720 C.ar      1 IR5        -0.0279
     21 C18        33.4640    4.4860    0.9990 C.ar      1 IR5        -0.0694
     22 C19        33.9650    4.7890    2.2470 C.ar      1 IR5        -0.0721
     23 C20        33.1070    5.0700    3.2900 C.ar      1 IR5        -0.0694
     24 C21        31.7290    5.0960    3.0770 C.ar      1 IR5        -0.0279
     25 C22        27.7960    5.7800    1.5690 C.2       1 IR5         0.0155
     26 C1         26.9890    6.8560    1.3840 C.2       1 IR5         0.0807
     27 N1         27.5270    8.0650    1.0420 N.pl3     1 IR5        -0.2181
     28 H1         25.9250   11.6332    0.4966 H         1 IR5         0.0439
     29 H2         24.4849   11.3215    1.5239 H         1 IR5         0.0439
     30 H3         24.4218   10.9800   -0.2384 H         1 IR5         0.0439
     31 H4         27.8007   11.2727    0.3498 H         1 IR5         0.0393
     32 H5         30.2716   11.4571    1.9736 H         1 IR5         0.0515
     33 H6         32.4698   12.5407    1.6325 H         1 IR5         0.0536
     34 H7         33.9123   11.8642   -0.2358 H         1 IR5         0.0522
     35 H8         33.1706   10.1395   -1.8188 H         1 IR5         0.0529
     36 H9         29.9283    8.2683   -1.4804 H         1 IR5         0.0709
     37 H10        31.6573    7.8852   -1.7809 H         1 IR5         0.0709
     38 H11        30.5236    8.4765   -3.6889 H         1 IR5         0.2125
     39 H12        30.8047    7.1347    0.8869 H         1 IR5         0.0489
     40 H13        31.6949    4.2086   -0.2030 H         1 IR5         0.0554
     41 H14        34.1454    4.2582    0.1873 H         1 IR5         0.0591
     42 H15        35.0366    4.8065    2.4093 H         1 IR5         0.0529
     43 H16        33.5050    5.2712    4.2780 H         1 IR5         0.0591
     44 H17        31.0509    5.3480    3.8843 H         1 IR5         0.0554
     45 H18        27.3722    4.8135    1.8376 H         1 IR5         0.0568
     46 H19        25.9118    6.7557    1.5082 H         1 IR5         0.1204
@<TRIPOS>BOND
     1    1    2 1  
     2    2    3 2  
     3    2    4 1  
     4    4    5 2  
     5    4   27 1  
     6    5    6 1  
     7    6    7 1  
     8    6   15 2  
     9    7    8 ar 
    10    7   12 ar 
    11    8    9 ar 
    12    9   10 ar 
    13   10   11 ar 
    14   11   12 ar 
    15   12   13 1  
    16   13   14 1  
    17   15   16 1  
    18   15   27 1  
    19   16   17 2  
    20   17   18 1  
    21   17   25 1  
    22   18   19 1  
    23   19   20 ar 
    24   19   24 ar 
    25   20   21 ar 
    26   21   22 ar 
    27   22   23 ar 
    28   23   24 ar 
    29   25   26 2  
    30   26   27 1  
    31    1   28 1  
    32    1   29 1  
    33    1   30 1  
    34    5   31 1  
    35    8   32 1  
    36    9   33 1  
    37   10   34 1  
    38   11   35 1  
    39   13   36 1  
    40   13   37 1  
    41   14   38 1  
    42   16   39 1  
    43   20   40 1  
    44   21   41 1  
    45   22   42 1  
    46   23   43 1  
    47   24   44 1  
    48   25   45 1  
    49   26   46 1  
@<TRIPOS>SUBSTRUCTURE
     1 IR5         1

