### 
### Created by X-TOOL on Mon Sep 10 21:13:13 2018
### 

@<TRIPOS>MOLECULE
4ir6_ligand
   48    51     1     0     0
SMALL
GAST_HUCK


@<TRIPOS>ATOM
      1 C01        24.5890   10.8720    0.7340 C.3       1 IR6         0.0061
      2 C02        25.1130    9.4220    0.9070 C.2       1 IR6         0.1288
      3 O01        24.3530    8.4960    1.1620 O.2       1 IR6        -0.3998
      4 C03        26.4810    9.2420    0.7720 C.2       1 IR6         0.1162
      5 C04        27.4160   10.2800    0.5670 C.2       1 IR6        -0.0619
      6 C05        28.7140    9.6460    0.4790 C.2       1 IR6        -0.0265
      7 C06        29.9870   10.3540    0.3800 C.ar      1 IR6        -0.0270
      8 C07        30.5610   10.6050    1.6150 C.ar      1 IR6        -0.0674
      9 C08        31.7770   11.2380    1.6990 C.ar      1 IR6        -0.0719
     10 C09        32.3900   11.7330    0.5730 C.ar      1 IR6        -0.0696
     11 C10        31.8400   11.5200   -0.6640 C.ar      1 IR6        -0.0472
     12 C11        30.6250   10.8590   -0.7520 C.ar      1 IR6         0.0804
     13 S          29.9800   10.6450   -2.3770 S.o2      1 IR6        -0.0099
     14 C12        28.6670   11.8080   -2.5650 C.3       1 IR6         0.0584
     15 O02        31.0210   10.9970   -3.3100 O.2       1 IR6        -0.1709
     16 O03        29.4230    9.3240   -2.4670 O.2       1 IR6        -0.1709
     17 C13        28.5060    8.2670    0.7030 C.2       1 IR6         0.0816
     18 C14        29.4040    7.1670    0.7630 C.2       1 IR6         0.0031
     19 C15        28.8870    5.9380    0.9730 C.2       1 IR6         0.1219
     20 O1         29.6650    4.7710    1.0380 O.3       1 IR6        -0.2545
     21 C16        31.0470    4.8090    1.2250 C.ar      1 IR6         0.1185
     22 C17        31.8730    4.3930    0.1920 C.ar      1 IR6        -0.0279
     23 C18        33.2480    4.4030    0.3720 C.ar      1 IR6        -0.0694
     24 C19        33.7950    4.8100    1.5740 C.ar      1 IR6        -0.0721
     25 C20        32.9700    5.2040    2.6050 C.ar      1 IR6        -0.0694
     26 C21        31.5830    5.2160    2.4370 C.ar      1 IR6        -0.0279
     27 C22        27.5320    5.7180    1.1340 C.2       1 IR6         0.0163
     28 C1         26.6620    6.7760    1.0610 C.2       1 IR6         0.0816
     29 N1         27.1340    8.0400    0.8210 N.pl3     1 IR6        -0.2168
     30 H1         25.4321   11.5423    0.5107 H         1 IR6         0.0439
     31 H2         24.0977   11.1976    1.6628 H         1 IR6         0.0439
     32 H3         23.8658   10.9042   -0.0942 H         1 IR6         0.0439
     33 H4         27.2029   11.3452    0.4904 H         1 IR6         0.0402
     34 H5         30.0480   10.3003    2.5200 H         1 IR6         0.0534
     35 H6         32.2584   11.3483    2.6639 H         1 IR6         0.0591
     36 H7         33.3128   12.2945    0.6637 H         1 IR6         0.0537
     37 H8         32.3468   11.8628   -1.5588 H         1 IR6         0.0610
     38 H9         28.2318   11.7102   -3.5705 H         1 IR6         0.0467
     39 H10        29.0583   12.8274   -2.4324 H         1 IR6         0.0467
     40 H11        27.8921   11.6115   -1.8094 H         1 IR6         0.0467
     41 H12        30.4767    7.3114    0.6432 H         1 IR6         0.0490
     42 H13        31.4474    4.0626   -0.7487 H         1 IR6         0.0554
     43 H14        33.8986    4.0892   -0.4363 H         1 IR6         0.0591
     44 H15        34.8709    4.8193    1.7056 H         1 IR6         0.0530
     45 H16        33.4000    5.5067    3.5529 H         1 IR6         0.0591
     46 H17        30.9348    5.5392    3.2435 H         1 IR6         0.0554
     47 H18        27.1578    4.7119    1.3175 H         1 IR6         0.0570
     48 H19        25.5938    6.6111    1.1941 H         1 IR6         0.1209
@<TRIPOS>BOND
     1    1    2 1  
     2    2    3 2  
     3    2    4 1  
     4    4    5 2  
     5    4   29 1  
     6    5    6 1  
     7    6    7 1  
     8    6   17 2  
     9    7    8 ar 
    10    7   12 ar 
    11    8    9 ar 
    12    9   10 ar 
    13   10   11 ar 
    14   11   12 ar 
    15   12   13 1  
    16   13   14 1  
    17   13   15 2  
    18   13   16 2  
    19   17   18 1  
    20   17   29 1  
    21   18   19 2  
    22   19   20 1  
    23   19   27 1  
    24   20   21 1  
    25   21   22 ar 
    26   21   26 ar 
    27   22   23 ar 
    28   23   24 ar 
    29   24   25 ar 
    30   25   26 ar 
    31   27   28 2  
    32   28   29 1  
    33    1   30 1  
    34    1   31 1  
    35    1   32 1  
    36    5   33 1  
    37    8   34 1  
    38    9   35 1  
    39   10   36 1  
    40   11   37 1  
    41   14   38 1  
    42   14   39 1  
    43   14   40 1  
    44   18   41 1  
    45   22   42 1  
    46   23   43 1  
    47   24   44 1  
    48   25   45 1  
    49   26   46 1  
    50   27   47 1  
    51   28   48 1  
@<TRIPOS>SUBSTRUCTURE
     1 IR6         1

