### 
### Created by X-TOOL on Mon Sep 10 21:13:12 2018
### 

@<TRIPOS>MOLECULE
4irx_ligand
   24    24     1     0     0
SMALL
GAST_HUCK


@<TRIPOS>ATOM
      1 C1          0.9180   30.4400   66.5930 C.3       1 INS         0.1118
      2 C2          1.3980   31.3470   65.5090 C.3       1 INS         0.1118
      3 C3          1.9560   32.5970   66.1390 C.3       1 INS         0.1118
      4 C4          3.1080   32.2580   67.0300 C.3       1 INS         0.1118
      5 C5          2.6540   31.3930   68.1450 C.3       1 INS         0.1118
      6 C6          1.9950   30.1400   67.6170 C.3       1 INS         0.1118
      7 O1          0.4190   29.2470   66.0420 O.3       1 INS        -0.3865
      8 O2          2.3580   30.6900   64.7380 O.3       1 INS        -0.3865
      9 O3          2.3400   33.5230   65.1520 O.3       1 INS        -0.3865
     10 O4          3.7160   33.4130   67.5140 O.3       1 INS        -0.3865
     11 O5          3.7390   31.0920   68.9630 O.3       1 INS        -0.3865
     12 O6          1.5840   29.2920   68.6580 O.3       1 INS        -0.3865
     13 H1          0.0932   30.9479   67.1143 H         1 INS         0.0647
     14 H2          0.5516   31.6204   64.8618 H         1 INS         0.0647
     15 H3          1.1677   33.0565   66.7533 H         1 INS         0.0647
     16 H4          3.8501   31.7006   66.4396 H         1 INS         0.0647
     17 H5          1.9122   31.9465   68.7394 H         1 INS         0.0647
     18 H6          2.7763   29.5890   67.0730 H         1 INS         0.0647
     19 H7          0.0485   28.7109   66.7332 H         1 INS         0.2100
     20 H8          2.6568   31.2684   64.0460 H         1 INS         0.2100
     21 H9          2.6487   34.3188   65.5689 H         1 INS         0.2100
     22 H10         4.4683   33.1755   68.0431 H         1 INS         0.2100
     23 H11         4.1302   31.8985   69.2778 H         1 INS         0.2100
     24 H12         2.3394   29.0383   69.1752 H         1 INS         0.2100
@<TRIPOS>BOND
     1    1    2 1  
     2    1    6 1  
     3    1    7 1  
     4    2    3 1  
     5    2    8 1  
     6    3    4 1  
     7    3    9 1  
     8    4    5 1  
     9    4   10 1  
    10    5    6 1  
    11    5   11 1  
    12    6   12 1  
    13    1   13 1  
    14    2   14 1  
    15    3   15 1  
    16    4   16 1  
    17    5   17 1  
    18    6   18 1  
    19    7   19 1  
    20    8   20 1  
    21    9   21 1  
    22   10   22 1  
    23   11   23 1  
    24   12   24 1  
@<TRIPOS>SUBSTRUCTURE
     1 INS         1

