### 
### Created by X-TOOL on Mon Sep 10 21:13:14 2018
### 

@<TRIPOS>MOLECULE
4ish_ligand
   65    70     1     0     0
SMALL
GAST_HUCK


@<TRIPOS>ATOM
      1 C1          9.4490   34.2270   28.5980 C.ar      1 1GE         0.0058
      2 C2          9.8130   33.8700   27.2800 C.ar      1 1GE        -0.0753
      3 C3          9.2480   34.5450   26.1900 C.ar      1 1GE        -0.0504
      4 C4          8.3180   35.5900   26.3910 C.ar      1 1GE         0.0443
      5 C5          7.9460   35.9530   27.7130 C.ar      1 1GE        -0.0110
      6 C6          8.5350   35.2810   28.7970 C.ar      1 1GE        -0.0645
      7 C10         9.9680   33.4930   29.7610 C.cat     1 1GE         0.2267
      8 N11        10.5080   32.2760   29.6510 N.pl3     1 1GE        -0.2737
      9 N12         9.8820   34.0840   30.9840 N.pl3     1 1GE        -0.2737
     10 N13         7.7360   36.1770   25.2930 N.pl3     1 1GE        -0.3122
     11 C14         6.9150   37.3820   25.4000 C.3       1 1GE         0.0704
     12 C15         6.1010   37.5070   26.7180 C.3       1 1GE         0.0176
     13 C16         6.8510   36.9860   27.9280 C.3       1 1GE         0.0281
     14 C17         5.3100   38.7490   27.0590 C.3       1 1GE        -0.0114
     15 C18         6.3800   39.3190   27.9450 C.ar      1 1GE        -0.0383
     16 C19         7.2530   38.3410   28.4640 C.ar      1 1GE        -0.0283
     17 C24         6.5600   40.6850   28.2540 C.ar      1 1GE        -0.0666
     18 C25         7.6240   41.0460   29.1050 C.ar      1 1GE        -0.0754
     19 C26         8.4960   40.0720   29.6360 C.ar      1 1GE        -0.0752
     20 C27         8.3170   38.7090   29.3160 C.ar      1 1GE        -0.0649
     21 C32         5.9190   37.5040   24.2520 C.ar      1 1GE        -0.0264
     22 C34         5.7870   38.7350   23.5420 C.ar      1 1GE        -0.0304
     23 C35         4.7640   38.8100   22.5890 C.ar      1 1GE        -0.0384
     24 C36         3.9370   37.7120   22.2860 C.ar      1 1GE         0.1115
     25 C37         4.0850   36.4620   22.9300 C.ar      1 1GE         0.1160
     26 C38         5.0880   36.3930   23.9350 C.ar      1 1GE        -0.0340
     27 C41         6.6970   39.9050   23.6670 C.ar      1 1GE        -0.0285
     28 C42         6.2760   41.1670   24.1240 C.ar      1 1GE        -0.0554
     29 C43         7.1780   42.2670   24.1800 C.ar      1 1GE        -0.0502
     30 C44         8.5340   42.1310   23.7800 C.ar      1 1GE         0.0073
     31 C45         8.9530   40.8600   23.3330 C.ar      1 1GE        -0.0502
     32 C46         8.0420   39.7710   23.2850 C.ar      1 1GE        -0.0554
     33 C51         9.4800   43.2500   23.8410 C.2       1 1GE         0.0610
     34 O52         9.0620   44.2980   24.5890 O.co2     1 1GE        -0.5615
     35 O53        10.5350   43.1990   23.2770 O.co2     1 1GE        -0.5615
     36 O54         3.2670   35.4260   22.5010 O.3       1 1GE        -0.3246
     37 C55         3.3970   34.1840   23.1710 C.3       1 1GE         0.0575
     38 O59         2.9750   37.8640   21.3090 O.3       1 1GE        -0.3408
     39 H1         10.5294   33.0739   27.1123 H         1 1GE         0.0526
     40 H2          9.5273   34.2626   25.1814 H         1 1GE         0.0494
     41 H3          8.2811   35.5795   29.8077 H         1 1GE         0.0522
     42 H4         10.8614   31.7918   30.4886 H         1 1GE         0.3179
     43 H5         10.5709   31.8219   28.7286 H         1 1GE         0.3179
     44 H6          9.4666   35.0222   31.0746 H         1 1GE         0.3179
     45 H7         10.2323   33.5931   31.8190 H         1 1GE         0.3179
     46 H8          7.8829   35.7545   24.3652 H         1 1GE         0.1763
     47 H9          7.6039   38.2381   25.3505 H         1 1GE         0.0702
     48 H10         5.3054   36.7638   26.5608 H         1 1GE         0.0406
     49 H11         6.1398   36.5138   28.6217 H         1 1GE         0.0585
     50 H12         4.3744   38.5323   27.5953 H         1 1GE         0.0420
     51 H13         5.0933   39.3780   26.1830 H         1 1GE         0.0420
     52 H14         5.8956   41.4383   27.8463 H         1 1GE         0.0537
     53 H15         7.7750   42.0897   29.3558 H         1 1GE         0.0542
     54 H16         9.3057   40.3714   30.2916 H         1 1GE         0.0542
     55 H17         8.9859   37.9566   29.7180 H         1 1GE         0.0540
     56 H18         4.6033   39.7460   22.0664 H         1 1GE         0.0501
     57 H19         5.2242   35.4643   24.4773 H         1 1GE         0.0459
     58 H20         5.2478   41.3042   24.4387 H         1 1GE         0.0605
     59 H21         6.8228   43.2276   24.5350 H         1 1GE         0.0643
     60 H22         9.9812   40.7129   23.0228 H         1 1GE         0.0643
     61 H23         8.3963   38.8055   22.9425 H         1 1GE         0.0605
     62 H24         2.6962   33.4570   22.7348 H         1 1GE         0.0575
     63 H25         3.1691   34.3177   24.2388 H         1 1GE         0.0575
     64 H26         4.4266   33.8132   23.0595 H         1 1GE         0.0575
     65 H27         3.0012   38.7533   20.9760 H         1 1GE         0.2421
@<TRIPOS>BOND
     1    1    2 ar 
     2    1    6 ar 
     3    1    7 1  
     4    2    3 ar 
     5    3    4 ar 
     6    4    5 ar 
     7    4   10 1  
     8    5    6 ar 
     9    5   13 1  
    10    7    8 ar 
    11    7    9 ar 
    12   10   11 1  
    13   11   12 1  
    14   11   21 1  
    15   12   13 1  
    16   12   14 1  
    17   13   16 1  
    18   14   15 1  
    19   15   16 ar 
    20   15   17 ar 
    21   16   20 ar 
    22   17   18 ar 
    23   18   19 ar 
    24   19   20 ar 
    25   21   22 ar 
    26   21   26 ar 
    27   22   23 ar 
    28   22   27 1  
    29   23   24 ar 
    30   24   25 ar 
    31   24   38 1  
    32   25   26 ar 
    33   25   36 1  
    34   27   28 ar 
    35   27   32 ar 
    36   28   29 ar 
    37   29   30 ar 
    38   30   31 ar 
    39   30   33 1  
    40   31   32 ar 
    41   33   34 ar 
    42   33   35 ar 
    43   36   37 1  
    44    2   39 1  
    45    3   40 1  
    46    6   41 1  
    47    8   42 1  
    48    8   43 1  
    49    9   44 1  
    50    9   45 1  
    51   10   46 1  
    52   11   47 1  
    53   12   48 1  
    54   13   49 1  
    55   14   50 1  
    56   14   51 1  
    57   17   52 1  
    58   18   53 1  
    59   19   54 1  
    60   20   55 1  
    61   23   56 1  
    62   26   57 1  
    63   28   58 1  
    64   29   59 1  
    65   31   60 1  
    66   32   61 1  
    67   37   62 1  
    68   37   63 1  
    69   37   64 1  
    70   38   65 1  
@<TRIPOS>SUBSTRUCTURE
     1 1GE         1

