### 
### Created by X-TOOL on Mon Sep 10 21:13:15 2018
### 

@<TRIPOS>MOLECULE
4isi_ligand
   65    68     1     0     0
SMALL
GAST_HUCK


@<TRIPOS>ATOM
      1 C1          9.6070   34.4960   28.7990 C.ar      1 1GG         0.0188
      2 C2          8.8560   35.6890   28.9060 C.ar      1 1GG        -0.0633
      3 C3          8.6010   36.4810   27.7750 C.ar      1 1GG        -0.0584
      4 C4          9.0760   36.0710   26.5200 C.ar      1 1GG        -0.0210
      5 CL4         0.0240   37.3310   24.7960 Cl        1 1GG         0.0112
      6 C5          9.8520   34.8940   26.4100 C.ar      1 1GG        -0.0584
      7 C6         10.1100   34.1090   27.5420 C.ar      1 1GG        -0.0633
      8 C11         9.9050   33.6890   29.9950 C.cat     1 1GG         0.2318
      9 N12        10.3660   32.4320   29.9110 N.pl3     1 1GG        -0.2729
     10 N13         9.7210   34.2630   31.2050 N.pl3     1 1GG        -0.2729
     11 C14         8.7020   36.8290   25.2920 C.3       1 1GG         0.0645
     12 N15         7.3590   36.4550   24.8930 N.am      1 1GG        -0.2732
     13 C18         6.3490   37.3370   25.0000 C.2       1 1GG         0.2092
     14 O19         6.4150   38.4810   25.4410 O.2       1 1GG        -0.3937
     15 C20         5.0390   36.7960   24.5150 C.3       1 1GG         0.1427
     16 C21         4.4360   37.1520   23.1390 C.3       1 1GG        -0.0589
     17 C22         2.8910   37.1380   23.2870 C.3       1 1GG        -0.0633
     18 C23         2.6950   37.0070   24.7920 C.2       1 1GG         0.0578
     19 N24         3.8850   36.8120   25.4050 N.am      1 1GG        -0.1928
     20 C28         2.3130   35.9380   22.5070 C.3       1 1GG        -0.1091
     21 C29         2.2610   38.4250   22.6850 C.3       1 1GG        -0.1091
     22 C30         2.8990   34.5620   22.8660 C.3       1 1GG        -0.0814
     23 C36         2.6220   39.7360   23.3950 C.3       1 1GG        -0.0814
     24 C42         1.5430   37.0610   25.5790 C.2       1 1GG         0.1728
     25 N43         1.5470   36.9250   26.9060 N.2       1 1GG        -0.1894
     26 C44         2.7160   36.7250   27.5400 C.2       1 1GG         0.2606
     27 C45         3.9880   36.6570   26.7910 C.2       1 1GG         0.3219
     28 O46         5.0800   36.4750   27.3130 O.2       1 1GG        -0.3510
     29 N48         2.8100   36.5060   28.8790 N.pl3     1 1GG        -0.2556
     30 C49         1.7690   36.7310   29.8290 C.3       1 1GG         0.0550
     31 C50         1.4210   35.9510   31.1180 C.3       1 1GG        -0.0266
     32 C51         1.5590   37.3140   31.8550 C.3       1 1GG        -0.0483
     33 C52         1.3200   38.0510   30.5020 C.3       1 1GG        -0.0266
     34 H1          8.4726   35.9958   29.8724 H         1 1GG         0.0599
     35 H2          8.0404   37.4038   27.8708 H         1 1GG         0.0557
     36 H3         10.2491   34.5976   25.4459 H         1 1GG         0.0557
     37 H4         10.6975   33.2027   27.4498 H         1 1GG         0.0599
     38 H5         10.5635   31.8975   30.7690 H         1 1GG         0.3180
     39 H6         10.5225   32.0014   28.9885 H         1 1GG         0.3180
     40 H7          9.3670   35.2282   31.2687 H         1 1GG         0.3180
     41 H8          9.9348   33.7352   32.0633 H         1 1GG         0.3180
     42 H9          9.4068   36.5891   24.4823 H         1 1GG         0.0683
     43 H10         8.7369   37.9084   25.5007 H         1 1GG         0.0683
     44 H11         7.1829   35.5374   24.5367 H         1 1GG         0.1878
     45 H12         5.2879   35.7291   24.4159 H         1 1GG         0.0869
     46 H13         4.7479   36.4100   22.3893 H         1 1GG         0.0108
     47 H14         4.7741   38.1516   22.8283 H         1 1GG         0.0108
     48 H15         2.4936   36.1128   21.4361 H         1 1GG         0.0051
     49 H16         1.2298   35.9031   22.6953 H         1 1GG         0.0051
     50 H17         1.1672   38.3131   22.7173 H         1 1GG         0.0051
     51 H18         2.5906   38.5053   21.6386 H         1 1GG         0.0051
     52 H19         2.4166   33.7867   22.2527 H         1 1GG         0.0213
     53 H20         2.7178   34.3527   23.9306 H         1 1GG         0.0213
     54 H21         3.9816   34.5624   22.6714 H         1 1GG         0.0213
     55 H22         2.1247   40.5763   22.8885 H         1 1GG         0.0213
     56 H23         3.7118   39.8821   23.3635 H         1 1GG         0.0213
     57 H24         2.2884   39.6898   24.4422 H         1 1GG         0.0213
     58 H25         3.7069   36.1480   29.2372 H         1 1GG         0.2104
     59 H26         0.9340   36.4917   29.1541 H         1 1GG         0.0596
     60 H27         2.1572   35.1883   31.4117 H         1 1GG         0.0290
     61 H28         0.4120   35.5134   31.1373 H         1 1GG         0.0290
     62 H29         2.5512   37.4904   32.2960 H         1 1GG         0.0267
     63 H30         0.7830   37.4982   32.6126 H         1 1GG         0.0267
     64 H31         0.2764   38.3397   30.3083 H         1 1GG         0.0290
     65 H32         1.9787   38.9129   30.3198 H         1 1GG         0.0290
@<TRIPOS>BOND
     1    2    1 ar 
     2    7    1 ar 
     3    1    8 1  
     4    3    2 ar 
     5    4    3 ar 
     6    4    6 ar 
     7   11    4 1  
     8   24    5 1  
     9    6    7 ar 
    10    8    9 ar 
    11    8   10 ar 
    12   12   11 1  
    13   13   12 am 
    14   13   14 2  
    15   15   13 1  
    16   15   16 1  
    17   19   15 1  
    18   17   16 1  
    19   18   17 1  
    20   17   20 1  
    21   17   21 1  
    22   18   19 1  
    23   18   24 2  
    24   19   27 am 
    25   20   22 1  
    26   21   23 1  
    27   24   25 1  
    28   25   26 2  
    29   26   27 1  
    30   26   29 1  
    31   27   28 2  
    32   29   30 1  
    33   30   31 1  
    34   30   33 1  
    35   31   32 1  
    36   32   33 1  
    37    2   34 1  
    38    3   35 1  
    39    6   36 1  
    40    7   37 1  
    41    9   38 1  
    42    9   39 1  
    43   10   40 1  
    44   10   41 1  
    45   11   42 1  
    46   11   43 1  
    47   12   44 1  
    48   15   45 1  
    49   16   46 1  
    50   16   47 1  
    51   20   48 1  
    52   20   49 1  
    53   21   50 1  
    54   21   51 1  
    55   22   52 1  
    56   22   53 1  
    57   22   54 1  
    58   23   55 1  
    59   23   56 1  
    60   23   57 1  
    61   29   58 1  
    62   30   59 1  
    63   31   60 1  
    64   31   61 1  
    65   32   62 1  
    66   32   63 1  
    67   33   64 1  
    68   33   65 1  
@<TRIPOS>SUBSTRUCTURE
     1 1GG         1

