### 
### Created by X-TOOL on Mon Sep 10 21:13:14 2018
### 

@<TRIPOS>MOLECULE
4isu_ligand
   33    35     1     0     0
SMALL
GAST_HUCK


@<TRIPOS>ATOM
      1 C1         -5.7600   28.3840   -1.6550 C.3       1 IKM        -0.0160
      2 C2         -4.3560   28.3070    0.4200 C.2       1 IKM        -0.0598
      3 C3         -4.6230   27.8700   -0.8240 C.2       1 IKM        -0.0518
      4 C4         -6.1420   30.1090    0.1190 C.3       1 IKM         0.0346
      5 C5         -5.1780   29.3770    1.0760 C.3       1 IKM         0.1225
      6 O1         -6.0170   28.7780    2.0730 O.3       1 IKM        -0.3469
      7 N2         -6.4090   32.0160    2.7870 N.am      1 IKM        -0.2678
      8 C6         -6.4930   30.7110    3.4370 C.3       1 IKM         0.1274
      9 C7         -7.0540   29.7510    2.3460 C.3       1 IKM         0.1427
     10 C8         -7.2100   30.6230    1.0750 C.3       1 IKM         0.1295
     11 C9         -6.7950   32.0190    1.4760 C.2       1 IKM         0.1897
     12 O2         -6.8040   33.0140    0.7470 O.2       1 IKM        -0.3963
     13 C10        -8.2820   28.9480    2.7750 C.3       1 IKM         0.0360
     14 C11        -7.3440   30.7750    4.7360 C.2       1 IKM         0.0632
     15 O3         -7.1930   29.8330    5.5660 O.co2     1 IKM        -0.5665
     16 C12        -8.8940   28.0060    1.7580 C.2       1 IKM         0.0379
     17 O4         -9.9240   27.3780    2.1150 O.co2     1 IKM        -0.5689
     18 O5         -8.3240   27.9370    0.6390 O.co2     1 IKM        -0.5689
     19 O6         -8.1200   31.7590    4.8290 O.co2     1 IKM        -0.5665
     20 N1         -6.7380   29.1500   -0.8590 N.4       1 IKM         0.2438
     21 H1         -6.2740   27.5287   -2.1179 H         1 IKM         0.0939
     22 H2         -5.3552   29.0380   -2.4414 H         1 IKM         0.0939
     23 H3         -3.5201   27.8721    0.9659 H         1 IKM         0.0479
     24 H4         -3.9790   27.1021   -1.2500 H         1 IKM         0.0503
     25 H5         -5.6415   30.9307   -0.4141 H         1 IKM         0.0928
     26 H6         -4.4980   30.1084    1.5371 H         1 IKM         0.0780
     27 H7         -6.0953   32.8385    3.2614 H         1 IKM         0.1876
     28 H8         -5.4833   30.3770    3.7180 H         1 IKM         0.0758
     29 H9         -8.2229   30.5867    0.6475 H         1 IKM         0.0630
     30 H10        -9.0606   29.6680    3.0671 H         1 IKM         0.0462
     31 H11        -7.9928   28.3460    3.6490 H         1 IKM         0.0462
     32 H12        -7.3069   28.4941   -0.3469 H         1 IKM         0.2032
     33 H13        -7.3186   29.6730   -1.4957 H         1 IKM         0.2032
@<TRIPOS>BOND
     1    3    1 1  
     2   20    1 1  
     3    2    3 2  
     4    5    2 1  
     5    5    4 1  
     6    4   10 1  
     7    4   20 1  
     8    6    5 1  
     9    9    6 1  
    10    8    7 1  
    11    7   11 am 
    12    8    9 1  
    13    8   14 1  
    14    9   10 1  
    15    9   13 1  
    16   10   11 1  
    17   11   12 2  
    18   13   16 1  
    19   14   15 ar 
    20   14   19 ar 
    21   16   17 ar 
    22   16   18 ar 
    23    1   21 1  
    24    1   22 1  
    25    2   23 1  
    26    3   24 1  
    27    4   25 1  
    28    5   26 1  
    29    7   27 1  
    30    8   28 1  
    31   10   29 1  
    32   13   30 1  
    33   13   31 1  
    34   20   32 1  
    35   20   33 1  
@<TRIPOS>SUBSTRUCTURE
     1 IKM         1

