### 
### Created by X-TOOL on Mon Sep 10 21:13:15 2018
### 

@<TRIPOS>MOLECULE
4ith_ligand
   31    33     1     0     0
SMALL
GAST_HUCK


@<TRIPOS>ATOM
      1 O2        -24.8020    3.7240   11.0110 O.2       1 RCM        -0.3913
      2 C14       -25.9470    4.2550   11.3020 C.2       1 RCM         0.2923
      3 N3        -26.7120    5.1270   10.3800 N.am      1 RCM        -0.1724
      4 C17       -26.7520    4.6130    8.9670 C.3       1 RCM         0.0481
      5 C12       -27.9970    5.2140   11.1050 C.2       1 RCM         0.2333
      6 O1        -29.1130    5.6800   10.6440 O.2       1 RCM        -0.3840
      7 N2        -26.5890    4.0360   12.6170 N.am      1 RCM        -0.2455
      8 C11       -27.8950    4.7710   12.5030 C.3       1 RCM         0.1410
      9 C10       -29.0590    3.9030   12.8600 C.3       1 RCM         0.0045
     10 C7        -29.1930    2.6680   12.0230 C.2       1 RCM        -0.0418
     11 C2        -28.5060    1.4980   12.2200 C.ar      1 RCM        -0.0208
     12 C8        -30.0740    2.4900   10.9600 C.2       1 RCM         0.0167
     13 N1        -29.9500    1.2380   10.4550 N.pl3     1 RCM        -0.2886
     14 C3        -28.9570    0.6290   11.2630 C.ar      1 RCM         0.0744
     15 C4        -28.4080   -0.6350   11.2290 C.ar      1 RCM         0.0571
     16 CL1       -28.8390   -1.6300   10.2230 Cl        1 RCM        -0.0785
     17 C5        -27.4290   -0.9730   12.1540 C.ar      1 RCM        -0.0627
     18 C6        -27.0080   -0.0630   13.1040 C.ar      1 RCM        -0.0786
     19 C1        -27.5420    1.1950   13.1490 C.ar      1 RCM        -0.0745
     20 H1        -25.7333    4.6015    8.5521 H         1 RCM         0.0538
     21 H2        -27.3894    5.2691    8.3560 H         1 RCM         0.0538
     22 H3        -27.1624    3.5925    8.9595 H         1 RCM         0.0538
     23 H4        -26.2367    3.5202   13.3980 H         1 RCM         0.1885
     24 H5        -27.8862    5.6437   13.1726 H         1 RCM         0.0817
     25 H6        -29.9780    4.4966   12.7459 H         1 RCM         0.0397
     26 H7        -28.9490    3.5957   13.9105 H         1 RCM         0.0397
     27 H8        -30.7630    3.2468   10.5880 H         1 RCM         0.0794
     28 H9        -30.4616    0.8230    9.6632 H         1 RCM         0.2218
     29 H10       -26.9896   -1.9637   12.1302 H         1 RCM         0.0536
     30 H11       -26.2468   -0.3489   13.8209 H         1 RCM         0.0511
     31 H12       -27.2183    1.9211   13.8859 H         1 RCM         0.0543
@<TRIPOS>BOND
     1    1    2 2  
     2    2    3 am 
     3    2    7 am 
     4    3    4 1  
     5    3    5 am 
     6    5    6 2  
     7    5    8 1  
     8    7    8 1  
     9    8    9 1  
    10    9   10 1  
    11   10   11 1  
    12   10   12 2  
    13   11   14 ar 
    14   11   19 ar 
    15   12   13 1  
    16   13   14 1  
    17   14   15 ar 
    18   15   16 1  
    19   15   17 ar 
    20   17   18 ar 
    21   18   19 ar 
    22    4   20 1  
    23    4   21 1  
    24    4   22 1  
    25    7   23 1  
    26    8   24 1  
    27    9   25 1  
    28    9   26 1  
    29   12   27 1  
    30   13   28 1  
    31   17   29 1  
    32   18   30 1  
    33   19   31 1  
@<TRIPOS>SUBSTRUCTURE
     1 RCM         1

