### 
### Created by X-TOOL on Mon Sep 10 21:13:15 2018
### 

@<TRIPOS>MOLECULE
4iti_ligand
   49    52     1     0     0
SMALL
GAST_HUCK


@<TRIPOS>ATOM
      1 C1        -22.5000    6.3330  -23.4730 C.ar      1 1HW        -0.0689
      2 C2        -22.7090    7.4050  -22.6200 C.ar      1 1HW        -0.0450
      3 C3        -21.6460    7.7570  -21.6500 C.ar      1 1HW        -0.0150
      4 C4        -20.4750    7.0160  -21.6070 C.ar      1 1HW        -0.0336
      5 C5        -20.3140    5.9480  -22.4840 C.ar      1 1HW         0.0819
      6 C10       -21.8990    8.9140  -20.7420 C.2       1 1HW         0.0469
      7 C11       -23.2520   10.5130  -19.6150 C.3       1 1HW         0.1200
      8 C6        -21.3090    5.6140  -23.4000 C.ar      1 1HW        -0.0411
      9 C7        -23.9920    8.2110  -22.6720 C.3       1 1HW        -0.0211
     10 C9        -23.0690    9.8160  -20.9620 C.3       1 1HW         0.0418
     11 F31       -27.3090    5.6490  -16.3230 F         1 1HW        -0.1403
     12 C28       -27.0140    6.8300  -15.8140 C.3       1 1HW         0.5444
     13 F29       -25.7270    6.8840  -15.5380 F         1 1HW        -0.1403
     14 F30       -27.7090    7.0200  -14.7110 F         1 1HW        -0.1403
     15 O27       -27.3350    7.8470  -16.7580 O.3       1 1HW        -0.2304
     16 C17       -26.3410    8.4850  -17.4460 C.ar      1 1HW         0.1267
     17 C16       -26.6470    9.7010  -18.2370 C.ar      1 1HW         0.1537
     18 F26       -27.8990   10.1810  -18.2840 F         1 1HW        -0.1918
     19 C15       -25.6230   10.3310  -18.9260 C.ar      1 1HW        -0.0321
     20 C18       -25.0350    8.0130  -17.4180 C.ar      1 1HW        -0.0407
     21 C19       -24.0420    8.6820  -18.1270 C.ar      1 1HW        -0.0699
     22 C14       -24.3290    9.8250  -18.8710 C.ar      1 1HW        -0.0210
     23 C8        -24.2520    8.9360  -21.3510 C.3       1 1HW        -0.0276
     24 N12       -21.9570   10.2040  -19.0210 N.am      1 1HW        -0.1507
     25 C20       -21.4850   10.7980  -17.9310 C.2       1 1HW         0.2457
     26 O23       -22.0720   11.7000  -17.3570 O.2       1 1HW        -0.3808
     27 C21       -20.1540   10.3070  -17.4180 C.3       1 1HW         0.1406
     28 O22       -19.6310   11.2540  -16.4810 O.3       1 1HW        -0.3741
     29 N13       -21.2360    9.2270  -19.7250 N.2       1 1HW        -0.1985
     30 O24       -19.1600    5.2160  -22.4450 O.3       1 1HW        -0.3263
     31 C25       -18.0940    5.6200  -21.5870 C.3       1 1HW         0.0578
     32 H1        -23.2602    6.0551  -24.1941 H         1 1HW         0.0525
     33 H2        -19.6938    7.2659  -20.8982 H         1 1HW         0.0504
     34 H3        -23.4469   11.5923  -19.6988 H         1 1HW         0.0809
     35 H4        -21.1532    4.7766  -24.0704 H         1 1HW         0.0514
     36 H5        -24.8325    7.5322  -22.8786 H         1 1HW         0.0412
     37 H6        -23.9145    8.9548  -23.4787 H         1 1HW         0.0412
     38 H7        -22.8738   10.5529  -21.7550 H         1 1HW         0.0506
     39 H8        -25.8313   11.2206  -19.5094 H         1 1HW         0.0516
     40 H9        -24.7900    7.1258  -16.8453 H         1 1HW         0.0514
     41 H10       -23.0254    8.3068  -18.1001 H         1 1HW         0.0497
     42 H11       -24.4199    8.1906  -20.5597 H         1 1HW         0.0312
     43 H12       -25.1476    9.5657  -21.4577 H         1 1HW         0.0312
     44 H13       -19.4537   10.1969  -18.2591 H         1 1HW         0.0806
     45 H14       -20.2873    9.3343  -16.9220 H         1 1HW         0.0806
     46 H15       -20.2373   11.3481  -15.7557 H         1 1HW         0.2129
     47 H16       -17.2546    4.9164  -21.6889 H         1 1HW         0.0574
     48 H17       -18.4442    5.6244  -20.5442 H         1 1HW         0.0574
     49 H18       -17.7613    6.6305  -21.8664 H         1 1HW         0.0574
@<TRIPOS>BOND
     1    2    1 ar 
     2    1    8 ar 
     3    3    2 ar 
     4    9    2 1  
     5    3    4 ar 
     6    6    3 1  
     7    4    5 ar 
     8    5    8 ar 
     9    5   30 1  
    10   10    6 1  
    11    6   29 2  
    12    7   10 1  
    13   22    7 1  
    14    7   24 1  
    15   23    9 1  
    16   10   23 1  
    17   12   11 1  
    18   12   13 1  
    19   12   14 1  
    20   15   12 1  
    21   16   15 1  
    22   17   16 ar 
    23   16   20 ar 
    24   17   18 1  
    25   19   17 ar 
    26   19   22 ar 
    27   20   21 ar 
    28   21   22 ar 
    29   24   25 am 
    30   24   29 1  
    31   25   26 2  
    32   25   27 1  
    33   27   28 1  
    34   30   31 1  
    35    1   32 1  
    36    4   33 1  
    37    7   34 1  
    38    8   35 1  
    39    9   36 1  
    40    9   37 1  
    41   10   38 1  
    42   19   39 1  
    43   20   40 1  
    44   21   41 1  
    45   23   42 1  
    46   23   43 1  
    47   27   44 1  
    48   27   45 1  
    49   28   46 1  
    50   31   47 1  
    51   31   48 1  
    52   31   49 1  
@<TRIPOS>SUBSTRUCTURE
     1 1HW         1

