### 
### Created by X-TOOL on Mon Sep 10 21:13:14 2018
### 

@<TRIPOS>MOLECULE
4itj_ligand
   34    35     1     0     0
SMALL
GAST_HUCK


@<TRIPOS>ATOM
      1 C4         18.3600   -1.1210   53.0890 C.ar      1 1HX         0.0294
      2 C6         18.2780    1.0230   54.2500 C.ar      1 1HX        -0.0585
      3 C1         17.1550    0.6190   54.9480 C.ar      1 1HX        -0.0700
      4 C3         17.2430   -1.5240   53.8020 C.ar      1 1HX         0.1358
      5 C2         16.6520   -0.6520   54.7080 C.ar      1 1HX        -0.0346
      6 C5         18.8540    0.1550   53.3230 C.ar      1 1HX         0.0418
      7 C7         18.9820   -2.0500   52.0990 C.3       1 1HX         0.0736
      8 C9         20.2240   -3.6450   53.4150 C.2       1 1HX         0.2330
      9 CL2        20.2990    0.7270   52.4630 Cl        1 1HX        -0.0783
     10 F20        16.7170   -2.7500   53.6060 F         1 1HX        -0.1890
     11 C10        18.0530   -2.1470   50.8860 C.3       1 1HX        -0.0324
     12 N8         19.1540   -3.3660   52.6790 N.am      1 1HX        -0.2710
     13 O11        20.9580   -2.7570   53.8230 O.2       1 1HX        -0.3828
     14 C12        20.5710   -5.0630   53.7450 C.2       1 1HX         0.1459
     15 C16        20.2170   -6.1910   52.9760 C.2       1 1HX        -0.0371
     16 C15        20.7370   -7.3210   53.5840 C.2       1 1HX        -0.0304
     17 C14        21.3650   -6.7890   54.7000 C.2       1 1HX         0.1773
     18 C18        22.0410   -7.5100   55.6050 C.1       1 1HX         0.1049
     19 N19        22.6710   -8.1500   56.3500 N.1       1 1HX        -0.3496
     20 N13        21.2970   -5.4660   54.8060 N.pl3     1 1HX        -0.2378
     21 C17        21.8930   -4.6620   55.9180 C.3       1 1HX         0.0468
     22 H1         18.7061    2.0040   54.4215 H         1 1HX         0.0571
     23 H2         16.6793    1.2785   55.6648 H         1 1HX         0.0549
     24 H3         15.7680   -0.9754   55.2456 H         1 1HX         0.0587
     25 H4         19.9614   -1.6571   51.7885 H         1 1HX         0.0709
     26 H5         18.4918   -2.8277   50.1416 H         1 1HX         0.0273
     27 H6         17.9261   -1.1493   50.4406 H         1 1HX         0.0273
     28 H7         17.0736   -2.5338   51.2042 H         1 1HX         0.0273
     29 H8         18.4614   -4.0705   52.5241 H         1 1HX         0.1871
     30 H9         19.6323   -6.1757   52.0574 H         1 1HX         0.0444
     31 H10        20.6700   -8.3607   53.2671 H         1 1HX         0.0517
     32 H11        21.6847   -3.5948   55.7513 H         1 1HX         0.0587
     33 H12        22.9807   -4.8234   55.9450 H         1 1HX         0.0587
     34 H13        21.4517   -4.9765   56.8753 H         1 1HX         0.0587
@<TRIPOS>BOND
     1    1    4 ar 
     2    6    1 ar 
     3    1    7 1  
     4    2    3 ar 
     5    2    6 ar 
     6    3    5 ar 
     7    4    5 ar 
     8    4   10 1  
     9    6    9 1  
    10    7   11 1  
    11    7   12 1  
    12   12    8 am 
    13    8   13 2  
    14    8   14 1  
    15   14   15 2  
    16   14   20 1  
    17   15   16 1  
    18   16   17 2  
    19   17   18 1  
    20   17   20 1  
    21   18   19 3  
    22   20   21 1  
    23    2   22 1  
    24    3   23 1  
    25    5   24 1  
    26    7   25 1  
    27   11   26 1  
    28   11   27 1  
    29   11   28 1  
    30   12   29 1  
    31   15   30 1  
    32   16   31 1  
    33   21   32 1  
    34   21   33 1  
    35   21   34 1  
@<TRIPOS>SUBSTRUCTURE
     1 1HX         1

