### 
### Created by X-TOOL on Mon Sep 10 21:13:16 2018
### 

@<TRIPOS>MOLECULE
4itp_ligand
   37    38     1     0     0
SMALL
GAST_HUCK


@<TRIPOS>ATOM
      1 C13        20.5970    7.7900   13.4970 C.3       1 1GD         0.0705
      2 C15        20.7170   10.1170   14.3890 C.ar      1 1GD        -0.0580
      3 C17        19.5130   11.9570   13.2490 C.ar      1 1GD        -0.0684
      4 C20        17.8560    3.2110   14.7970 C.ar      1 1GD        -0.0566
      5 C21        17.3040    2.1500   15.5670 C.ar      1 1GD        -0.0419
      6 N1         15.8770   -0.6040   16.1330 N.am      1 1GD        -0.2617
      7 S02        15.3050    0.7690   16.8700 S.o2      1 1GD         0.0628
      8 O3         15.8070    0.8600   18.1860 O.2       1 1GD        -0.1514
      9 O4         13.8790    0.7860   16.7150 O.2       1 1GD        -0.1514
     10 C5         15.9480    2.0620   15.9240 C.ar      1 1GD         0.1009
     11 C6         15.2010    3.1300   15.4790 C.ar      1 1GD        -0.0419
     12 C7         15.6850    4.1890   14.7300 C.ar      1 1GD        -0.0566
     13 C8         17.0150    4.2690   14.3800 C.ar      1 1GD        -0.0209
     14 C9         17.5950    5.3690   13.5200 C.3       1 1GD         0.0646
     15 N10        18.6730    6.2000   14.0770 N.am      1 1GD        -0.2740
     16 C11        19.4410    6.8450   13.0770 C.2       1 1GD         0.1893
     17 O12        19.1950    6.7080   11.9160 O.2       1 1GD        -0.3939
     18 C14        20.2340    9.2400   13.3980 C.ar      1 1GD        -0.0243
     19 C16        20.3360   11.4830   14.2770 C.ar      1 1GD        -0.0681
     20 C18        19.0630   11.0260   12.3080 C.ar      1 1GD        -0.0681
     21 C19        19.4220    9.7100   12.4000 C.ar      1 1GD        -0.0580
     22 H          21.4605    7.5996   12.8428 H         1 1GD         0.0659
     23 H          20.8703    7.5676   14.5390 H         1 1GD         0.0659
     24 H          21.3485    9.7678   15.1979 H         1 1GD         0.0561
     25 H          19.2358   13.0030   13.1850 H         1 1GD         0.0561
     26 H          18.9074    3.2087   14.5333 H         1 1GD         0.0558
     27 H          17.9699    1.3615   15.8985 H         1 1GD         0.0619
     28 H          16.8577   -0.7994   16.1321 H         1 1GD         0.1634
     29 H          15.2409   -1.2357   15.6899 H         1 1GD         0.1634
     30 H          14.1480    3.1425   15.7362 H         1 1GD         0.0619
     31 H          15.0041    4.9705   14.4127 H         1 1GD         0.0558
     32 H          16.7682    6.0444   13.2551 H         1 1GD         0.0683
     33 H          17.9881    4.8954   12.6083 H         1 1GD         0.0683
     34 H          18.8453    6.2990   15.0571 H         1 1GD         0.1879
     35 H          20.6981   12.1859   15.0186 H         1 1GD         0.0600
     36 H          18.4223   11.3512   11.4964 H         1 1GD         0.0600
     37 H          19.0508    9.0137   11.6567 H         1 1GD         0.0561
@<TRIPOS>BOND
     1   16    1 1  
     2    1   18 1  
     3   18    2 ar 
     4    2   19 ar 
     5   19    3 ar 
     6    3   20 ar 
     7    4    5 ar 
     8   13    4 ar 
     9    5   10 ar 
    10    7    6 am 
    11    7    8 2  
    12    7    9 2  
    13   10    7 1  
    14   11   10 ar 
    15   12   11 ar 
    16   13   12 ar 
    17   14   13 1  
    18   15   14 1  
    19   15   16 am 
    20   16   17 2  
    21   18   21 ar 
    22   20   21 ar 
    23    1   22 1  
    24    1   23 1  
    25    2   24 1  
    26    3   25 1  
    27    4   26 1  
    28    5   27 1  
    29    6   28 1  
    30    6   29 1  
    31   11   30 1  
    32   12   31 1  
    33   14   32 1  
    34   14   33 1  
    35   15   34 1  
    36   19   35 1  
    37   20   36 1  
    38   21   37 1  
@<TRIPOS>SUBSTRUCTURE
     1 1GD         1

