### 
### Created by X-TOOL on Mon Sep 10 21:13:12 2018
### 

@<TRIPOS>MOLECULE
4iu1_ligand
   23    22     1     0     0
SMALL
GAST_HUCK


@<TRIPOS>ATOM
      1 N          12.2700  -22.2170   31.1380 N.4       1 NNH         0.2328
      2 CA         12.6090  -22.2880   29.7000 C.3       1 NNH         0.0324
      3 C          13.8210  -23.2120   29.5080 C.2       1 NNH         0.0846
      4 O          14.4350  -22.9860   28.3200 O.co2     1 NNH        -0.5643
      5 CB         12.7680  -20.8570   29.1330 C.3       1 NNH         0.0438
      6 CG         13.8440  -19.9700   29.7970 C.3       1 NNH         0.0957
      7 ND         13.8510  -18.6540   29.1140 N.pl3     1 NNH        -0.2353
      8 CE         14.5890  -17.6420   29.3650 C.cat     1 NNH         0.3901
      9 NH1        15.0400  -17.4570   30.5330 N.2       1 NNH         0.0176
     10 NH2        14.8610  -16.8080   28.4350 N.pl3     1 NNH        -0.2481
     11 OH1        15.7890  -16.4180   30.8120 O.2       1 NNH        -0.1904
     12 OXT        14.1940  -24.0530   30.3020 O.co2     1 NNH        -0.5643
     13 H1         11.4748  -21.6110   31.2662 H         1 NNH         0.2010
     14 H2         13.0569  -21.8517   31.6511 H         1 NNH         0.2010
     15 H3         12.0472  -23.1399   31.4767 H         1 NNH         0.2010
     16 H4         11.7636  -22.7513   29.1702 H         1 NNH         0.1026
     17 H5         11.8001  -20.3453   29.2399 H         1 NNH         0.0382
     18 H6         13.0198  -20.9460   28.0659 H         1 NNH         0.0382
     19 H7         14.8309  -20.4455   29.6976 H         1 NNH         0.0800
     20 H8         13.6080  -19.8343   30.8628 H         1 NNH         0.0800
     21 H9         13.1781  -18.5420   28.3423 H         1 NNH         0.3228
     22 H10        15.4557  -15.9909   28.6338 H         1 NNH         0.3203
     23 H11        14.4854  -16.9532   27.4870 H         1 NNH         0.3203
@<TRIPOS>BOND
     1    1    2 1  
     2    2    3 1  
     3    2    5 1  
     4    3    4 ar 
     5    3   12 ar 
     6    5    6 1  
     7    6    7 1  
     8    7    8 ar 
     9    8    9 ar 
    10    8   10 ar 
    11    9   11 2  
    12    1   13 1  
    13    1   14 1  
    14    1   15 1  
    15    2   16 1  
    16    5   17 1  
    17    5   18 1  
    18    6   19 1  
    19    6   20 1  
    20    7   21 1  
    21   10   22 1  
    22   10   23 1  
@<TRIPOS>SUBSTRUCTURE
     1 NNH         1

