### 
### Created by X-TOOL on Mon Sep 10 21:13:13 2018
### 

@<TRIPOS>MOLECULE
4iuo_ligand
   24    24     1     0     0
SMALL
GAST_HUCK


@<TRIPOS>ATOM
      1 C1          2.1610   -0.4380    0.3850 C.3       1 QIC         0.1150
      2 O1          1.1580    0.5740    0.5960 O.3       1 QIC        -0.3847
      3 C2          3.4970    0.0450    0.9220 C.3       1 QIC         0.0095
      4 O2          2.5190    1.2680    2.7630 O.3       1 QIC        -0.3892
      5 C3          3.4560    0.2360    2.4320 C.3       1 QIC         0.0856
      6 O3          3.0150   -0.7980    4.5500 O.3       1 QIC        -0.3867
      7 C4          3.0720   -1.0510    3.1440 C.3       1 QIC         0.1068
      8 O4          1.4210   -2.7990    3.2890 O.3       1 QIC        -0.3892
      9 C5          1.7370   -1.5680    2.6240 C.3       1 QIC         0.0856
     10 O5          1.8510    0.2380   -1.8660 O.co2     1 QIC        -0.5451
     11 C6          1.7790   -1.7410    1.0940 C.3       1 QIC         0.0095
     12 O6          2.8510   -1.7050   -1.5470 O.co2     1 QIC        -0.5451
     13 C7          2.2970   -0.6540   -1.1100 C.2       1 QIC         0.0764
     14 H1          1.0788    0.7507    1.5260 H         1 QIC         0.2089
     15 H2          3.7470    1.0052    0.4471 H         1 QIC         0.0311
     16 H3          4.2704   -0.6978    0.6767 H         1 QIC         0.0311
     17 H4          1.6555    1.0216    2.4526 H         1 QIC         0.2099
     18 H5          4.4564    0.5400    2.7736 H         1 QIC         0.0620
     19 H6          2.7755   -1.5968    5.0049 H         1 QIC         0.2100
     20 H7          3.8419   -1.8122    2.9498 H         1 QIC         0.0645
     21 H8          2.1025   -3.4369    3.1127 H         1 QIC         0.2099
     22 H9          0.9561   -0.8315    2.8642 H         1 QIC         0.0620
     23 H10         2.5207   -2.5136    0.8432 H         1 QIC         0.0311
     24 H11         0.7857   -2.0589    0.7442 H         1 QIC         0.0311
@<TRIPOS>BOND
     1    1    2 1  
     2    1    3 1  
     3    1   11 1  
     4    1   13 1  
     5    3    5 1  
     6    5    4 1  
     7    5    7 1  
     8    7    6 1  
     9    7    9 1  
    10    9    8 1  
    11    9   11 1  
    12   13   10 ar 
    13   13   12 ar 
    14    2   14 1  
    15    3   15 1  
    16    3   16 1  
    17    4   17 1  
    18    5   18 1  
    19    6   19 1  
    20    7   20 1  
    21    8   21 1  
    22    9   22 1  
    23   11   23 1  
    24   11   24 1  
@<TRIPOS>SUBSTRUCTURE
     1 QIC         1

