### 
### Created by X-TOOL on Mon Sep 10 21:13:13 2018
### 

@<TRIPOS>MOLECULE
4iva_ligand
   42    45     1     0     0
SMALL
GAST_HUCK


@<TRIPOS>ATOM
      1 C1        -18.8070  -11.7080  -11.9520 C.3       1 1J5        -0.0208
      2 C2        -17.3040  -11.5290  -12.1850 C.3       1 1J5         0.1329
      3 O4        -16.9600  -12.0540  -13.4550 O.3       1 1J5        -0.3705
      4 C5        -16.8930  -10.0720  -12.1260 C.2       1 1J5         0.1520
      5 N6        -15.7090   -9.6050  -11.6210 N.pl3     1 1J5        -0.2252
      6 C7        -15.7340   -8.2230  -11.7360 C.ar      1 1J5         0.0888
      7 C8        -16.9680   -7.9100  -12.3450 C.ar      1 1J5         0.0329
      8 N9        -17.6140   -9.0800  -12.5570 N.2       1 1J5        -0.3171
      9 C10       -17.3070   -6.5800  -12.6070 C.ar      1 1J5        -0.0083
     10 N11       -16.4960   -5.5890  -12.3140 N.ar      1 1J5        -0.3048
     11 C12       -15.3160   -5.8200  -11.7370 C.ar      1 1J5         0.1197
     12 C13       -14.8850   -7.1320  -11.4300 C.ar      1 1J5         0.0191
     13 C14       -13.5590   -6.9670  -10.8100 C.2       1 1J5        -0.0611
     14 C15       -13.2890   -5.6470  -10.8010 C.2       1 1J5         0.0211
     15 N16       -14.3410   -4.9480  -11.3510 N.pl3     1 1J5        -0.2742
     16 C18       -14.6430  -10.4730  -11.0710 C.3       1 1J5         0.0698
     17 C20       -13.3240  -10.2600  -11.8410 C.3       1 1J5        -0.0207
     18 C21       -12.2680  -11.2480  -11.3050 C.3       1 1J5        -0.0237
     19 C22       -12.1140  -11.0580   -9.7820 C.3       1 1J5         0.0839
     20 C24       -13.4360  -11.2770   -9.0290 C.3       1 1J5        -0.0237
     21 C25       -14.4960  -10.2910   -9.5540 C.3       1 1J5        -0.0207
     22 C26       -11.1200  -11.9960   -9.2280 C.1       1 1J5         0.0931
     23 N27       -10.3860  -12.7500   -8.7930 N.1       1 1J5        -0.3033
     24 H1        -19.0762  -11.3009  -10.9662 H         1 1J5         0.0285
     25 H2        -19.0588  -12.7782  -11.9879 H         1 1J5         0.0285
     26 H3        -19.3656  -11.1734  -12.7344 H         1 1J5         0.0285
     27 H4        -16.7591  -12.0812  -11.4052 H         1 1J5         0.0857
     28 H5        -17.4438  -11.5915  -14.1292 H         1 1J5         0.2142
     29 H6        -18.2649   -6.3601  -13.0643 H         1 1J5         0.0693
     30 H7        -12.9182   -7.7616  -10.4307 H         1 1J5         0.0292
     31 H8        -12.3743   -5.1989  -10.4158 H         1 1J5         0.0915
     32 H9        -14.3845   -3.9242  -11.4548 H         1 1J5         0.2282
     33 H10       -14.9492  -11.5161  -11.2385 H         1 1J5         0.0644
     34 H11       -12.9727   -9.2281  -11.6935 H         1 1J5         0.0295
     35 H12       -13.4889  -10.4415  -12.9133 H         1 1J5         0.0295
     36 H13       -11.3033  -11.0571  -11.7979 H         1 1J5         0.0289
     37 H14       -12.5896  -12.2787  -11.5154 H         1 1J5         0.0289
     38 H15       -11.7722  -10.0283   -9.6007 H         1 1J5         0.0592
     39 H16       -13.2779  -11.1070   -7.9538 H         1 1J5         0.0289
     40 H17       -13.7831  -12.3083   -9.1900 H         1 1J5         0.0289
     41 H18       -15.4601  -10.4912   -9.0638 H         1 1J5         0.0295
     42 H19       -14.1805   -9.2601   -9.3354 H         1 1J5         0.0295
@<TRIPOS>BOND
     1    1    2 1  
     2    2    3 1  
     3    2    4 1  
     4    4    5 1  
     5    4    8 2  
     6    5    6 1  
     7    5   16 1  
     8    6    7 ar 
     9    6   12 ar 
    10    7    8 1  
    11    7    9 ar 
    12    9   10 ar 
    13   10   11 ar 
    14   11   12 ar 
    15   11   15 1  
    16   12   13 1  
    17   13   14 2  
    18   14   15 1  
    19   16   17 1  
    20   16   21 1  
    21   17   18 1  
    22   18   19 1  
    23   19   20 1  
    24   19   22 1  
    25   20   21 1  
    26   22   23 3  
    27    1   24 1  
    28    1   25 1  
    29    1   26 1  
    30    2   27 1  
    31    3   28 1  
    32    9   29 1  
    33   13   30 1  
    34   14   31 1  
    35   15   32 1  
    36   16   33 1  
    37   17   34 1  
    38   17   35 1  
    39   18   36 1  
    40   18   37 1  
    41   19   38 1  
    42   20   39 1  
    43   20   40 1  
    44   21   41 1  
    45   21   42 1  
@<TRIPOS>SUBSTRUCTURE
     1 1J5         1

