### 
### Created by X-TOOL on Mon Sep 10 21:13:13 2018
### 

@<TRIPOS>MOLECULE
4ivb_ligand
   42    45     1     0     0
SMALL
GAST_HUCK


@<TRIPOS>ATOM
      1 C1         11.0410   57.1510   -1.8610 C.3       1 1J5        -0.0208
      2 C2         10.0770   56.5990   -0.8020 C.3       1 1J5         0.1329
      3 O4         10.7330   56.4520    0.4690 O.3       1 1J5        -0.3705
      4 C5          8.9410   57.5420   -0.5580 C.2       1 1J5         0.1520
      5 N6          7.7870   57.2400    0.1010 N.pl3     1 1J5        -0.2252
      6 C7          7.0310   58.4050    0.1340 C.ar      1 1J5         0.0888
      7 C8          7.8000   59.3820   -0.5330 C.ar      1 1J5         0.0329
      8 N9          8.9470   58.7840   -0.9150 N.2       1 1J5        -0.3171
      9 C10         7.3390   60.6890   -0.6670 C.ar      1 1J5        -0.0083
     10 N11         6.1710   61.0440   -0.1980 N.ar      1 1J5        -0.3048
     11 C12         5.3870   60.1680    0.4180 C.ar      1 1J5         0.1197
     12 C13         5.7730   58.8270    0.6110 C.ar      1 1J5         0.0191
     13 C14         4.6700   58.1950    1.3090 C.2       1 1J5        -0.0611
     14 C15         3.7310   59.1260    1.4860 C.2       1 1J5         0.0211
     15 N16         4.1570   60.3110    0.9530 N.pl3     1 1J5        -0.2742
     16 C18         7.4700   55.9050    0.6440 C.3       1 1J5         0.0698
     17 C20         7.2600   55.9840    2.1680 C.3       1 1J5        -0.0207
     18 C21         6.8300   54.6260    2.7490 C.3       1 1J5        -0.0237
     19 C22         5.6490   54.0320    1.9430 C.3       1 1J5         0.0839
     20 C24         5.9170   53.9450    0.4290 C.3       1 1J5        -0.0237
     21 C25         6.2460   55.3470   -0.1060 C.3       1 1J5        -0.0207
     22 C26         5.3910   52.6730    2.4540 C.1       1 1J5         0.0931
     23 N27         5.2020   51.6410    2.8920 N.1       1 1J5        -0.3033
     24 H1         10.5126   57.2525   -2.8204 H         1 1J5         0.0285
     25 H2         11.8888   56.4604   -1.9807 H         1 1J5         0.0285
     26 H3         11.4125   58.1357   -1.5410 H         1 1J5         0.0285
     27 H4          9.6924   55.6264   -1.1426 H         1 1J5         0.0857
     28 H5         11.4633   55.8511    0.3795 H         1 1J5         0.2142
     29 H6          7.9583   61.4241   -1.1682 H         1 1J5         0.0693
     30 H7          4.6180   57.1553    1.6287 H         1 1J5         0.0292
     31 H8          2.7731   58.9668    1.9789 H         1 1J5         0.0915
     32 H9          3.6160   61.1875    0.9592 H         1 1J5         0.2282
     33 H10         8.3222   55.2355    0.4555 H         1 1J5         0.0644
     34 H11         6.4790   56.7282    2.3831 H         1 1J5         0.0295
     35 H12         8.2025   56.2937    2.6431 H         1 1J5         0.0295
     36 H13         6.5195   54.7634    3.7953 H         1 1J5         0.0289
     37 H14         7.6810   53.9302    2.7074 H         1 1J5         0.0289
     38 H15         4.7618   54.6620    2.1042 H         1 1J5         0.0592
     39 H16         5.0233   53.5567   -0.0813 H         1 1J5         0.0289
     40 H17         6.7668   53.2716    0.2437 H         1 1J5         0.0289
     41 H18         6.4703   55.2864   -1.1812 H         1 1J5         0.0295
     42 H19         5.3840   56.0119    0.0519 H         1 1J5         0.0295
@<TRIPOS>BOND
     1    1    2 1  
     2    2    3 1  
     3    2    4 1  
     4    4    5 1  
     5    4    8 2  
     6    5    6 1  
     7    5   16 1  
     8    6    7 ar 
     9    6   12 ar 
    10    7    8 1  
    11    7    9 ar 
    12    9   10 ar 
    13   10   11 ar 
    14   11   12 ar 
    15   11   15 1  
    16   12   13 1  
    17   13   14 2  
    18   14   15 1  
    19   16   17 1  
    20   16   21 1  
    21   17   18 1  
    22   18   19 1  
    23   19   20 1  
    24   19   22 1  
    25   20   21 1  
    26   22   23 3  
    27    1   24 1  
    28    1   25 1  
    29    1   26 1  
    30    2   27 1  
    31    3   28 1  
    32    9   29 1  
    33   13   30 1  
    34   14   31 1  
    35   15   32 1  
    36   16   33 1  
    37   17   34 1  
    38   17   35 1  
    39   18   36 1  
    40   18   37 1  
    41   19   38 1  
    42   20   39 1  
    43   20   40 1  
    44   21   41 1  
    45   21   42 1  
@<TRIPOS>SUBSTRUCTURE
     1 1J5         1

