### 
### Created by X-TOOL on Mon Sep 10 21:13:14 2018
### 

@<TRIPOS>MOLECULE
4ivc_ligand
   45    48     1     0     0
SMALL
GAST_HUCK


@<TRIPOS>ATOM
      1 C1         10.8090   57.1620   -1.6820 C.3       1 1J6        -0.0208
      2 C2          9.7620   56.5650   -0.7290 C.3       1 1J6         0.1329
      3 O4         10.3290   56.2350    0.5450 O.3       1 1J6        -0.3705
      4 C5          8.6250   57.5160   -0.4670 C.2       1 1J6         0.1520
      5 N6          7.4640   57.1690    0.1600 N.pl3     1 1J6        -0.2252
      6 C7          6.6910   58.3230    0.2240 C.ar      1 1J6         0.0888
      7 C8          7.4450   59.3400   -0.4020 C.ar      1 1J6         0.0329
      8 N9          8.6160   58.7790   -0.7880 N.2       1 1J6        -0.3171
      9 C10         6.9200   60.6330   -0.5090 C.ar      1 1J6        -0.0083
     10 N11         5.7300   60.9430   -0.0470 N.ar      1 1J6        -0.3048
     11 C12         4.9740   60.0140    0.5360 C.ar      1 1J6         0.1197
     12 C13         5.4240   58.6860    0.6980 C.ar      1 1J6         0.0191
     13 C14         4.3380   57.9640    1.3580 C.2       1 1J6        -0.0611
     14 C15         3.3490   58.8410    1.5500 C.2       1 1J6         0.0211
     15 N16         3.7350   60.0730    1.0750 N.pl3     1 1J6        -0.2742
     16 C18         7.1600   55.8230    0.6610 C.3       1 1J6         0.0696
     17 C20         6.8280   55.8880    2.1630 C.3       1 1J6        -0.0226
     18 C21         6.5080   54.4820    2.6830 C.3       1 1J6        -0.0456
     19 C22         5.4220   53.7580    1.8720 C.3       1 1J6        -0.0172
     20 C24         5.7000   53.7810    0.3470 C.3       1 1J6        -0.0456
     21 C25         5.9970   55.2070   -0.1270 C.3       1 1J6        -0.0226
     22 C26         5.3250   52.3070    2.4090 C.3       1 1J6         0.0755
     23 C27         4.1500   51.6550    1.7620 C.1       1 1J6         0.0900
     24 N28         3.2540   51.2550    1.1620 N.1       1 1J6        -0.3036
     25 H1         10.3343   57.4005   -2.6452 H         1 1J6         0.0285
     26 H2         11.6171   56.4331   -1.8421 H         1 1J6         0.0285
     27 H3         11.2251   58.0798   -1.2411 H         1 1J6         0.0285
     28 H4          9.3634   55.6503   -1.1921 H         1 1J6         0.0857
     29 H5          9.6545   55.8699    1.1055 H         1 1J6         0.2142
     30 H6          7.5140   61.4028   -0.9882 H         1 1J6         0.0693
     31 H7          4.3356   56.9120    1.6394 H         1 1J6         0.0292
     32 H8          2.3880   58.6161    2.0103 H         1 1J6         0.0915
     33 H9          3.1584   60.9251    1.1233 H         1 1J6         0.2282
     34 H10         8.0479   55.1880    0.5251 H         1 1J6         0.0643
     35 H11         5.9568   56.5417    2.3169 H         1 1J6         0.0294
     36 H12         7.6916   56.2927    2.7111 H         1 1J6         0.0294
     37 H13         6.1656   54.5662    3.7249 H         1 1J6         0.0270
     38 H14         7.4280   53.8802    2.6469 H         1 1J6         0.0270
     39 H15         4.4609   54.2642    2.0454 H         1 1J6         0.0321
     40 H16         4.8172   53.3994   -0.1869 H         1 1J6         0.0270
     41 H17         6.5665   53.1398    0.1281 H         1 1J6         0.0270
     42 H18         6.2602   55.1825   -1.1947 H         1 1J6         0.0294
     43 H19         5.0993   55.8265    0.0153 H         1 1J6         0.0294
     44 H20         5.1902   52.3209    3.5006 H         1 1J6         0.0559
     45 H21         6.2429   51.7544    2.1599 H         1 1J6         0.0559
@<TRIPOS>BOND
     1    1    2 1  
     2    2    3 1  
     3    2    4 1  
     4    4    5 1  
     5    4    8 2  
     6    5    6 1  
     7    5   16 1  
     8    6    7 ar 
     9    6   12 ar 
    10    7    8 1  
    11    7    9 ar 
    12    9   10 ar 
    13   10   11 ar 
    14   11   12 ar 
    15   11   15 1  
    16   12   13 1  
    17   13   14 2  
    18   14   15 1  
    19   16   17 1  
    20   16   21 1  
    21   17   18 1  
    22   18   19 1  
    23   19   20 1  
    24   19   22 1  
    25   20   21 1  
    26   22   23 1  
    27   23   24 3  
    28    1   25 1  
    29    1   26 1  
    30    1   27 1  
    31    2   28 1  
    32    3   29 1  
    33    9   30 1  
    34   13   31 1  
    35   14   32 1  
    36   15   33 1  
    37   16   34 1  
    38   17   35 1  
    39   17   36 1  
    40   18   37 1  
    41   18   38 1  
    42   19   39 1  
    43   20   40 1  
    44   20   41 1  
    45   21   42 1  
    46   21   43 1  
    47   22   44 1  
    48   22   45 1  
@<TRIPOS>SUBSTRUCTURE
     1 1J6         1

