### 
### Created by X-TOOL on Mon Sep 10 21:13:12 2018
### 

@<TRIPOS>MOLECULE
4ivk_ligand
   37    38     1     0     0
SMALL
GAST_HUCK


@<TRIPOS>ATOM
      1 S1        -26.7160  -16.8840  -22.1600 S.3       1 CEP        -0.1192
      2 C2        -24.9650  -17.0880  -22.0380 C.3       1 CEP         0.0197
      3 C3        -24.3130  -17.9440  -23.1120 C.2       1 CEP        -0.0450
      4 C3'       -22.8940  -18.3830  -22.8050 C.3       1 CEP        -0.0403
      5 C4        -24.9340  -18.3290  -24.2530 C.2       1 CEP         0.0465
      6 C4'       -24.2640  -19.1140  -25.3060 C.2       1 CEP         0.0568
      7 O4A       -24.5630  -18.9640  -26.5200 O.co2     1 CEP        -0.5692
      8 O4B       -23.3990  -19.9470  -24.9810 O.co2     1 CEP        -0.5692
      9 N5        -26.1730  -17.9510  -24.5360 N.pl3     1 CEP        -0.3283
     10 C6        -26.7730  -16.7860  -23.9160 C.3       1 CEP         0.1157
     11 C7        -28.1670  -16.4800  -24.4770 C.3       1 CEP         0.1433
     12 C8        -27.9010  -16.4380  -25.9680 C.2       1 CEP         0.1275
     13 O9        -28.1880  -17.4070  -26.6500 O.2       1 CEP        -0.3723
     14 N10       -29.1550  -17.4650  -24.0400 N.am      1 CEP        -0.2620
     15 C11       -30.4420  -17.4040  -24.4020 C.2       1 CEP         0.1919
     16 O12       -30.8670  -16.5180  -25.1210 O.2       1 CEP        -0.3935
     17 C13       -31.3780  -18.4920  -23.8930 C.3       1 CEP         0.0819
     18 C14       -32.4150  -17.9670  -22.9180 C.2       1 CEP         0.0307
     19 C15       -32.4730  -16.7570  -22.2530 C.2       1 CEP        -0.0791
     20 C16       -33.5850  -16.6660  -21.4290 C.2       1 CEP        -0.0924
     21 C17       -34.3590  -17.8080  -21.4830 C.2       1 CEP        -0.0189
     22 S19       -33.7470  -19.0390  -22.5460 S.3       1 CEP        -0.0419
     23 H1        -24.7479  -17.5494  -21.0633 H         1 CEP         0.0511
     24 H2        -24.5068  -16.0889  -22.0810 H         1 CEP         0.0511
     25 H3        -22.5112  -18.9935  -23.6361 H         1 CEP         0.0364
     26 H4        -22.8862  -18.9774  -21.8795 H         1 CEP         0.0364
     27 H5        -22.2555  -17.4965  -22.6769 H         1 CEP         0.0364
     28 H6        -26.7229  -18.4987  -25.2132 H         1 CEP         0.1649
     29 H7        -26.1421  -15.9286  -24.1930 H         1 CEP         0.0704
     30 H8        -28.5081  -15.4914  -24.1360 H         1 CEP         0.0821
     31 H9        -27.4591  -15.5536  -26.4246 H         1 CEP         0.1374
     32 H10       -28.8575  -18.2136  -23.4474 H         1 CEP         0.1886
     33 H11       -30.7784  -19.2629  -23.3869 H         1 CEP         0.0685
     34 H12       -31.8986  -18.9383  -24.7531 H         1 CEP         0.0685
     35 H13       -31.7318  -15.9668  -22.3631 H         1 CEP         0.0284
     36 H14       -33.8193  -15.7985  -20.8137 H         1 CEP         0.0373
     37 H15       -35.2760  -17.9273  -20.9078 H         1 CEP         0.0603
@<TRIPOS>BOND
     1    1    2 1  
     2    1   10 1  
     3    2    3 1  
     4    3    4 1  
     5    3    5 2  
     6    5    6 1  
     7    5    9 1  
     8    6    7 ar 
     9    6    8 ar 
    10    9   10 1  
    11   10   11 1  
    12   11   12 1  
    13   11   14 1  
    14   12   13 2  
    15   14   15 am 
    16   15   16 2  
    17   15   17 1  
    18   17   18 1  
    19   18   19 2  
    20   18   22 1  
    21   19   20 1  
    22   20   21 2  
    23   21   22 1  
    24    2   23 1  
    25    2   24 1  
    26    4   25 1  
    27    4   26 1  
    28    4   27 1  
    29    9   28 1  
    30   10   29 1  
    31   11   30 1  
    32   12   31 1  
    33   14   32 1  
    34   17   33 1  
    35   17   34 1  
    36   19   35 1  
    37   20   36 1  
    38   21   37 1  
@<TRIPOS>SUBSTRUCTURE
     1 CEP         1

