### 
### Created by X-TOOL on Mon Sep 10 21:13:13 2018
### 

@<TRIPOS>MOLECULE
4ivs_ligand
   50    52     1     0     0
SMALL
GAST_HUCK


@<TRIPOS>ATOM
      1 CBB        17.7900  -19.0850    2.2500 C.3       1 VSI         0.0314
      2 CBA        18.4650  -20.2450    1.5860 C.2       1 VSI         0.1994
      3 OBC        19.6780  -20.3010    1.4990 O.2       1 VSI        -0.3857
      4 NAZ        17.6350  -21.2860    1.0390 N.am      1 VSI        -0.2360
      5 CAU        18.1240  -22.4950    0.3950 C.ar      1 VSI         0.0879
      6 CAV        18.0920  -22.6580   -0.9930 C.ar      1 VSI         0.0543
      7 CLX        17.5160  -21.3610   -1.9730 Cl        1 VSI        -0.0845
      8 CAW        18.5430  -23.8400   -1.5910 C.ar      1 VSI        -0.0550
      9 CAT        18.5920  -23.5240    1.2010 C.ar      1 VSI         0.0543
     10 CLY        18.6360  -23.3700    2.9430 Cl        1 VSI        -0.0845
     11 CAS        19.0380  -24.6910    0.6070 C.ar      1 VSI        -0.0550
     12 CAR        19.0210  -24.8540   -0.7820 C.ar      1 VSI        -0.0115
     13 CAQ        19.5100  -26.1720   -1.3110 C.3       1 VSI         0.1158
     14 NAO        20.2130  -26.1470   -2.5750 N.pl3     1 VSI        -0.2324
     15 CAN        21.6200  -25.9360   -2.8900 C.cat     1 VSI         0.3299
     16 NAP        21.9060  -26.0060   -4.1720 N.pl3     1 VSI        -0.2541
     17 NAL        22.7040  -25.6410   -1.9450 N.am      1 VSI        -0.2218
     18 C          22.8330  -25.4720   -0.4920 C.2       1 VSI         0.2070
     19 O          21.9140  -25.5630    0.3060 O.2       1 VSI        -0.3944
     20 CA         24.1840  -25.1890    0.1170 C.3       1 VSI         0.1415
     21 N          24.6300  -26.4300    0.7120 N.pl3     1 VSI        -0.2425
     22 CAD        25.7960  -26.7190    1.3580 C.ar      1 VSI         0.0803
     23 CAC        26.9660  -25.9820    1.6980 C.ar      1 VSI        -0.0071
     24 CAB        28.0290  -26.5890    2.3960 C.ar      1 VSI         0.0798
     25 CBD        29.2980  -25.8610    2.8070 C.1       1 VSI         0.0887
     26 NBE        30.2670  -25.3560    3.1330 N.1       1 VSI        -0.3359
     27 CAA        27.9310  -27.9300    2.7510 C.ar      1 VSI        -0.0464
     28 CAF        26.7970  -28.6710    2.4170 C.ar      1 VSI        -0.0666
     29 CAE        25.7400  -28.0710    1.7280 C.ar      1 VSI        -0.0197
     30 CAI        24.5220  -28.5980    1.2890 C.2       1 VSI        -0.0571
     31 CAH        23.8750  -27.5530    0.6670 C.2       1 VSI         0.0320
     32 H1         16.6999  -19.2299    2.2217 H         1 VSI         0.0472
     33 H2         18.0504  -18.1569    1.7202 H         1 VSI         0.0472
     34 H3         18.1237  -19.0161    3.2959 H         1 VSI         0.0472
     35 H4         16.6442  -21.1688    1.1071 H         1 VSI         0.2244
     36 H5         18.5180  -23.9583   -2.6682 H         1 VSI         0.0529
     37 H6         19.4085  -25.4961    1.2312 H         1 VSI         0.0529
     38 H7         18.6352  -26.8282   -1.4297 H         1 VSI         0.0935
     39 H8         20.1904  -26.6002   -0.5602 H         1 VSI         0.0935
     40 H9         19.6134  -26.3064   -3.3972 H         1 VSI         0.3245
     41 H10        22.8757  -25.8701   -4.4915 H         1 VSI         0.3199
     42 H11        21.1602  -26.1967   -4.8564 H         1 VSI         0.3199
     43 H12        23.5811  -25.5252   -2.4111 H         1 VSI         0.1857
     44 H13        24.0988  -24.4071    0.8860 H         1 VSI         0.0849
     45 H14        24.8913  -24.8636   -0.6600 H         1 VSI         0.0849
     46 H15        27.0401  -24.9381    1.4156 H         1 VSI         0.0663
     47 H16        28.7424  -28.4035    3.2917 H         1 VSI         0.0594
     48 H17        26.7357  -29.7174    2.6934 H         1 VSI         0.0551
     49 H18        24.1612  -29.6181    1.4125 H         1 VSI         0.0306
     50 H19        22.8920  -27.6207    0.2032 H         1 VSI         0.0981
@<TRIPOS>BOND
     1    1    2 1  
     2    2    3 2  
     3    2    4 am 
     4    4    5 1  
     5    5    6 ar 
     6    5    9 ar 
     7    6    7 1  
     8    6    8 ar 
     9    8   12 ar 
    10    9   10 1  
    11    9   11 ar 
    12   11   12 ar 
    13   12   13 1  
    14   13   14 1  
    15   14   15 ar 
    16   15   16 ar 
    17   15   17 ar 
    18   17   18 am 
    19   18   19 2  
    20   18   20 1  
    21   20   21 1  
    22   21   22 1  
    23   21   31 1  
    24   22   23 ar 
    25   22   29 ar 
    26   23   24 ar 
    27   24   25 1  
    28   24   27 ar 
    29   25   26 3  
    30   27   28 ar 
    31   28   29 ar 
    32   29   30 1  
    33   30   31 2  
    34    1   32 1  
    35    1   33 1  
    36    1   34 1  
    37    4   35 1  
    38    8   36 1  
    39   11   37 1  
    40   13   38 1  
    41   13   39 1  
    42   14   40 1  
    43   16   41 1  
    44   16   42 1  
    45   17   43 1  
    46   20   44 1  
    47   20   45 1  
    48   23   46 1  
    49   27   47 1  
    50   28   48 1  
    51   30   49 1  
    52   31   50 1  
@<TRIPOS>SUBSTRUCTURE
     1 VSI         1

