### 
### Created by X-TOOL on Mon Sep 10 21:13:13 2018
### 

@<TRIPOS>MOLECULE
4ivt_ligand
   49    51     1     0     0
SMALL
GAST_HUCK


@<TRIPOS>ATOM
      1 CAA        17.7490   19.3990   -2.2120 C.3       1 VTI         0.0314
      2 CAT        18.3920   20.5430   -1.4180 C.2       1 VTI         0.1994
      3 OAC        19.5790   20.5930   -1.1950 O.2       1 VTI        -0.3857
      4 NAS        17.5450   21.5880   -0.9140 N.am      1 VTI        -0.2360
      5 CAZ        18.0730   22.7290   -0.1510 C.ar      1 VTI         0.0879
      6 CAY        18.0150   22.7490    1.2390 C.ar      1 VTI         0.0543
      7 CAN        18.4940   23.8390    1.9410 C.ar      1 VTI        -0.0550
      8 CLF        17.3940   21.4190    2.0150 Cl        1 VTI        -0.0845
      9 CAX        18.6020   23.8030   -0.8090 C.ar      1 VTI         0.0543
     10 CLE        18.6870   23.7790   -2.5580 Cl        1 VTI        -0.0845
     11 CAM        19.0830   24.8880   -0.1430 C.ar      1 VTI        -0.0550
     12 CAW        19.0110   24.9220    1.2450 C.ar      1 VTI        -0.0115
     13 CAO        19.6080   26.1770    1.9660 C.3       1 VTI         0.1158
     14 NAQ        21.0400   25.9830    1.9610 N.pl3     1 VTI        -0.2324
     15 CAU        21.8280   26.0570    3.1310 C.cat     1 VTI         0.3299
     16 NAB        21.3250   26.3430    4.3040 N.pl3     1 VTI        -0.2541
     17 NAR        23.2430   25.8250    3.0630 N.am      1 VTI        -0.2218
     18 C          23.9070   25.5050    1.8520 C.2       1 VTI         0.2068
     19 O          23.3080   25.4160    0.8030 O.2       1 VTI        -0.3944
     20 CA         25.4120   25.2880    1.9690 C.3       1 VTI         0.1404
     21 N          26.1090   25.2340    0.7790 N.pl3     1 VTI        -0.2475
     22 CBB        26.1460   24.1160   -0.0450 C.ar      1 VTI         0.0682
     23 CAJ        25.5440   22.8360    0.0900 C.ar      1 VTI        -0.0430
     24 CAH        25.7560   21.8430   -0.9300 C.ar      1 VTI        -0.0764
     25 CAG        26.5290   22.1470   -2.0250 C.ar      1 VTI        -0.0790
     26 CAI        27.1190   23.4210   -2.1520 C.ar      1 VTI        -0.0752
     27 CBA        26.9100   24.4150   -1.1290 C.ar      1 VTI        -0.0276
     28 CAK        27.3580   25.7870   -0.9540 C.2       1 VTI        -0.0636
     29 CAL        26.8220   26.2340    0.2530 C.2       1 VTI         0.0265
     30 H1         16.6646   19.5683   -2.2861 H         1 VTI         0.0472
     31 H2         17.9368   18.4449   -1.6978 H         1 VTI         0.0472
     32 H3         18.1843   19.3633   -3.2215 H         1 VTI         0.0472
     33 H4         16.5615   21.5379   -1.0881 H         1 VTI         0.2244
     34 H5         18.4660   23.8476    3.0246 H         1 VTI         0.0529
     35 H6         19.5178   25.7173   -0.6892 H         1 VTI         0.0529
     36 H7         19.2329   26.2417    2.9980 H         1 VTI         0.0935
     37 H8         19.3430   27.0952    1.4213 H         1 VTI         0.0935
     38 H9         21.5065   25.7819    1.0650 H         1 VTI         0.3245
     39 H10        21.9380   26.3861    5.1306 H         1 VTI         0.3199
     40 H11        20.3159   26.5252    4.4011 H         1 VTI         0.3199
     41 H12        23.7816   25.8917    3.9029 H         1 VTI         0.1857
     42 H13        25.5750   24.3375    2.4981 H         1 VTI         0.0847
     43 H14        25.8262   26.1149    2.5645 H         1 VTI         0.0847
     44 H15        24.9301   22.6093    0.9542 H         1 VTI         0.0544
     45 H16        25.3083   20.8603   -0.8351 H         1 VTI         0.0530
     46 H17        26.6861   21.4018   -2.7964 H         1 VTI         0.0515
     47 H18        27.7289   23.6529   -3.0176 H         1 VTI         0.0535
     48 H19        27.9902   26.3557   -1.6343 H         1 VTI         0.0285
     49 H20        26.9599   27.2222    0.6893 H         1 VTI         0.0936
@<TRIPOS>BOND
     1    1    2 1  
     2    2    3 2  
     3    2    4 am 
     4    4    5 1  
     5    5    6 ar 
     6    5    9 ar 
     7    6    7 ar 
     8    6    8 1  
     9    7   12 ar 
    10    9   10 1  
    11    9   11 ar 
    12   11   12 ar 
    13   12   13 1  
    14   13   14 1  
    15   14   15 ar 
    16   15   16 ar 
    17   15   17 ar 
    18   17   18 am 
    19   18   19 2  
    20   18   20 1  
    21   20   21 1  
    22   21   22 1  
    23   21   29 1  
    24   22   23 ar 
    25   22   27 ar 
    26   23   24 ar 
    27   24   25 ar 
    28   25   26 ar 
    29   26   27 ar 
    30   27   28 1  
    31   28   29 2  
    32    1   30 1  
    33    1   31 1  
    34    1   32 1  
    35    4   33 1  
    36    7   34 1  
    37   11   35 1  
    38   13   36 1  
    39   13   37 1  
    40   14   38 1  
    41   16   39 1  
    42   16   40 1  
    43   17   41 1  
    44   20   42 1  
    45   20   43 1  
    46   23   44 1  
    47   24   45 1  
    48   25   46 1  
    49   26   47 1  
    50   28   48 1  
    51   29   49 1  
@<TRIPOS>SUBSTRUCTURE
     1 VTI         1

