### 
### Created by X-TOOL on Mon Sep 10 21:13:15 2018
### 

@<TRIPOS>MOLECULE
4iwd_ligand
   68    73     1     0     0
SMALL
GAST_HUCK


@<TRIPOS>ATOM
      1 C          -3.5650   -8.5290  -16.5910 C.ar      1 1JC        -0.0028
      2 C1         -4.6650   -9.2760  -17.0390 C.ar      1 1JC         0.0127
      3 N          -5.9120   -9.1320  -16.4790 N.ar      1 1JC        -0.2943
      4 C2         -6.0960   -8.2430  -15.4640 C.ar      1 1JC         0.0561
      5 C3         -5.0510   -7.4750  -14.9340 C.ar      1 1JC         0.0584
      6 C4         -3.8130   -7.6680  -15.5330 C.ar      1 1JC        -0.0262
      7 C5         -7.4570   -8.2120  -15.0570 C.2       1 1JC        -0.0346
      8 C6         -8.0200   -7.1690  -14.2730 C.2       1 1JC        -0.0454
      9 C7         -7.4990   -5.9920  -13.6890 C.ar      1 1JC        -0.0061
     10 C8         -6.1640   -5.6980  -13.4680 C.ar      1 1JC         0.0367
     11 C9         -5.0640   -6.5170  -13.8250 C.2       1 1JC         0.1551
     12 C10        -8.4030   -4.9850  -13.2880 C.ar      1 1JC        -0.0513
     13 C11        -8.0220   -3.7610  -12.7060 C.ar      1 1JC        -0.0503
     14 C12        -6.6710   -3.4940  -12.4820 C.ar      1 1JC        -0.0116
     15 C13        -5.7900   -4.4600  -12.8720 C.ar      1 1JC        -0.0372
     16 C14        -6.1270   -2.2150  -11.8610 C.3       1 1JC         0.1205
     17 S          -5.6840   -1.2620  -13.3020 S.o2      1 1JC         0.0514
     18 N15        -5.3610    0.2600  -12.6410 N.am      1 1JC        -0.2363
     19 O          -3.9820   -6.3010  -13.1980 O.2       1 1JC        -0.3839
     20 O16        -4.3020   -1.8620  -13.8580 O.2       1 1JC        -0.1531
     21 O17        -6.9290   -1.1650  -14.2870 O.2       1 1JC        -0.1531
     22 C18        -2.2150   -8.6270  -17.1880 C.2       1 1JC         0.0100
     23 C19        -1.9830   -9.2190  -18.4010 C.2       1 1JC         0.0676
     24 N20        -0.6430   -9.1380  -18.6360 N.pl3     1 1JC        -0.1976
     25 N21         0.0080   -8.5080  -17.6650 N.2       1 1JC        -0.2117
     26 C22        -0.9380   -8.2040  -16.7840 C.2       1 1JC         0.0082
     27 C23        -3.9460    0.5500  -12.2710 C.3       1 1JC         0.0754
     28 C24        -3.8700    1.3370  -10.9670 C.ar      1 1JC         0.0465
     29 N25        -2.6670    1.8440  -10.6350 N.ar      1 1JC        -0.2964
     30 C26        -2.4990    2.5910   -9.4780 C.ar      1 1JC         0.0028
     31 C27        -3.5570    2.8110   -8.6070 C.ar      1 1JC        -0.0410
     32 C28        -4.8320    2.2720   -8.9460 C.ar      1 1JC        -0.0488
     33 C29        -4.9880    1.5400  -10.1170 C.ar      1 1JC        -0.0308
     34 C30         0.0800   -9.6380  -19.8260 C.3       1 1JC         0.0932
     35 C31         1.1180  -10.6950  -19.3630 C.3       1 1JC         0.0205
     36 C32         2.2010  -11.0330  -20.4050 C.3       1 1JC        -0.0306
     37 N33         2.7680   -9.8420  -21.1120 N.4       1 1JC         0.2271
     38 C34         1.8690   -8.6880  -21.4790 C.3       1 1JC        -0.0306
     39 C35         0.7910   -8.3730  -20.4490 C.3       1 1JC         0.0205
     40 H1         -4.5279   -9.9849  -17.8475 H         1 1JC         0.0826
     41 H2         -2.9753   -7.1013  -15.1429 H         1 1JC         0.0733
     42 H3         -8.1043   -9.0327  -15.3627 H         1 1JC         0.0648
     43 H4         -9.0830   -7.3063  -14.0805 H         1 1JC         0.0692
     44 H5         -9.4612   -5.1661  -13.4381 H         1 1JC         0.0638
     45 H6         -8.7744   -3.0298  -12.4333 H         1 1JC         0.0607
     46 H7         -4.7336   -4.2723  -12.7177 H         1 1JC         0.0613
     47 H8         -5.2485   -2.4188  -11.2312 H         1 1JC         0.0692
     48 H9         -6.8955   -1.7025  -11.2637 H         1 1JC         0.0692
     49 H10        -6.0859    0.9351  -12.5044 H         1 1JC         0.1701
     50 H11        -2.7286   -9.6695  -19.0545 H         1 1JC         0.1059
     51 H12        -0.7443   -7.6823  -15.8479 H         1 1JC         0.0680
     52 H13        -3.4781    1.1388  -13.0737 H         1 1JC         0.0668
     53 H14        -3.4045   -0.3997  -12.1495 H         1 1JC         0.0668
     54 H15        -1.5254    3.0097   -9.2505 H         1 1JC         0.0803
     55 H16        -3.4173    3.3776   -7.6935 H         1 1JC         0.0652
     56 H17        -5.6802    2.4330   -8.2904 H         1 1JC         0.0719
     57 H18        -5.9557    1.1276  -10.3789 H         1 1JC         0.0652
     58 H19        -0.6143  -10.0868  -20.5516 H         1 1JC         0.0685
     59 H20         0.5778  -11.6212  -19.1176 H         1 1JC         0.0349
     60 H21         1.6180  -10.3121  -18.4611 H         1 1JC         0.0349
     61 H22         1.7582  -11.7019  -21.1577 H         1 1JC         0.0815
     62 H23         3.0233  -11.5524  -19.8912 H         1 1JC         0.0815
     63 H24         3.1750  -10.1789  -21.9704 H         1 1JC         0.2013
     64 H25         3.4935   -9.4694  -20.5197 H         1 1JC         0.2013
     65 H26         1.3740   -8.9278  -22.4316 H         1 1JC         0.0815
     66 H27         2.4946   -7.7922  -21.6061 H         1 1JC         0.0815
     67 H28         1.2558   -7.8040  -19.6304 H         1 1JC         0.0349
     68 H29         0.0230   -7.7540  -20.9359 H         1 1JC         0.0349
@<TRIPOS>BOND
     1    1    2 ar 
     2    1    6 ar 
     3    1   22 1  
     4    2    3 ar 
     5    3    4 ar 
     6    4    5 ar 
     7    4    7 1  
     8    5    6 ar 
     9    5   11 1  
    10    7    8 2  
    11    8    9 1  
    12    9   10 ar 
    13    9   12 ar 
    14   10   11 1  
    15   10   15 ar 
    16   11   19 2  
    17   12   13 ar 
    18   13   14 ar 
    19   14   15 ar 
    20   14   16 1  
    21   16   17 1  
    22   17   18 am 
    23   17   20 2  
    24   17   21 2  
    25   18   27 1  
    26   22   23 2  
    27   22   26 1  
    28   23   24 1  
    29   24   25 1  
    30   24   34 1  
    31   25   26 2  
    32   27   28 1  
    33   28   29 ar 
    34   28   33 ar 
    35   29   30 ar 
    36   30   31 ar 
    37   31   32 ar 
    38   32   33 ar 
    39   34   35 1  
    40   34   39 1  
    41   35   36 1  
    42   36   37 1  
    43   37   38 1  
    44   38   39 1  
    45    2   40 1  
    46    6   41 1  
    47    7   42 1  
    48    8   43 1  
    49   12   44 1  
    50   13   45 1  
    51   15   46 1  
    52   16   47 1  
    53   16   48 1  
    54   18   49 1  
    55   23   50 1  
    56   26   51 1  
    57   27   52 1  
    58   27   53 1  
    59   30   54 1  
    60   31   55 1  
    61   32   56 1  
    62   33   57 1  
    63   34   58 1  
    64   35   59 1  
    65   35   60 1  
    66   36   61 1  
    67   36   62 1  
    68   37   63 1  
    69   37   64 1  
    70   38   65 1  
    71   38   66 1  
    72   39   67 1  
    73   39   68 1  
@<TRIPOS>SUBSTRUCTURE
     1 1JC         1

