### 
### Created by X-TOOL on Mon Sep 10 21:13:12 2018
### 

@<TRIPOS>MOLECULE
4iwz_ligand
   26    27     1     0     0
SMALL
GAST_HUCK


@<TRIPOS>ATOM
      1 C10        15.9710    6.2210   13.0720 C.2       1 1GO         0.2286
      2 C13        15.1750    7.6390   11.2450 C.2       1 1GO         0.0314
      3 C15        13.2450    8.4180   10.2330 C.2       1 1GO        -0.0924
      4 N01        15.8180   -0.2890   16.0430 N.am      1 1GO        -0.2565
      5 S02        15.3360    1.1360   16.6710 S.o2      1 1GO         0.0991
      6 O03        15.7240    1.2590   18.0630 O.2       1 1GO        -0.1452
      7 O04        13.9090    1.3420   16.5480 O.2       1 1GO        -0.1452
      8 C05        16.0920    2.4190   15.7700 C.2       1 1GO         0.2562
      9 N06        17.4180    2.5520   15.6450 N.2       1 1GO        -0.2476
     10 N07        17.8030    3.6070   14.9020 N.2       1 1GO        -0.2573
     11 C08        16.8150    4.3570   14.4170 C.2       1 1GO         0.2254
     12 N09        17.0590    5.5030   13.6130 N.am      1 1GO        -0.1904
     13 O11        14.8110    5.9000   13.2790 O.2       1 1GO        -0.3767
     14 C12        16.2430    7.4000   12.2370 C.3       1 1GO         0.0897
     15 C14        14.0220    8.4220   11.3860 C.2       1 1GO        -0.0791
     16 C16        13.7180    7.6560    9.1740 C.2       1 1GO        -0.0189
     17 S17        15.1940    6.9450    9.6850 S.3       1 1GO        -0.0419
     18 S18        15.3030    3.6880   14.9170 S.3       1 1GO         0.0874
     19 H1         12.3160    8.9820   10.1647 H         1 1GO         0.0373
     20 H2         16.7842   -0.5454   16.0685 H         1 1GO         0.1638
     21 H3         15.1474   -0.9068   15.6322 H         1 1GO         0.1638
     22 H4         17.9967    5.7992   13.4315 H         1 1GO         0.2412
     23 H5         17.1930    7.2455   11.7045 H         1 1GO         0.0693
     24 H6         16.3265    8.2832   12.8874 H         1 1GO         0.0693
     25 H7         13.7647    8.9692   12.2917 H         1 1GO         0.0284
     26 H8         13.2424    7.5325    8.2022 H         1 1GO         0.0603
@<TRIPOS>BOND
     1   12    1 am 
     2    1   13 2  
     3    1   14 1  
     4   14    2 1  
     5    2   15 2  
     6    2   17 1  
     7   15    3 1  
     8    3   16 2  
     9    5    4 am 
    10    5    6 2  
    11    5    7 2  
    12    8    5 1  
    13    9    8 2  
    14    8   18 1  
    15   10    9 1  
    16   11   10 2  
    17   11   12 1  
    18   11   18 1  
    19   16   17 1  
    20    3   19 1  
    21    4   20 1  
    22    4   21 1  
    23   12   22 1  
    24   14   23 1  
    25   14   24 1  
    26   15   25 1  
    27   16   26 1  
@<TRIPOS>SUBSTRUCTURE
     1 1GO         1

