### 
### Created by X-TOOL on Mon Sep 10 21:13:12 2018
### 

@<TRIPOS>MOLECULE
4ixh_ligand
   50    54     1     0     0
SMALL
GAST_HUCK


@<TRIPOS>ATOM
      1 O2         18.0730  -24.8320   12.7250 O.2       1 Q21        -0.3827
      2 C13        18.1760  -24.2280   11.6700 C.2       1 Q21         0.2353
      3 C14        17.0990  -24.3990   10.6380 C.3       1 Q21         0.1737
      4 C15        15.9150  -23.5140   11.0030 C.3       1 Q21        -0.0157
      5 O3         16.6620  -25.7590   10.6190 O.3       1 Q21        -0.2892
      6 C16        17.4130  -26.7340   10.0130 C.ar      1 Q21         0.1079
      7 C17        18.4890  -26.4050    9.1940 C.ar      1 Q21        -0.0338
      8 C18        19.2460  -27.4080    8.6000 C.ar      1 Q21        -0.0744
      9 C19        18.9290  -28.7450    8.8290 C.ar      1 Q21        -0.0685
     10 C21        17.0960  -28.0650   10.2350 C.ar      1 Q21         0.0180
     11 C46        16.0190  -28.3840   11.0550 C.ar      1 Q21        -0.0532
     12 C45        15.7030  -29.7210   11.2750 C.ar      1 Q21        -0.0633
     13 C44        16.4540  -30.7290   10.6790 C.ar      1 Q21        -0.0640
     14 C43        17.5320  -30.4110    9.8640 C.ar      1 Q21        -0.0587
     15 C20        17.8500  -29.0750    9.6410 C.ar      1 Q21        -0.0261
     16 N3         19.1830  -23.4060   11.3350 N.am      1 Q21        -0.2372
     17 C10        20.2720  -23.0920   12.0910 C.ar      1 Q21         0.0546
     18 C11        21.2360  -22.2830   11.4940 C.ar      1 Q21        -0.0471
     19 C12        22.3910  -21.8980   12.1720 C.ar      1 Q21        -0.0357
     20 C7         22.5560  -22.3460   13.4720 C.ar      1 Q21         0.1332
     21 C8         21.6210  -23.1510   14.0870 C.ar      1 Q21         0.0393
     22 C9         20.4670  -23.5350   13.4110 C.ar      1 Q21        -0.0378
     23 O1         23.5750  -22.0880   14.2650 O.3       1 Q21        -0.2259
     24 C1         23.3390  -22.7260   15.4590 C.2       1 Q21         0.2097
     25 N1         22.1380  -23.3700   15.3260 N.2       1 Q21        -0.2861
     26 C2         24.1450  -22.7290   16.5950 C.ar      1 Q21         0.0644
     27 C3         23.7420  -23.4440   17.7250 C.ar      1 Q21        -0.0163
     28 C4         24.5510  -23.4460   18.8580 C.ar      1 Q21         0.0151
     29 N2         25.7060  -22.7670   18.8640 N.ar      1 Q21        -0.2940
     30 C5         26.1140  -22.0740   17.7860 C.ar      1 Q21         0.0151
     31 C6         25.3520  -22.0360   16.6210 C.ar      1 Q21        -0.0163
     32 H1         17.4861  -24.1179    9.6475 H         1 Q21         0.0902
     33 H2         15.1216  -23.6343   10.2506 H         1 Q21         0.0284
     34 H3         16.2377  -22.4628   11.0306 H         1 Q21         0.0284
     35 H4         15.5302  -23.8055   11.9914 H         1 Q21         0.0284
     36 H5         18.7372  -25.3644    9.0190 H         1 Q21         0.0499
     37 H6         20.0817  -27.1502    7.9596 H         1 Q21         0.0581
     38 H7         19.5240  -29.5285    8.3738 H         1 Q21         0.0493
     39 H8         15.4318  -27.5991   11.5179 H         1 Q21         0.0631
     40 H9         14.8666  -29.9788   11.9146 H         1 Q21         0.0591
     41 H10        16.1963  -31.7677   10.8518 H         1 Q21         0.0614
     42 H11        18.1210  -31.1970    9.4053 H         1 Q21         0.0599
     43 H12        19.1279  -22.9778   10.4330 H         1 Q21         0.2226
     44 H13        21.0838  -21.9441   10.4756 H         1 Q21         0.0479
     45 H14        23.1355  -21.2688   11.6977 H         1 Q21         0.0542
     46 H15        19.7299  -24.1658   13.8945 H         1 Q21         0.0423
     47 H16        22.8072  -23.9928   17.7199 H         1 Q21         0.0754
     48 H17        24.2453  -23.9991   19.7387 H         1 Q21         0.0831
     49 H18        27.0536  -21.5349   17.8247 H         1 Q21         0.0831
     50 H19        25.6909  -21.4797   15.7545 H         1 Q21         0.0754
@<TRIPOS>BOND
     1    1    2 2  
     2    2    3 1  
     3    2   16 am 
     4    3    4 1  
     5    3    5 1  
     6    5    6 1  
     7    6    7 ar 
     8    6   10 ar 
     9    7    8 ar 
    10    8    9 ar 
    11    9   15 ar 
    12   10   11 ar 
    13   10   15 ar 
    14   11   12 ar 
    15   12   13 ar 
    16   13   14 ar 
    17   14   15 ar 
    18   16   17 1  
    19   17   18 ar 
    20   17   22 ar 
    21   18   19 ar 
    22   19   20 ar 
    23   20   21 ar 
    24   20   23 1  
    25   21   22 ar 
    26   21   25 1  
    27   23   24 1  
    28   24   25 2  
    29   24   26 1  
    30   26   27 ar 
    31   26   31 ar 
    32   27   28 ar 
    33   28   29 ar 
    34   29   30 ar 
    35   30   31 ar 
    36    3   32 1  
    37    4   33 1  
    38    4   34 1  
    39    4   35 1  
    40    7   36 1  
    41    8   37 1  
    42    9   38 1  
    43   11   39 1  
    44   12   40 1  
    45   13   41 1  
    46   14   42 1  
    47   16   43 1  
    48   18   44 1  
    49   19   45 1  
    50   22   46 1  
    51   27   47 1  
    52   28   48 1  
    53   30   49 1  
    54   31   50 1  
@<TRIPOS>SUBSTRUCTURE
     1 Q21         1

