### 
### Created by X-TOOL on Mon Sep 10 21:13:16 2018
### 

@<TRIPOS>MOLECULE
4iz0_ligand
   26    27     1     0     0
SMALL
GAST_HUCK


@<TRIPOS>ATOM
      1 C1        -26.2520   53.8740   56.1970 C.ar      1 2BI         0.1277
      2 C2        -25.5930   55.1020   56.3040 C.ar      1 2BI         0.0680
      3 C3        -24.2560   55.2090   55.8910 C.ar      1 2BI        -0.0315
      4 C4        -23.5810   54.0970   55.3780 C.ar      1 2BI         0.0549
      5 C5        -24.2420   52.8690   55.2730 C.ar      1 2BI         0.0563
      6 C6        -25.5730   52.7570   55.6840 C.ar      1 2BI        -0.0198
      7 S7        -27.9250   53.6700   56.7220 S.o2      1 2BI         0.0872
      8 O8        -28.7770   54.4280   55.8240 O.2       1 2BI        -0.1454
      9 O9        -27.9830   53.9470   58.1500 O.2       1 2BI        -0.1454
     10 N10       -28.1980   52.0540   56.5260 N.am      1 2BI        -0.1896
     11 C11       -28.4980   51.4470   55.3270 C.2       1 2BI         0.1079
     12 N12       -28.3520   50.1220   55.1790 N.2       1 2BI        -0.1754
     13 O13       -28.7330   49.8450   53.8680 O.3       1 2BI        -0.1963
     14 C14       -29.0990   51.0020   53.2540 C.2       1 2BI         0.1223
     15 C15       -28.9670   52.0420   54.1360 C.2       1 2BI        -0.0152
     16 C16       -29.5320   50.8910   51.8500 C.3       1 2BI         0.0069
     17 CL7       -26.3270   56.5480   56.8980 Cl        1 2BI        -0.0684
     18 CL8       -21.9380   54.3070   54.8910 Cl        1 2BI        -0.0700
     19 CL9       -23.4700   51.4560   54.6490 Cl        1 2BI        -0.0697
     20 H1        -23.7429   56.1606   55.9703 H         1 2BI         0.0630
     21 H2        -26.0834   51.8038   55.6065 H         1 2BI         0.0643
     22 H3        -28.1413   51.4729   57.3379 H         1 2BI         0.2097
     23 H4        -29.1775   53.0955   53.9576 H         1 2BI         0.0238
     24 H5        -29.7999   51.8876   51.4691 H         1 2BI         0.0449
     25 H6        -30.4069   50.2272   51.7875 H         1 2BI         0.0449
     26 H7        -28.7125   50.4755   51.2453 H         1 2BI         0.0449
@<TRIPOS>BOND
     1    1    2 ar 
     2    1    6 ar 
     3    1    7 1  
     4    2    3 ar 
     5    2   17 1  
     6    3    4 ar 
     7    4    5 ar 
     8    4   18 1  
     9    5    6 ar 
    10    5   19 1  
    11    7    8 2  
    12    7    9 2  
    13    7   10 am 
    14   10   11 1  
    15   11   12 2  
    16   11   15 1  
    17   12   13 1  
    18   13   14 1  
    19   14   15 2  
    20   14   16 1  
    21    3   20 1  
    22    6   21 1  
    23   10   22 1  
    24   15   23 1  
    25   16   24 1  
    26   16   25 1  
    27   16   26 1  
@<TRIPOS>SUBSTRUCTURE
     1 2BI         1

