### 
### Created by X-TOOL on Mon Sep 10 21:13:16 2018
### 

@<TRIPOS>MOLECULE
4izm_ligand
   15    14     1     0     0
SMALL
GAST_HUCK


@<TRIPOS>ATOM
      1 N           7.3050   -6.8600    6.7190 N.4       1 ASP         0.2339
      2 CA          7.3290   -8.1590    7.4500 C.3       1 ASP         0.0398
      3 C           8.1570   -8.0810    8.7310 C.2       1 ASP         0.0862
      4 O           8.0290   -8.9200    9.6280 O.co2     1 ASP        -0.5642
      5 CB          7.8550   -9.2740    6.5440 C.3       1 ASP         0.0552
      6 CG          6.8340   -9.7180    5.5190 C.2       1 ASP         0.0419
      7 OD1         6.8760   -9.2090    4.3810 O.co2     1 ASP        -0.5687
      8 OD2         5.9630  -10.5460    5.8590 O.co2     1 ASP        -0.5687
      9 OXT         8.9650   -7.1690    8.9110 O.co2     1 ASP        -0.5642
     10 H1          6.7499   -6.9551    5.8830 H         1 ASP         0.2011
     11 H2          8.2457   -6.5974    6.4696 H         1 ASP         0.2011
     12 H3          6.9032   -6.1492    7.3100 H         1 ASP         0.2011
     13 H4          6.2947   -8.4057    7.7317 H         1 ASP         0.1043
     14 H5          8.1262  -10.1378    7.1688 H         1 ASP         0.0505
     15 H6          8.7482   -8.9081    6.0165 H         1 ASP         0.0505
@<TRIPOS>BOND
     1    1    2 1  
     2    2    3 1  
     3    2    5 1  
     4    3    4 ar 
     5    3    9 ar 
     6    5    6 1  
     7    6    7 ar 
     8    6    8 ar 
     9    1   10 1  
    10    1   11 1  
    11    1   12 1  
    12    2   13 1  
    13    5   14 1  
    14    5   15 1  
@<TRIPOS>SUBSTRUCTURE
     1 ASP         1

