### 
### Created by X-TOOL on Mon Sep 10 21:13:15 2018
### 

@<TRIPOS>MOLECULE
4izy_ligand
   64    68     1     0     0
SMALL
GAST_HUCK


@<TRIPOS>ATOM
      1 N1        -12.8530   11.1450  -18.2320 N.ar      1 1J2        -0.2674
      2 C2        -12.1860   10.6390  -19.2580 C.ar      1 1J2         0.1805
      3 N3        -12.5180    9.4570  -19.7740 N.ar      1 1J2        -0.2275
      4 C4        -13.5410    8.7360  -19.2950 C.ar      1 1J2         0.1641
      5 C5        -14.2520    9.2410  -18.1980 C.ar      1 1J2         0.0076
      6 C6        -13.8800   10.4770  -17.6930 C.ar      1 1J2         0.0053
      7 N7        -13.8620    7.4820  -19.8350 N.pl3     1 1J2        -0.2103
      8 C8        -14.7660    5.4490  -19.9270 C.2       1 1J2        -0.0620
      9 C9        -14.6440    6.5570  -19.1840 C.2       1 1J2         0.0393
     10 C10       -13.9960    5.6580  -21.1600 C.ar      1 1J2         0.0010
     11 C11       -13.4450    6.9550  -21.0490 C.ar      1 1J2         0.0766
     12 C12       -12.6520    7.4410  -22.0920 C.ar      1 1J2        -0.0530
     13 C13       -12.4140    6.6560  -23.2050 C.ar      1 1J2        -0.0881
     14 C14       -12.9520    5.3710  -23.3100 C.ar      1 1J2        -0.0598
     15 C15       -13.7500    4.8520  -22.2960 C.ar      1 1J2         0.0337
     16 N16       -14.3100    3.5500  -22.3910 N.pl3     1 1J2        -0.3105
     17 N17       -11.1270   11.3540  -19.7940 N.pl3     1 1J2        -0.2881
     18 C18       -10.2970   10.7570  -20.8520 C.3       1 1J2         0.0419
     19 C19        -9.2290    9.8420  -20.2290 C.3       1 1J2        -0.0273
     20 C20        -8.3150    9.2560  -21.3140 C.3       1 1J2        -0.0247
     21 C21        -7.6740   10.3740  -22.1460 C.3       1 1J2         0.0554
     22 C22        -8.7600   11.2550  -22.7690 C.3       1 1J2        -0.0247
     23 C23        -9.6420   11.8730  -21.6770 C.3       1 1J2        -0.0273
     24 O24        -6.9330    9.7520  -23.1920 O.3       1 1J2        -0.3918
     25 C25       -14.3770    2.9510  -23.7460 C.3       1 1J2         0.0287
     26 C26       -15.4560    1.8600  -23.7380 C.3       1 1J2        -0.0108
     27 C27       -15.1050    0.7980  -22.6750 C.3       1 1J2         0.0802
     28 C28       -14.9240    1.4650  -21.2930 C.3       1 1J2        -0.0108
     29 C29       -13.8610    2.5770  -21.3760 C.3       1 1J2         0.0287
     30 S30       -16.3770   -0.5160  -22.6330 S.o2      1 1J2        -0.0309
     31 O31       -17.5430   -0.0820  -21.9320 O.2       1 1J2        -0.1743
     32 O32       -16.5330   -1.0260  -23.9560 O.2       1 1J2        -0.1743
     33 C33       -15.5400   -1.7900  -21.6320 C.3       1 1J2         0.0548
     34 H1        -15.0690    8.6813  -17.7573 H         1 1J2         0.0617
     35 H2        -14.4231   10.9045  -16.8579 H         1 1J2         0.0861
     36 H3        -15.3324    4.5567  -19.6647 H         1 1J2         0.0309
     37 H4        -15.0986    6.7040  -18.2054 H         1 1J2         0.0903
     38 H5        -12.2230    8.4345  -22.0284 H         1 1J2         0.0433
     39 H6        -11.7998    7.0441  -24.0095 H         1 1J2         0.0503
     40 H7        -12.7455    4.7728  -24.1901 H         1 1J2         0.0400
     41 H8        -10.9209   12.3034  -19.4518 H         1 1J2         0.1864
     42 H9        -10.9372   10.1545  -21.5132 H         1 1J2         0.0560
     43 H10        -9.7261    9.0199  -19.6933 H         1 1J2         0.0289
     44 H11        -8.6214   10.4259  -19.5220 H         1 1J2         0.0289
     45 H12        -8.9094    8.6090  -21.9759 H         1 1J2         0.0291
     46 H13        -7.5221    8.6620  -20.8359 H         1 1J2         0.0291
     47 H14        -7.0114   10.9850  -21.5154 H         1 1J2         0.0593
     48 H15        -9.3849   10.6425  -23.4355 H         1 1J2         0.0291
     49 H16        -8.2848   12.0598  -23.3490 H         1 1J2         0.0291
     50 H17        -9.0235   12.5004  -21.0184 H         1 1J2         0.0289
     51 H18       -10.4237   12.4904  -22.1436 H         1 1J2         0.0289
     52 H19        -6.2558    9.2025  -22.8153 H         1 1J2         0.2098
     53 H20       -13.4037    2.5094  -24.0060 H         1 1J2         0.0516
     54 H21       -14.6368    3.7255  -24.4826 H         1 1J2         0.0516
     55 H22       -15.5046    1.3849  -24.7289 H         1 1J2         0.0303
     56 H23       -16.4308    2.3100  -23.4989 H         1 1J2         0.0303
     57 H24       -14.1482    0.3336  -22.9558 H         1 1J2         0.0537
     58 H25       -14.6018    0.7078  -20.5631 H         1 1J2         0.0303
     59 H26       -15.8815    1.9005  -20.9712 H         1 1J2         0.0303
     60 H27       -13.7606    3.0733  -20.3995 H         1 1J2         0.0516
     61 H28       -12.8919    2.1480  -21.6707 H         1 1J2         0.0516
     62 H29       -16.2018   -2.6615  -21.5198 H         1 1J2         0.0464
     63 H30       -15.3031   -1.3794  -20.6394 H         1 1J2         0.0464
     64 H31       -14.6103   -2.0977  -22.1330 H         1 1J2         0.0464
@<TRIPOS>BOND
     1    1    2 ar 
     2    1    6 ar 
     3    2    3 ar 
     4    2   17 1  
     5    3    4 ar 
     6    4    5 ar 
     7    4    7 1  
     8    5    6 ar 
     9    7    9 1  
    10    7   11 1  
    11    9    8 2  
    12    8   10 1  
    13   10   11 ar 
    14   10   15 ar 
    15   11   12 ar 
    16   12   13 ar 
    17   13   14 ar 
    18   14   15 ar 
    19   15   16 1  
    20   16   25 1  
    21   16   29 1  
    22   17   18 1  
    23   18   19 1  
    24   18   23 1  
    25   19   20 1  
    26   20   21 1  
    27   21   22 1  
    28   21   24 1  
    29   22   23 1  
    30   25   26 1  
    31   26   27 1  
    32   27   28 1  
    33   27   30 1  
    34   28   29 1  
    35   30   31 2  
    36   30   32 2  
    37   30   33 1  
    38    5   34 1  
    39    6   35 1  
    40    8   36 1  
    41    9   37 1  
    42   12   38 1  
    43   13   39 1  
    44   14   40 1  
    45   17   41 1  
    46   18   42 1  
    47   19   43 1  
    48   19   44 1  
    49   20   45 1  
    50   20   46 1  
    51   21   47 1  
    52   22   48 1  
    53   22   49 1  
    54   23   50 1  
    55   23   51 1  
    56   24   52 1  
    57   25   53 1  
    58   25   54 1  
    59   26   55 1  
    60   26   56 1  
    61   27   57 1  
    62   28   58 1  
    63   28   59 1  
    64   29   60 1  
    65   29   61 1  
    66   33   62 1  
    67   33   63 1  
    68   33   64 1  
@<TRIPOS>SUBSTRUCTURE
     1 1J2         1

