### 
### Created by X-TOOL on Mon Sep 10 21:13:14 2018
### 

@<TRIPOS>MOLECULE
4j03_ligand
   89    92     1     0     0
SMALL
GAST_HUCK


@<TRIPOS>ATOM
      1 FAE        20.6950    8.1010   11.9250 F         1 FVS        -0.1650
      2 CBM        19.5470    8.2100   12.5080 C.3       1 FVS         0.4538
      3 FAF        19.7410    8.2320   13.7950 F         1 FVS        -0.1650
      4 FAG        18.7700    7.1230   12.1550 F         1 FVS        -0.1650
      5 CBO        18.8750    9.5230   12.0650 C.3       1 FVS         0.3417
      6 FAH        18.7340    9.4830   10.7490 F         1 FVS        -0.1958
      7 FAI        19.6540   10.5430   12.4230 F         1 FVS        -0.1958
      8 CBA        17.4960    9.6940   12.6750 C.3       1 FVS         0.0223
      9 CAT        17.6630   10.7150   13.7930 C.3       1 FVS        -0.0170
     10 CAY        16.2720   10.8330   14.4660 C.3       1 FVS         0.0996
     11 SBI        16.5910   11.3090   16.3280 S.3       1 FVS         0.1459
     12 OAB        17.1260   10.0160   16.9300 O.3       1 FVS        -0.1240
     13 CAX        14.8130   11.4720   17.0650 C.3       1 FVS         0.0994
     14 CAS        15.2740   12.2480   18.3010 C.3       1 FVS        -0.0227
     15 CAQ        14.2980   12.2020   19.4840 C.3       1 FVS        -0.0506
     16 CAO        12.8470   12.1800   19.0390 C.3       1 FVS        -0.0530
     17 CAM        12.5170   10.7330   18.6470 C.3       1 FVS        -0.0531
     18 CAN        11.2430   10.2770   19.3450 C.3       1 FVS        -0.0531
     19 CAP        11.6370   10.1520   20.7930 C.3       1 FVS        -0.0530
     20 CAR        10.6950    9.1110   21.3860 C.3       1 FVS        -0.0527
     21 CAU        11.4950    8.4970   22.5320 C.3       1 FVS        -0.0482
     22 CBH        10.8960    9.0750   23.8200 C.3       1 FVS        -0.0277
     23 CBN         9.4320    8.6430   24.2910 C.3       1 FVS        -0.0231
     24 CBK         8.7900    7.2980   23.8060 C.3       1 FVS        -0.0283
     25 CAZ         8.7070    6.9700   22.3000 C.3       1 FVS        -0.0469
     26 CAV         7.5620    5.9560   22.1930 C.3       1 FVS        -0.0261
     27 CBG         6.8520    5.9890   23.5530 C.3       1 FVS         0.0609
     28 OAD         5.4270    5.9160   23.3600 O.3       1 FVS        -0.3912
     29 CBL         7.2890    7.3250   24.1770 C.3       1 FVS        -0.0027
     30 CAA         6.4930    8.4940   23.5390 C.3       1 FVS        -0.0569
     31 CBC         7.0980    7.3100   25.6690 C.3       1 FVS        -0.0433
     32 CBB         7.9200    8.4720   26.3290 C.3       1 FVS        -0.0420
     33 CBJ         9.3930    8.5300   25.8470 C.3       1 FVS        -0.0113
     34 CBF        10.1740    9.5710   26.4150 C.ar      1 FVS        -0.0484
     35 CAK         9.7340   10.4480   27.4110 C.ar      1 FVS        -0.0749
     36 CAJ        10.6010   11.4310   27.8890 C.ar      1 FVS        -0.0468
     37 CBD        11.8980   11.5520   27.3890 C.ar      1 FVS         0.0739
     38 OAC        12.7370   12.5090   27.8490 O.3       1 FVS        -0.3393
     39 CAL        12.3440   10.6900   26.4050 C.ar      1 FVS        -0.0385
     40 CBE        11.4840    9.7010   25.9440 C.ar      1 FVS        -0.0488
     41 CAW        11.8940    8.8410   24.9490 C.3       1 FVS        -0.0207
     42 H1         17.1346    8.7374   13.0803 H         1 FVS         0.0326
     43 H2         16.7862   10.0642   11.9206 H         1 FVS         0.0326
     44 H3         17.9734   11.6868   13.3815 H         1 FVS         0.0294
     45 H4         18.4123   10.3684   14.5199 H         1 FVS         0.0294
     46 H5         15.7389    9.8727   14.4060 H         1 FVS         0.0637
     47 H6         15.6764   11.6145   13.9715 H         1 FVS         0.0637
     48 H7         16.4748    9.3308   16.8355 H         1 FVS         0.4476
     49 H8         14.3558   10.5018   17.3095 H         1 FVS         0.0637
     50 H9         14.1301   12.0478   16.4231 H         1 FVS         0.0637
     51 H10        15.4147   13.3002   18.0129 H         1 FVS         0.0292
     52 H11        16.2347   11.8268   18.6321 H         1 FVS         0.0292
     53 H12        14.4613   13.0909   20.1110 H         1 FVS         0.0266
     54 H13        14.5001   11.2954   20.0732 H         1 FVS         0.0266
     55 H14        12.7072   12.8462   18.1749 H         1 FVS         0.0265
     56 H15        12.1947   12.5059   19.8626 H         1 FVS         0.0265
     57 H16        13.3487   10.0773   18.9441 H         1 FVS         0.0265
     58 H17        12.3753   10.6749   17.5577 H         1 FVS         0.0265
     59 H18        10.9063    9.3081   18.9477 H         1 FVS         0.0265
     60 H19        10.4430   11.0219   19.2217 H         1 FVS         0.0265
     61 H20        11.5167   11.1164   21.3083 H         1 FVS         0.0265
     62 H21        12.6815    9.8180   20.8792 H         1 FVS         0.0265
     63 H22        10.4354    8.3476   20.6378 H         1 FVS         0.0265
     64 H23         9.7757    9.5845   21.7610 H         1 FVS         0.0265
     65 H24        12.5569    8.7713   22.4473 H         1 FVS         0.0270
     66 H25        11.3974    7.4014   22.5228 H         1 FVS         0.0270
     67 H26        10.8340   10.1604   23.6526 H         1 FVS         0.0325
     68 H27         8.7615    9.4530   23.9681 H         1 FVS         0.0329
     69 H28         9.3156    6.4786   24.3181 H         1 FVS         0.0311
     70 H29         9.6507    6.5303   21.9448 H         1 FVS         0.0269
     71 H30         8.4814    7.8747   21.7164 H         1 FVS         0.0269
     72 H31         7.9580    4.9498   21.9911 H         1 FVS         0.0290
     73 H32         6.8674    6.2446   21.3904 H         1 FVS         0.0290
     74 H33         7.1760    5.1485   24.1843 H         1 FVS         0.0599
     75 H34         4.9927    5.9368   24.2047 H         1 FVS         0.2098
     76 H35         6.8121    9.4446   23.9912 H         1 FVS         0.0236
     77 H36         5.4177    8.3458   23.7174 H         1 FVS         0.0236
     78 H37         6.6849    8.5204   22.4562 H         1 FVS         0.0236
     79 H38         7.4438    6.3461   26.0705 H         1 FVS         0.0273
     80 H39         6.0308    7.4421   25.9006 H         1 FVS         0.0273
     81 H40         7.9147    8.3282   27.4195 H         1 FVS         0.0286
     82 H41         7.4339    9.4275   26.0827 H         1 FVS         0.0286
     83 H42         9.8642    7.5785   26.1345 H         1 FVS         0.0429
     84 H43         8.7288   10.3650   27.8081 H         1 FVS         0.0511
     85 H44        10.2615   12.1117   28.6613 H         1 FVS         0.0468
     86 H45        13.5704   12.4413   27.3981 H         1 FVS         0.2457
     87 H46        13.3454   10.7838   26.0007 H         1 FVS         0.0462
     88 H47        12.9165    9.0812   24.6223 H         1 FVS         0.0413
     89 H48        11.8550    7.7974   25.2945 H         1 FVS         0.0413
@<TRIPOS>BOND
     1    1    2 1  
     2    2    3 1  
     3    2    4 1  
     4    2    5 1  
     5    5    6 1  
     6    5    7 1  
     7    5    8 1  
     8    8    9 1  
     9    9   10 1  
    10   10   11 1  
    11   11   12 1  
    12   11   13 1  
    13   13   14 1  
    14   14   15 1  
    15   15   16 1  
    16   16   17 1  
    17   17   18 1  
    18   18   19 1  
    19   19   20 1  
    20   20   21 1  
    21   21   22 1  
    22   22   23 1  
    23   22   41 1  
    24   23   24 1  
    25   23   33 1  
    26   24   25 1  
    27   24   29 1  
    28   25   26 1  
    29   26   27 1  
    30   27   28 1  
    31   27   29 1  
    32   29   30 1  
    33   29   31 1  
    34   31   32 1  
    35   32   33 1  
    36   33   34 1  
    37   34   35 ar 
    38   34   40 ar 
    39   35   36 ar 
    40   36   37 ar 
    41   37   38 1  
    42   37   39 ar 
    43   39   40 ar 
    44   40   41 1  
    45    8   42 1  
    46    8   43 1  
    47    9   44 1  
    48    9   45 1  
    49   10   46 1  
    50   10   47 1  
    51   12   48 1  
    52   13   49 1  
    53   13   50 1  
    54   14   51 1  
    55   14   52 1  
    56   15   53 1  
    57   15   54 1  
    58   16   55 1  
    59   16   56 1  
    60   17   57 1  
    61   17   58 1  
    62   18   59 1  
    63   18   60 1  
    64   19   61 1  
    65   19   62 1  
    66   20   63 1  
    67   20   64 1  
    68   21   65 1  
    69   21   66 1  
    70   22   67 1  
    71   23   68 1  
    72   24   69 1  
    73   25   70 1  
    74   25   71 1  
    75   26   72 1  
    76   26   73 1  
    77   27   74 1  
    78   28   75 1  
    79   30   76 1  
    80   30   77 1  
    81   30   78 1  
    82   31   79 1  
    83   31   80 1  
    84   32   81 1  
    85   32   82 1  
    86   33   83 1  
    87   35   84 1  
    88   36   85 1  
    89   38   86 1  
    90   39   87 1  
    91   41   88 1  
    92   41   89 1  
@<TRIPOS>SUBSTRUCTURE
     1 FVS         1

