### 
### Created by X-TOOL on Mon Sep 10 21:13:15 2018
### 

@<TRIPOS>MOLECULE
4j04_ligand
   29    30     1     0     0
SMALL
GAST_HUCK


@<TRIPOS>ATOM
      1 C1        -26.0080   53.8700   56.0970 C.ar      1 1JF         0.1288
      2 C2        -25.3090   55.1210   56.1690 C.ar      1 1JF         0.0681
      3 C3        -23.9330   55.1850   55.7760 C.ar      1 1JF        -0.0315
      4 C4        -23.2440   54.0250   55.3100 C.ar      1 1JF         0.0549
      5 C5        -23.9440   52.7740   55.2360 C.ar      1 1JF         0.0563
      6 C6        -25.3040   52.7100   55.6260 C.ar      1 1JF        -0.0197
      7 S7        -27.7210   53.6340   56.5550 S.o2      1 1JF         0.0910
      8 O8        -28.6090   54.2030   55.5630 O.2       1 1JF        -0.1443
      9 O9        -27.8370   54.1940   57.8990 O.2       1 1JF        -0.1443
     10 N10       -27.9270   51.9540   56.7200 N.am      1 1JF        -0.1835
     11 C11       -28.4780   51.0540   55.7190 C.ar      1 1JF         0.0783
     12 C12       -29.0500   49.7890   56.0880 C.ar      1 1JF         0.0262
     13 C13       -29.5730   48.9270   55.0760 C.ar      1 1JF        -0.0629
     14 C14       -29.5380   49.3050   53.7110 C.ar      1 1JF        -0.0615
     15 C15       -28.9810   50.5480   53.3390 C.ar      1 1JF         0.0277
     16 C16       -28.4490   51.4270   54.3270 C.ar      1 1JF        -0.0276
     17 CL1       -25.9790   56.6230   56.7050 Cl        1 1JF        -0.0684
     18 CL2       -21.5790   54.2180   54.8620 Cl        1 1JF        -0.0700
     19 CL3       -23.2310   51.2940   54.6910 Cl        1 1JF        -0.0697
     20 C20       -29.1180   49.3490   57.4860 C.2       1 1JF         0.0532
     21 O21       -30.1470   49.1900   58.1280 O.co2     1 1JF        -0.5662
     22 O22       -27.8940   49.1340   58.0010 O.co2     1 1JF        -0.5662
     23 CL4       -28.9590   50.9900   51.6790 Cl        1 1JF        -0.0729
     24 H1        -23.4060   56.1305   55.8335 H         1 1JF         0.0630
     25 H2        -25.8266   51.7621   55.5676 H         1 1JF         0.0643
     26 H3        -27.6423   51.5462   57.5875 H         1 1JF         0.2185
     27 H4        -30.0020   47.9717   55.3560 H         1 1JF         0.0606
     28 H5        -29.9382   48.6410   52.9534 H         1 1JF         0.0486
     29 H6        -28.0216   52.3782   54.0308 H         1 1JF         0.0495
@<TRIPOS>BOND
     1    1    2 ar 
     2    1    6 ar 
     3    1    7 1  
     4    2    3 ar 
     5    2   17 1  
     6    3    4 ar 
     7    4    5 ar 
     8    4   18 1  
     9    5    6 ar 
    10    5   19 1  
    11    7    8 2  
    12    7    9 2  
    13    7   10 am 
    14   10   11 1  
    15   11   12 ar 
    16   11   16 ar 
    17   12   13 ar 
    18   12   20 1  
    19   13   14 ar 
    20   14   15 ar 
    21   15   16 ar 
    22   15   23 1  
    23   20   21 ar 
    24   20   22 ar 
    25    3   24 1  
    26    6   25 1  
    27   10   26 1  
    28   13   27 1  
    29   14   28 1  
    30   16   29 1  
@<TRIPOS>SUBSTRUCTURE
     1 1JF         1

