### 
### Created by X-TOOL on Mon Sep 10 21:13:15 2018
### 

@<TRIPOS>MOLECULE
4j06_ligand
   26    27     1     0     0
SMALL
GAST_HUCK


@<TRIPOS>ATOM
      1 BR1       -29.1220   50.8100   51.6650 Br        1 1JG        -0.0422
      2 S2        -28.3560   51.5150   54.6230 S.3       1 1JG        -0.0101
      3 C3        -28.8730   50.3760   53.4720 C.2       1 1JG         0.0651
      4 C4        -29.0870   49.1260   53.9560 C.2       1 1JG        -0.0662
      5 C5        -28.8160   49.0680   55.3400 C.2       1 1JG        -0.0453
      6 C6        -28.4060   50.2890   55.8490 C.2       1 1JG         0.1705
      7 S7        -27.9300   50.7730   57.4920 S.o2      1 1JG         0.1015
      8 O8        -28.6450   49.8510   58.3690 O.2       1 1JG        -0.1432
      9 O9        -28.2780   52.1970   57.5750 O.2       1 1JG        -0.1432
     10 N10       -26.2620   50.5450   57.7720 N.am      1 1JG        -0.1825
     11 C11       -25.3230   51.0250   56.7890 C.ar      1 1JG         0.0784
     12 C12       -24.4740   50.1630   55.9870 C.ar      1 1JG         0.0262
     13 C13       -23.5820   50.7820   55.0370 C.ar      1 1JG        -0.0629
     14 C14       -23.5340   52.2000   54.8930 C.ar      1 1JG        -0.0615
     15 C15       -24.3720   53.0170   55.6930 C.ar      1 1JG         0.0277
     16 C16       -25.2540   52.4400   56.6260 C.ar      1 1JG        -0.0276
     17 C17       -24.5080   48.6790   56.1270 C.2       1 1JG         0.0532
     18 O18       -25.3390   48.0480   56.7640 O.co2     1 1JG        -0.5662
     19 O19       -23.5000   48.0540   55.4800 O.co2     1 1JG        -0.5662
     20 CL1       -24.3210   54.7260   55.5370 Cl        1 1JG        -0.0729
     21 H1        -29.4228   48.2810   53.3567 H         1 1JG         0.0463
     22 H2        -28.9178   48.1649   55.9400 H         1 1JG         0.0439
     23 H3        -25.9422   50.0874   58.6017 H         1 1JG         0.2185
     24 H4        -22.9392   50.1605   54.4240 H         1 1JG         0.0606
     25 H5        -22.8593   52.6514   54.1746 H         1 1JG         0.0486
     26 H6        -25.8890   53.0795   57.2284 H         1 1JG         0.0495
@<TRIPOS>BOND
     1    1    3 1  
     2    3    2 1  
     3    2    6 1  
     4    3    4 2  
     5    4    5 1  
     6    5    6 2  
     7    6    7 1  
     8    7    8 2  
     9    7    9 2  
    10    7   10 am 
    11   10   11 1  
    12   11   12 ar 
    13   11   16 ar 
    14   12   13 ar 
    15   12   17 1  
    16   13   14 ar 
    17   14   15 ar 
    18   15   16 ar 
    19   15   20 1  
    20   17   18 ar 
    21   17   19 ar 
    22    4   21 1  
    23    5   22 1  
    24   10   23 1  
    25   13   24 1  
    26   14   25 1  
    27   16   26 1  
@<TRIPOS>SUBSTRUCTURE
     1 1JG         1

