### 
### Created by X-TOOL on Mon Sep 10 21:13:15 2018
### 

@<TRIPOS>MOLECULE
4j08_ligand
   43    45     1     0     0
SMALL
GAST_HUCK


@<TRIPOS>ATOM
      1 C1        -27.6580   48.8680   55.8320 C.ar      1 1JH        -0.0414
      2 C2        -28.0590   48.8810   54.4670 C.ar      1 1JH        -0.0587
      3 C3        -27.8930   50.0510   53.6660 C.ar      1 1JH        -0.0460
      4 C4        -27.3060   51.2210   54.2500 C.ar      1 1JH        -0.0587
      5 C5        -26.9000   51.2180   55.6190 C.ar      1 1JH        -0.0414
      6 C6        -27.0770   50.0330   56.4030 C.ar      1 1JH         0.1069
      7 S7        -26.5850   50.0120   58.1270 S.o2      1 1JH         0.0856
      8 O8        -26.4910   51.4050   58.5560 O.2       1 1JH        -0.1456
      9 O9        -27.5780   49.1630   58.7850 O.2       1 1JH        -0.1456
     10 N10       -25.0570   49.1760   58.1960 N.am      1 1JH        -0.1901
     11 C11       -23.8400   49.7330   57.5790 C.ar      1 1JH         0.0680
     12 C12       -22.9880   48.9270   56.7230 C.ar      1 1JH         0.0195
     13 C13       -21.8250   49.5050   56.1420 C.ar      1 1JH        -0.0292
     14 C14       -21.4730   50.8570   56.3860 C.ar      1 1JH         0.1027
     15 C15       -22.3080   51.6470   57.2370 C.ar      1 1JH        -0.0403
     16 C16       -23.4760   51.0890   57.8240 C.ar      1 1JH        -0.0477
     17 C17       -23.3250   47.5320   56.4600 C.2       1 1JH         0.0511
     18 O18       -22.3270   46.8260   55.8740 O.co2     1 1JH        -0.5663
     19 O19       -24.4000   47.0270   56.7470 O.co2     1 1JH        -0.5663
     20 O20       -20.3080   51.2410   55.7410 O.3       1 1JH        -0.2679
     21 C21       -20.4490   52.3520   54.7950 C.ar      1 1JH         0.1120
     22 C22       -21.6420   52.5330   53.9860 C.ar      1 1JH        -0.0293
     23 C23       -21.7280   53.6320   53.0700 C.ar      1 1JH        -0.0701
     24 C24       -20.6260   54.5590   52.9500 C.ar      1 1JH        -0.0726
     25 C25       -19.4410   54.3860   53.7480 C.ar      1 1JH        -0.0701
     26 C26       -19.3530   53.2870   54.6670 C.ar      1 1JH        -0.0293
     27 C28       -28.3260   50.0470   52.2250 C.3       1 1JH        -0.0311
     28 H1        -27.7946   47.9759   56.4325 H         1 1JH         0.0619
     29 H2        -28.4963   47.9908   54.0295 H         1 1JH         0.0557
     30 H3        -27.1696   52.1129   53.6492 H         1 1JH         0.0557
     31 H4        -26.4615   52.1054   56.0610 H         1 1JH         0.0619
     32 H5        -25.0048   48.2952   58.6667 H         1 1JH         0.2146
     33 H6        -21.1953   48.8998   55.4999 H         1 1JH         0.0543
     34 H7        -22.0478   52.6803   57.4360 H         1 1JH         0.0537
     35 H8        -24.0977   51.7024   58.4660 H         1 1JH         0.0469
     36 H9        -22.4677   51.8364   54.0752 H         1 1JH         0.0549
     37 H10       -22.6190   53.7677   52.4677 H         1 1JH         0.0589
     38 H11       -20.6923   55.3887   52.2555 H         1 1JH         0.0525
     39 H12       -18.6168   55.0840   53.6553 H         1 1JH         0.0589
     40 H13       -18.4604   53.1571   55.2683 H         1 1JH         0.0549
     41 H14       -28.7483   49.0634   51.9718 H         1 1JH         0.0391
     42 H15       -27.4579   50.2502   51.5807 H         1 1JH         0.0391
     43 H16       -29.0884   50.8244   52.0690 H         1 1JH         0.0391
@<TRIPOS>BOND
     1    1    2 ar 
     2    1    6 ar 
     3    2    3 ar 
     4    3    4 ar 
     5    3   27 1  
     6    4    5 ar 
     7    5    6 ar 
     8    6    7 1  
     9    7    8 2  
    10    7    9 2  
    11    7   10 am 
    12   10   11 1  
    13   11   12 ar 
    14   11   16 ar 
    15   12   13 ar 
    16   12   17 1  
    17   13   14 ar 
    18   14   15 ar 
    19   14   20 1  
    20   15   16 ar 
    21   17   18 ar 
    22   17   19 ar 
    23   20   21 1  
    24   21   22 ar 
    25   21   26 ar 
    26   22   23 ar 
    27   23   24 ar 
    28   24   25 ar 
    29   25   26 ar 
    30    1   28 1  
    31    2   29 1  
    32    4   30 1  
    33    5   31 1  
    34   10   32 1  
    35   13   33 1  
    36   15   34 1  
    37   16   35 1  
    38   22   36 1  
    39   23   37 1  
    40   24   38 1  
    41   25   39 1  
    42   26   40 1  
    43   27   41 1  
    44   27   42 1  
    45   27   43 1  
@<TRIPOS>SUBSTRUCTURE
     1 1JH         1

