### 
### Created by X-TOOL on Mon Sep 10 21:13:16 2018
### 

@<TRIPOS>MOLECULE
4j0a_ligand
   43    45     1     0     0
SMALL
GAST_HUCK


@<TRIPOS>ATOM
      1 C1        -27.0390   51.5330   55.3480 C.ar      1 1JL        -0.0414
      2 C2        -27.4290   51.5530   53.9920 C.ar      1 1JL        -0.0587
      3 C3        -28.0330   50.4010   53.4050 C.ar      1 1JL        -0.0460
      4 C4        -28.2410   49.2310   54.1960 C.ar      1 1JL        -0.0587
      5 C5        -27.8520   49.2040   55.5530 C.ar      1 1JL        -0.0414
      6 C6        -27.2520   50.3570   56.1200 C.ar      1 1JL         0.1073
      7 S7        -26.7580   50.3300   57.8220 S.o2      1 1JL         0.0872
      8 O8        -27.6760   49.4200   58.5190 O.2       1 1JL        -0.1453
      9 O9        -26.7310   51.7400   58.2510 O.2       1 1JL        -0.1453
     10 N10       -25.1180   49.6480   57.8580 N.am      1 1JL        -0.1869
     11 C11       -23.9870   50.0440   56.9620 C.ar      1 1JL         0.0700
     12 C12       -23.1540   49.0270   56.3330 C.ar      1 1JL         0.0159
     13 C13       -22.0730   49.3970   55.4850 C.ar      1 1JL        -0.0701
     14 C14       -21.7800   50.7380   55.2390 C.ar      1 1JL        -0.0414
     15 C15       -22.5660   51.7600   55.8330 C.ar      1 1JL         0.1037
     16 C16       -23.6720   51.4230   56.6990 C.ar      1 1JL        -0.0095
     17 C17       -23.4020   47.6080   56.5530 C.2       1 1JL         0.0468
     18 O18       -24.5110   47.1080   56.7170 O.co2     1 1JL        -0.5688
     19 O19       -22.2700   46.8620   56.5490 O.co2     1 1JL        -0.5688
     20 O20       -22.2990   53.1140   55.6150 O.3       1 1JL        -0.2604
     21 C21       -21.4740   53.5660   54.5420 C.ar      1 1JL         0.1165
     22 C22       -21.9560   53.8540   53.2270 C.ar      1 1JL        -0.0283
     23 C23       -21.0530   54.3030   52.2190 C.ar      1 1JL        -0.0696
     24 C24       -19.6660   54.4650   52.5090 C.ar      1 1JL        -0.0722
     25 C25       -19.1780   54.1850   53.8110 C.ar      1 1JL        -0.0696
     26 C26       -20.0730   53.7350   54.8280 C.ar      1 1JL        -0.0283
     27 C27       -28.4440   50.4270   51.9720 C.3       1 1JL        -0.0311
     28 H1        -26.5809   52.4064   55.7978 H         1 1JL         0.0619
     29 H2        -27.2697   52.4442   53.3957 H         1 1JL         0.0557
     30 H3        -28.7013   48.3562   53.7512 H         1 1JL         0.0557
     31 H4        -28.0097   48.3148   56.1527 H         1 1JL         0.0619
     32 H5        -24.9346   48.9369   58.5368 H         1 1JL         0.2181
     33 H6        -21.4682   48.6249   55.0233 H         1 1JL         0.0583
     34 H7        -20.9502   51.0006   54.5928 H         1 1JL         0.0425
     35 H8        -24.2651   52.2097   57.1511 H         1 1JL         0.0416
     36 H9        -23.0080   53.7310   52.9964 H         1 1JL         0.0553
     37 H10       -21.4236   54.5230   51.2244 H         1 1JL         0.0591
     38 H11       -18.9856   54.8017   51.7352 H         1 1JL         0.0529
     39 H12       -18.1249   54.3128   54.0339 H         1 1JL         0.0591
     40 H13       -19.6958   53.5193   55.8211 H         1 1JL         0.0553
     41 H14       -28.2018   51.4087   51.5389 H         1 1JL         0.0391
     42 H15       -29.5273   50.2508   51.8980 H         1 1JL         0.0391
     43 H16       -27.9062   49.6408   51.4219 H         1 1JL         0.0391
@<TRIPOS>BOND
     1    1    2 ar 
     2    1    6 ar 
     3    2    3 ar 
     4    3    4 ar 
     5    3   27 1  
     6    4    5 ar 
     7    5    6 ar 
     8    6    7 1  
     9    7    8 2  
    10    7    9 2  
    11    7   10 am 
    12   10   11 1  
    13   11   12 ar 
    14   11   16 ar 
    15   12   13 ar 
    16   12   17 1  
    17   13   14 ar 
    18   14   15 ar 
    19   15   16 ar 
    20   15   20 1  
    21   17   18 ar 
    22   17   19 ar 
    23   20   21 1  
    24   21   22 ar 
    25   21   26 ar 
    26   22   23 ar 
    27   23   24 ar 
    28   24   25 ar 
    29   25   26 ar 
    30    1   28 1  
    31    2   29 1  
    32    4   30 1  
    33    5   31 1  
    34   10   32 1  
    35   13   33 1  
    36   14   34 1  
    37   16   35 1  
    38   22   36 1  
    39   23   37 1  
    40   24   38 1  
    41   25   39 1  
    42   26   40 1  
    43   27   41 1  
    44   27   42 1  
    45   27   43 1  
@<TRIPOS>SUBSTRUCTURE
     1 1JL         1

