### 
### Created by X-TOOL on Mon Sep 10 21:13:13 2018
### 

@<TRIPOS>MOLECULE
4j0p_ligand
   43    45     1     0     0
SMALL
GAST_HUCK


@<TRIPOS>ATOM
      1 C1        -21.0880  -43.2250   -1.5400 C.ar      1 1H8         0.1267
      2 C2        -20.1660  -42.2490   -1.9490 C.ar      1 1H8         0.0510
      3 N3        -20.4010  -41.6840   -3.1290 N.ar      1 1H8        -0.2641
      4 C4        -21.4520  -41.9270   -3.8810 C.ar      1 1H8         0.1362
      5 C5        -22.3970  -42.8990   -3.5370 C.ar      1 1H8        -0.0036
      6 C6        -22.2380  -43.5490   -2.3270 C.ar      1 1H8        -0.0031
      7 C10       -20.8760  -43.8770   -0.2680 C.1       1 1H8         0.1128
      8 C14       -18.9420  -39.7490   -7.3190 C.ar      1 1H8        -0.0186
      9 C15       -20.9720  -39.2920   -9.1390 C.ar      1 1H8        -0.0061
     10 C16       -20.2840  -40.0140   -6.9610 C.ar      1 1H8         0.0911
     11 C17       -21.3220  -39.7760   -7.8810 C.ar      1 1H8        -0.0112
     12 C19       -17.0680  -38.9370   -8.8440 C.3       1 1H8         0.0965
     13 C23       -16.5760  -41.3110   -9.3870 C.3       1 1H8         0.0453
     14 C25       -15.6210  -40.2180   -7.4150 C.cat     1 1H8         0.3454
     15 C7        -21.5670  -41.2520   -5.1850 C.2       1 1H8         0.2558
     16 O8        -22.6380  -41.2830   -5.7460 O.2       1 1H8        -0.3646
     17 N9        -20.4590  -40.6490   -5.7090 N.am      1 1H8        -0.2263
     18 N11       -20.7260  -44.4000    0.7370 N.1       1 1H8        -0.3219
     19 C12       -18.5640  -39.2220   -8.5320 C.ar      1 1H8         0.0166
     20 C13       -19.6180  -38.9720   -9.4490 C.ar      1 1H8         0.1528
     21 F18       -19.3290  -38.4540  -10.6720 F         1 1H8        -0.1644
     22 C20       -16.8440  -37.5170   -9.3240 C.3       1 1H8        -0.0443
     23 N21       -16.2710  -39.1060   -7.6240 N.pl3     1 1H8        -0.2687
     24 C22       -16.5200  -39.9010   -9.9380 C.3       1 1H8        -0.0094
     25 O24       -15.6280  -41.2570   -8.2860 O.3       1 1H8        -0.3225
     26 N26       -14.9290  -40.3560   -6.2510 N.pl3     1 1H8        -0.2512
     27 H1        -19.3135  -41.9726   -1.3392 H         1 1H8         0.0939
     28 H2        -23.2250  -43.1345   -4.1958 H         1 1H8         0.0781
     29 H3        -22.9614  -44.2806   -1.9857 H         1 1H8         0.0844
     30 H4        -18.1664  -39.9741   -6.5959 H         1 1H8         0.0677
     31 H5        -21.7395  -39.1568   -9.8925 H         1 1H8         0.0657
     32 H6        -22.3573  -39.9628   -7.6197 H         1 1H8         0.0763
     33 H7        -16.2647  -42.0461  -10.1438 H         1 1H8         0.0548
     34 H8        -17.5865  -41.5582   -9.0296 H         1 1H8         0.0548
     35 H9        -19.6511  -40.6577   -5.1198 H         1 1H8         0.2251
     36 H10       -15.7745  -37.3644   -9.5310 H         1 1H8         0.0172
     37 H11       -17.1713  -36.8111   -8.5464 H         1 1H8         0.0172
     38 H12       -17.4235  -37.3449  -10.2430 H         1 1H8         0.0172
     39 H13       -16.2244  -38.3454   -6.9310 H         1 1H8         0.3116
     40 H14       -15.4807  -39.6364  -10.1826 H         1 1H8         0.0229
     41 H15       -17.1397  -39.8290  -10.8440 H         1 1H8         0.0229
     42 H16       -14.4076  -41.2239   -6.0616 H         1 1H8         0.3201
     43 H17       -14.9268  -39.5926   -5.5596 H         1 1H8         0.3201
@<TRIPOS>BOND
     1    2    1 ar 
     2    6    1 ar 
     3    1    7 1  
     4    3    2 ar 
     5    4    3 ar 
     6    4    5 ar 
     7   15    4 1  
     8    5    6 ar 
     9    7   18 3  
    10   10    8 ar 
    11    8   19 ar 
    12   11    9 ar 
    13    9   20 ar 
    14   10   11 ar 
    15   17   10 1  
    16   19   12 1  
    17   12   22 1  
    18   12   23 1  
    19   12   24 1  
    20   24   13 1  
    21   13   25 1  
    22   23   14 ar 
    23   14   25 1  
    24   14   26 ar 
    25   15   16 2  
    26   15   17 am 
    27   19   20 ar 
    28   20   21 1  
    29    2   27 1  
    30    5   28 1  
    31    6   29 1  
    32    8   30 1  
    33    9   31 1  
    34   11   32 1  
    35   13   33 1  
    36   13   34 1  
    37   17   35 1  
    38   22   36 1  
    39   22   37 1  
    40   22   38 1  
    41   23   39 1  
    42   24   40 1  
    43   24   41 1  
    44   26   42 1  
    45   26   43 1  
@<TRIPOS>SUBSTRUCTURE
     1 1H8         1

