### 
### Created by X-TOOL on Mon Sep 10 21:13:12 2018
### 

@<TRIPOS>MOLECULE
4j0r_ligand
   39    41     1     0     0
SMALL
GAST_HUCK


@<TRIPOS>ATOM
      1 C4         29.3800   15.6470   -0.9940 C.ar      1 1H2        -0.0708
      2 C14        26.0090   17.9680   -3.7910 C.ar      1 1H2        -0.0681
      3 C5         28.0800   15.0940   -1.1510 C.ar      1 1H2        -0.0195
      4 C6         27.2270   14.9920   -0.0710 C.ar      1 1H2        -0.0348
      5 C11        27.8630   16.0610   -4.7090 C.ar      1 1H2        -0.0559
      6 C7         27.6940   15.4360    1.1840 C.ar      1 1H2         0.0741
      7 C8         28.9850   15.9750    1.3560 C.ar      1 1H2        -0.0444
      8 C9         27.5930   14.6740   -2.5520 C.3       1 1H2         0.1184
      9 C10        27.2950   15.9130   -3.4150 C.ar      1 1H2        -0.0038
     10 C12        27.4660   17.1530   -5.5540 C.ar      1 1H2        -0.0681
     11 C13        26.5180   18.0920   -5.0640 C.ar      1 1H2        -0.0685
     12 C3         29.7960   16.0860    0.2630 C.ar      1 1H2        -0.0550
     13 O1         28.6100   13.8550   -3.1450 O.3       1 1H2        -0.3674
     14 C15        26.3650   16.8860   -2.9600 C.ar      1 1H2        -0.0559
     15 O          26.8850   15.3520    2.2260 O.3       1 1H2        -0.3367
     16 C2         31.1290   16.6460    0.4310 C.2       1 1H2         0.0166
     17 C16        32.2630   16.0670   -0.0170 C.2       1 1H2         0.1465
     18 C17        32.4610   14.6970   -0.5630 C.3       1 1H2         0.0133
     19 O2         33.3720   16.9180    0.1810 O.3       1 1H2        -0.1732
     20 N          32.8010   18.0980    0.8520 N.2       1 1H2        -0.1671
     21 C1         31.4440   17.9120    1.0110 C.2       1 1H2         0.0232
     22 C          30.4610   18.8280    1.6960 C.3       1 1H2        -0.0269
     23 H1         30.0446   15.7272   -1.8466 H         1 1H2         0.0407
     24 H2         25.3200   18.7180   -3.4196 H         1 1H2         0.0600
     25 H3         26.2292   14.5835   -0.1835 H         1 1H2         0.0431
     26 H4         28.5991   15.3469   -5.0602 H         1 1H2         0.0561
     27 H5         29.3264   16.2943    2.3340 H         1 1H2         0.0420
     28 H6         26.6690   14.0853   -2.4536 H         1 1H2         0.0915
     29 H7         27.8826   17.2591   -6.5491 H         1 1H2         0.0600
     30 H8         26.1940   18.9106   -5.6965 H         1 1H2         0.0561
     31 H9         28.3208   13.5636   -4.0018 H         1 1H2         0.2161
     32 H10        25.9282   16.7963   -1.9719 H         1 1H2         0.0561
     33 H11        27.2836   14.8038    2.8916 H         1 1H2         0.2476
     34 H12        33.5185   14.5591   -0.8326 H         1 1H2         0.0470
     35 H13        31.8344   14.5646   -1.4573 H         1 1H2         0.0470
     36 H14        32.1766   13.9546    0.1972 H         1 1H2         0.0470
     37 H15        30.9831   19.7312    2.0446 H         1 1H2         0.0379
     38 H16        30.0134   18.3083    2.5560 H         1 1H2         0.0379
     39 H17        29.6696   19.1126    0.9870 H         1 1H2         0.0379
@<TRIPOS>BOND
     1    3    1 ar 
     2    1   12 ar 
     3    2   11 ar 
     4   14    2 ar 
     5    3    4 ar 
     6    8    3 1  
     7    4    6 ar 
     8    9    5 ar 
     9    5   10 ar 
    10    6    7 ar 
    11    6   15 1  
    12   12    7 ar 
    13    9    8 1  
    14    8   13 1  
    15    9   14 ar 
    16   10   11 ar 
    17   12   16 1  
    18   16   17 2  
    19   16   21 1  
    20   17   18 1  
    21   17   19 1  
    22   19   20 1  
    23   20   21 2  
    24   21   22 1  
    25    1   23 1  
    26    2   24 1  
    27    4   25 1  
    28    5   26 1  
    29    7   27 1  
    30    8   28 1  
    31   10   29 1  
    32   11   30 1  
    33   13   31 1  
    34   14   32 1  
    35   15   33 1  
    36   18   34 1  
    37   18   35 1  
    38   18   36 1  
    39   22   37 1  
    40   22   38 1  
    41   22   39 1  
@<TRIPOS>SUBSTRUCTURE
     1 1H2         1

