### 
### Created by X-TOOL on Mon Sep 10 21:13:12 2018
### 

@<TRIPOS>MOLECULE
4j0s_ligand
   39    41     1     0     0
SMALL
GAST_HUCK


@<TRIPOS>ATOM
      1 C4         29.8400   15.7380   -1.0260 C.ar      1 1H3        -0.0708
      2 C14        26.3940   17.7790   -3.7460 C.ar      1 1H3        -0.0681
      3 C5         28.5520   15.1470   -1.2520 C.ar      1 1H3        -0.0195
      4 C6         27.6660   15.0400   -0.2240 C.ar      1 1H3        -0.0348
      5 C11        28.2090   15.9720   -4.7670 C.ar      1 1H3        -0.0559
      6 C7         28.0730   15.4950    1.0820 C.ar      1 1H3         0.0741
      7 C8         29.3020   16.0550    1.3330 C.ar      1 1H3        -0.0444
      8 C9         28.1800   14.6450   -2.6530 C.3       1 1H3         0.1184
      9 C10        27.7110   15.7910   -3.4970 C.ar      1 1H3        -0.0038
     10 C12        27.7690   17.0610   -5.5150 C.ar      1 1H3        -0.0681
     11 C13        26.8800   17.9510   -5.0010 C.ar      1 1H3        -0.0685
     12 C3         30.1970   16.1970    0.2570 C.ar      1 1H3        -0.0550
     13 O1         27.2220   13.6040   -2.5460 O.3       1 1H3        -0.3674
     14 C15        26.8090   16.6900   -3.0080 C.ar      1 1H3        -0.0559
     15 O          27.1990   15.3930    2.0690 O.3       1 1H3        -0.3367
     16 C2         31.5050   16.7390    0.4610 C.2       1 1H3         0.0166
     17 C16        32.7160   16.1710   -0.0050 C.2       1 1H3         0.1465
     18 C17        33.1030   14.8300   -0.5660 C.3       1 1H3         0.0133
     19 O2         33.7020   17.0330    0.2010 O.3       1 1H3        -0.1732
     20 N          33.1610   18.1550    0.8670 N.2       1 1H3        -0.1671
     21 C1         31.8550   18.0050    1.0580 C.2       1 1H3         0.0232
     22 C          30.9660   18.9570    1.8030 C.3       1 1H3        -0.0269
     23 H1         30.5418   15.8317   -1.8468 H         1 1H3         0.0407
     24 H2         25.6886   18.4883   -3.3286 H         1 1H3         0.0600
     25 H3         26.6783   14.6228   -0.3836 H         1 1H3         0.0431
     26 H4         28.9325   15.2777   -5.1787 H         1 1H3         0.0561
     27 H5         29.5743   16.3781    2.3313 H         1 1H3         0.0420
     28 H6         29.0814   14.2267   -3.1247 H         1 1H3         0.0915
     29 H7         28.1415   17.2010   -6.5233 H         1 1H3         0.0600
     30 H8         26.5588   18.7994   -5.5944 H         1 1H3         0.0561
     31 H9         27.0275   13.2640   -3.4114 H         1 1H3         0.2161
     32 H10        26.4072   16.5445   -2.0118 H         1 1H3         0.0561
     33 H11        27.5671   14.8581    2.7624 H         1 1H3         0.2476
     34 H12        34.1775   14.8273   -0.8013 H         1 1H3         0.0470
     35 H13        32.5265   14.6357   -1.4824 H         1 1H3         0.0470
     36 H14        32.8881   14.0464    0.1755 H         1 1H3         0.0470
     37 H15        31.5524   19.8298    2.1259 H         1 1H3         0.0379
     38 H16        30.5448   18.4517    2.6847 H         1 1H3         0.0379
     39 H17        30.1491   19.2874    1.1446 H         1 1H3         0.0379
@<TRIPOS>BOND
     1    3    1 ar 
     2    1   12 ar 
     3    2   11 ar 
     4   14    2 ar 
     5    3    4 ar 
     6    8    3 1  
     7    4    6 ar 
     8    9    5 ar 
     9    5   10 ar 
    10    6    7 ar 
    11    6   15 1  
    12   12    7 ar 
    13    9    8 1  
    14    8   13 1  
    15    9   14 ar 
    16   10   11 ar 
    17   12   16 1  
    18   16   17 2  
    19   16   21 1  
    20   17   18 1  
    21   17   19 1  
    22   19   20 1  
    23   20   21 2  
    24   21   22 1  
    25    1   23 1  
    26    2   24 1  
    27    4   25 1  
    28    5   26 1  
    29    7   27 1  
    30    8   28 1  
    31   10   29 1  
    32   11   30 1  
    33   13   31 1  
    34   14   32 1  
    35   15   33 1  
    36   18   34 1  
    37   18   35 1  
    38   18   36 1  
    39   22   37 1  
    40   22   38 1  
    41   22   39 1  
@<TRIPOS>SUBSTRUCTURE
     1 1H3         1

