### 
### Created by X-TOOL on Mon Sep 10 21:13:13 2018
### 

@<TRIPOS>MOLECULE
4j0t_ligand
   49    51     1     0     0
SMALL
GAST_HUCK


@<TRIPOS>ATOM
      1 C1        -16.6150  -41.4590   -9.0870 C.3       1 6T9         0.1083
      2 C2        -16.6250  -40.0680   -9.7280 C.3       1 6T9         0.2930
      3 O3        -15.6300  -41.3270   -8.0360 O.3       1 6T9        -0.3167
      4 C4        -15.5480  -40.1750   -7.3170 C.cat     1 6T9         0.3457
      5 N5        -16.0940  -39.0240   -7.6640 N.pl3     1 6T9        -0.2638
      6 C6        -17.0010  -38.9040   -8.7830 C.3       1 6T9         0.1595
      7 C7        -18.4600  -39.0900   -8.3880 C.ar      1 6T9         0.0222
      8 C8        -18.8150  -39.7750   -7.2150 C.ar      1 6T9        -0.0185
      9 C9        -20.1670  -39.9590   -6.8630 C.ar      1 6T9         0.0907
     10 C10       -21.2020  -39.4650   -7.6680 C.ar      1 6T9        -0.0113
     11 C11       -20.8670  -38.8290   -8.8860 C.ar      1 6T9        -0.0062
     12 C12       -19.5210  -38.6420   -9.2330 C.ar      1 6T9         0.1529
     13 F13       -19.2110  -37.9520  -10.3810 F         1 6T9        -0.1644
     14 N14       -14.7270  -40.1970   -6.2310 N.pl3     1 6T9        -0.2512
     15 C15       -16.6930  -37.5560   -9.4550 C.3       1 6T9        -0.0386
     16 N16       -20.4050  -40.6740   -5.6830 N.am      1 6T9        -0.2289
     17 C17       -21.6290  -41.1210   -5.2750 C.2       1 6T9         0.2425
     18 C18       -21.5900  -41.8680   -4.0250 C.ar      1 6T9         0.1165
     19 O19       -22.6050  -40.9680   -5.9950 O.2       1 6T9        -0.3729
     20 N20       -20.4700  -41.6810   -3.3480 N.ar      1 6T9        -0.2856
     21 C21       -20.1940  -42.2630   -2.2200 C.ar      1 6T9         0.0460
     22 C22       -21.0730  -43.1700   -1.6690 C.ar      1 6T9         0.1245
     23 C23       -22.2870  -43.4150   -2.3510 C.ar      1 6T9        -0.0074
     24 C24       -22.5400  -42.7780   -3.5680 C.ar      1 6T9        -0.0224
     25 O25       -20.6990  -43.7770   -0.4650 O.3       1 6T9        -0.3071
     26 F26       -15.3750  -39.8450  -10.2740 F         1 6T9        -0.2089
     27 F27       -17.4620  -40.0710  -10.7890 F         1 6T9        -0.2089
     28 C28       -21.7640  -44.6020    0.0770 C.3       1 6T9         0.0706
     29 C29       -21.3370  -45.2050    1.4040 C.3       1 6T9        -0.0367
     30 H1        -16.3156  -42.2274   -9.8149 H         1 6T9         0.0607
     31 H2        -17.6027  -41.7107   -8.6735 H         1 6T9         0.0607
     32 H3        -15.8654  -38.1813   -7.1176 H         1 6T9         0.3118
     33 H4        -18.0373  -40.1683   -6.5704 H         1 6T9         0.0676
     34 H5        -22.2373  -39.5681   -7.3637 H         1 6T9         0.0762
     35 H6        -21.6508  -38.4859   -9.5516 H         1 6T9         0.0657
     36 H7        -14.6231  -39.3551   -5.6468 H         1 6T9         0.3201
     37 H8        -14.2098  -41.0555   -5.9937 H         1 6T9         0.3201
     38 H9        -16.9645  -36.7362   -8.7737 H         1 6T9         0.0173
     39 H10       -17.2748  -37.4682  -10.3844 H         1 6T9         0.0173
     40 H11       -15.6194  -37.4991   -9.6877 H         1 6T9         0.0173
     41 H12       -19.6204  -40.8720   -5.0954 H         1 6T9         0.2246
     42 H13       -19.2661  -42.0337   -1.7087 H         1 6T9         0.0771
     43 H14       -23.0191  -44.0950   -1.9307 H         1 6T9         0.0674
     44 H15       -23.4408  -42.9839   -4.1348 H         1 6T9         0.0732
     45 H16       -21.9939  -45.4107   -0.6323 H         1 6T9         0.0616
     46 H17       -22.6604  -43.9833    0.2308 H         1 6T9         0.0616
     47 H18       -22.1518  -45.8269    1.8032 H         1 6T9         0.0256
     48 H19       -21.1083  -44.3988    2.1165 H         1 6T9         0.0256
     49 H20       -20.4418  -45.8262    1.2534 H         1 6T9         0.0256
@<TRIPOS>BOND
     1    1    2 1  
     2    1    3 1  
     3    2    6 1  
     4    2   26 1  
     5    2   27 1  
     6    3    4 1  
     7    4    5 ar 
     8    4   14 ar 
     9    5    6 1  
    10    6    7 1  
    11    6   15 1  
    12    7    8 ar 
    13    7   12 ar 
    14    8    9 ar 
    15    9   10 ar 
    16    9   16 1  
    17   10   11 ar 
    18   11   12 ar 
    19   12   13 1  
    20   16   17 am 
    21   17   18 1  
    22   17   19 2  
    23   18   20 ar 
    24   18   24 ar 
    25   20   21 ar 
    26   21   22 ar 
    27   22   23 ar 
    28   22   25 1  
    29   23   24 ar 
    30   25   28 1  
    31   28   29 1  
    32    1   30 1  
    33    1   31 1  
    34    5   32 1  
    35    8   33 1  
    36   10   34 1  
    37   11   35 1  
    38   14   36 1  
    39   14   37 1  
    40   15   38 1  
    41   15   39 1  
    42   15   40 1  
    43   16   41 1  
    44   21   42 1  
    45   23   43 1  
    46   24   44 1  
    47   28   45 1  
    48   28   46 1  
    49   29   47 1  
    50   29   48 1  
    51   29   49 1  
@<TRIPOS>SUBSTRUCTURE
     1 6T9         1

