### 
### Created by X-TOOL on Mon Sep 10 21:13:13 2018
### 

@<TRIPOS>MOLECULE
4j0v_ligand
   43    45     1     0     0
SMALL
GAST_HUCK


@<TRIPOS>ATOM
      1 C2        -22.1640  -43.3940   -2.2920 C.ar      1 1H7        -0.0031
      2 C4        -21.4190  -41.7720   -3.8720 C.ar      1 1H7         0.1362
      3 C6        -20.0680  -42.0580   -1.9920 C.ar      1 1H7         0.0510
      4 C7        -21.5220  -41.0930   -5.1770 C.2       1 1H7         0.2558
      5 C10       -20.7430  -43.6820   -0.2960 C.1       1 1H7         0.1128
      6 C1        -20.9580  -43.0410   -1.5460 C.ar      1 1H7         0.1267
      7 C3        -22.3600  -42.7290   -3.4970 C.ar      1 1H7        -0.0036
      8 N5        -20.3580  -41.4630   -3.1370 N.ar      1 1H7        -0.2641
      9 N8        -20.3880  -40.4790   -5.6560 N.am      1 1H7        -0.2263
     10 O9        -22.5690  -41.1630   -5.7800 O.2       1 1H7        -0.3646
     11 N11       -20.5590  -44.1810    0.6800 N.1       1 1H7        -0.3219
     12 C12       -20.1530  -39.8460   -6.9060 C.ar      1 1H7         0.0911
     13 C13       -21.1730  -39.6050   -7.8160 C.ar      1 1H7        -0.0112
     14 C14       -20.8460  -39.1000   -9.0780 C.ar      1 1H7        -0.0061
     15 C15       -19.5040  -38.8020   -9.3670 C.ar      1 1H7         0.1528
     16 C16       -18.4710  -39.0560   -8.4290 C.ar      1 1H7         0.0193
     17 C17       -18.8220  -39.5760   -7.2040 C.ar      1 1H7        -0.0185
     18 C18       -16.9960  -38.7690   -8.7620 C.3       1 1H7         0.1273
     19 C19       -16.7710  -37.2920   -9.1470 C.3       1 1H7        -0.0415
     20 C20       -16.4400  -41.2100   -9.2980 C.3       1 1H7         0.0762
     21 O21       -15.6350  -41.1310   -8.0860 O.3       1 1H7        -0.3197
     22 C22       -15.4860  -40.0440   -7.3430 C.cat     1 1H7         0.3455
     23 N23       -16.0800  -38.9190   -7.6070 N.pl3     1 1H7        -0.2662
     24 N24       -14.6560  -40.1300   -6.2230 N.pl3     1 1H7        -0.2512
     25 C25       -16.5480  -39.7710   -9.8360 C.3       1 1H7         0.1448
     26 F26       -15.2600  -39.4120  -10.2490 F         1 1H7        -0.2487
     27 F27       -19.1870  -38.3220  -10.6080 F         1 1H7        -0.1644
     28 H1        -22.8670  -44.1336   -1.9260 H         1 1H7         0.0844
     29 H2        -19.1818  -41.7962   -1.4253 H         1 1H7         0.0939
     30 H3        -23.2166  -42.9477   -4.1242 H         1 1H7         0.0781
     31 H4        -19.6097  -40.4781   -5.0281 H         1 1H7         0.2251
     32 H5        -22.2054  -39.8049   -7.5527 H         1 1H7         0.0763
     33 H6        -21.6172  -38.9407   -9.8230 H         1 1H7         0.0657
     34 H7        -18.0544  -39.7767   -6.4654 H         1 1H7         0.0677
     35 H8        -15.7073  -37.1309   -9.3764 H         1 1H7         0.0172
     36 H9        -17.0672  -36.6452   -8.3080 H         1 1H7         0.0172
     37 H10       -17.3780  -37.0469  -10.0310 H         1 1H7         0.0172
     38 H11       -17.4396  -41.6067   -9.0668 H         1 1H7         0.0577
     39 H12       -15.9505  -41.8586  -10.0394 H         1 1H7         0.0577
     40 H13       -15.9092  -38.1078   -6.9956 H         1 1H7         0.3117
     41 H14       -14.5157  -39.3058   -5.6214 H         1 1H7         0.3201
     42 H15       -14.1842  -41.0176   -5.9986 H         1 1H7         0.3201
     43 H16       -17.2513  -39.7410  -10.6812 H         1 1H7         0.0615
@<TRIPOS>BOND
     1    1    6 ar 
     2    7    1 ar 
     3    4    2 1  
     4    2    7 ar 
     5    2    8 ar 
     6    3    6 ar 
     7    8    3 ar 
     8    9    4 am 
     9    4   10 2  
    10    6    5 1  
    11    5   11 3  
    12   12    9 1  
    13   12   13 ar 
    14   17   12 ar 
    15   14   13 ar 
    16   15   14 ar 
    17   16   15 ar 
    18   15   27 1  
    19   16   17 ar 
    20   18   16 1  
    21   18   19 1  
    22   18   23 1  
    23   25   18 1  
    24   20   21 1  
    25   20   25 1  
    26   21   22 1  
    27   22   23 ar 
    28   22   24 ar 
    29   25   26 1  
    30    1   28 1  
    31    3   29 1  
    32    7   30 1  
    33    9   31 1  
    34   13   32 1  
    35   14   33 1  
    36   17   34 1  
    37   19   35 1  
    38   19   36 1  
    39   19   37 1  
    40   20   38 1  
    41   20   39 1  
    42   23   40 1  
    43   24   41 1  
    44   24   42 1  
    45   25   43 1  
@<TRIPOS>SUBSTRUCTURE
     1 1H7         1

