### 
### Created by X-TOOL on Mon Sep 10 21:13:13 2018
### 

@<TRIPOS>MOLECULE
4j0y_ligand
   43    45     1     0     0
SMALL
GAST_HUCK


@<TRIPOS>ATOM
      1 C13       -15.2930  -40.0100   -7.4680 C.cat     1 1H6         0.3455
      2 C3        -20.7720  -38.6910   -8.9910 C.ar      1 1H6        -0.0061
      3 C2        -21.0750  -39.3030   -7.7390 C.ar      1 1H6        -0.0112
      4 C1        -20.0010  -39.7220   -6.9200 C.ar      1 1H6         0.0911
      5 C4        -19.4230  -38.5140   -9.3960 C.ar      1 1H6         0.1528
      6 C5        -18.3610  -38.9040   -8.5170 C.ar      1 1H6         0.0193
      7 C6        -18.6790  -39.5470   -7.3340 C.ar      1 1H6        -0.0185
      8 C10       -16.5300  -40.0030   -9.9560 C.3       1 1H6         0.1448
      9 C9        -16.5670  -37.4530   -9.5570 C.3       1 1H6        -0.0415
     10 C8        -16.8680  -38.8020   -8.9330 C.3       1 1H6         0.1273
     11 C11       -16.2460  -41.2860   -9.1860 C.3       1 1H6         0.0762
     12 F7        -19.1320  -37.9260  -10.6130 F         1 1H6        -0.1644
     13 O12       -15.1530  -41.0350   -8.2950 O.3       1 1H6        -0.3197
     14 N14       -16.0220  -38.9390   -7.7430 N.pl3     1 1H6        -0.2662
     15 F15       -17.5780  -40.2420  -10.6760 F         1 1H6        -0.2487
     16 N16       -14.6090  -40.0630   -6.2470 N.pl3     1 1H6        -0.2512
     17 N17       -20.2000  -40.3750   -5.6920 N.am      1 1H6        -0.2263
     18 C18       -21.3230  -40.9950   -5.2690 C.2       1 1H6         0.2558
     19 C19       -21.2450  -41.6750   -3.9850 C.ar      1 1H6         0.1362
     20 O20       -22.3860  -40.9230   -5.8630 O.2       1 1H6        -0.3646
     21 N21       -20.1920  -41.4170   -3.2070 N.ar      1 1H6        -0.2641
     22 C22       -19.9940  -42.0690   -2.0730 C.ar      1 1H6         0.0510
     23 C23       -20.9190  -43.0230   -1.6350 C.ar      1 1H6         0.1267
     24 C24       -22.0730  -43.3060   -2.4410 C.ar      1 1H6        -0.0031
     25 C25       -22.1950  -42.6260   -3.6430 C.ar      1 1H6        -0.0036
     26 C26       -20.7440  -43.6880   -0.3840 C.1       1 1H6         0.1128
     27 N27       -20.6040  -44.2200    0.5950 N.1       1 1H6        -0.3219
     28 H1        -21.5766  -38.3590   -9.6372 H         1 1H6         0.0657
     29 H2        -22.1024  -39.4434   -7.4232 H         1 1H6         0.0763
     30 H3        -17.8780  -39.9263   -6.7099 H         1 1H6         0.0677
     31 H4        -15.6717  -39.7317  -10.5882 H         1 1H6         0.0615
     32 H5        -16.8064  -36.6551   -8.8386 H         1 1H6         0.0172
     33 H6        -17.1759  -37.3245  -10.4640 H         1 1H6         0.0172
     34 H7        -15.5004  -37.4008   -9.8209 H         1 1H6         0.0172
     35 H8        -15.9789  -42.0906   -9.8869 H         1 1H6         0.0577
     36 H9        -17.1361  -41.5810   -8.6109 H         1 1H6         0.0577
     37 H10       -15.9929  -38.1523   -7.0788 H         1 1H6         0.3117
     38 H11       -14.6917  -39.2858   -5.5762 H         1 1H6         0.3201
     39 H12       -14.0232  -40.8792   -6.0198 H         1 1H6         0.3201
     40 H13       -19.4241  -40.3815   -5.0611 H         1 1H6         0.2251
     41 H14       -19.1103  -41.8630   -1.4800 H         1 1H6         0.0939
     42 H15       -22.8201  -44.0237   -2.1220 H         1 1H6         0.0844
     43 H16       -23.0244  -42.8354   -4.3088 H         1 1H6         0.0781
@<TRIPOS>BOND
     1    1   13 1  
     2   14    1 ar 
     3    1   16 ar 
     4    2    3 ar 
     5    5    2 ar 
     6    4    3 ar 
     7    7    4 ar 
     8    4   17 1  
     9    6    5 ar 
    10    5   12 1  
    11    6    7 ar 
    12   10    6 1  
    13   10    8 1  
    14    8   11 1  
    15    8   15 1  
    16   10    9 1  
    17   10   14 1  
    18   11   13 1  
    19   17   18 am 
    20   18   19 1  
    21   18   20 2  
    22   19   21 ar 
    23   19   25 ar 
    24   21   22 ar 
    25   22   23 ar 
    26   23   24 ar 
    27   23   26 1  
    28   24   25 ar 
    29   26   27 3  
    30    2   28 1  
    31    3   29 1  
    32    7   30 1  
    33    8   31 1  
    34    9   32 1  
    35    9   33 1  
    36    9   34 1  
    37   11   35 1  
    38   11   36 1  
    39   14   37 1  
    40   16   38 1  
    41   16   39 1  
    42   17   40 1  
    43   22   41 1  
    44   24   42 1  
    45   25   43 1  
@<TRIPOS>SUBSTRUCTURE
     1 1H6         1

