### 
### Created by X-TOOL on Mon Sep 10 21:13:13 2018
### 

@<TRIPOS>MOLECULE
4j0z_ligand
   43    45     1     0     0
SMALL
GAST_HUCK


@<TRIPOS>ATOM
      1 C2         20.8010   40.2680   -7.9590 C.ar      1 1H5        -0.0112
      2 C3         20.4760   39.7600   -9.1790 C.ar      1 1H5        -0.0061
      3 C4         19.1580   39.4950   -9.4890 C.ar      1 1H5         0.1529
      4 C5         18.1470   39.7770   -8.5990 C.ar      1 1H5         0.0220
      5 C6         18.4540   40.2680   -7.3680 C.ar      1 1H5        -0.0184
      6 C8         16.7350   39.5410   -8.9930 C.3       1 1H5         0.1580
      7 C9         16.7650   38.1150   -9.4930 C.3       1 1H5         0.1143
      8 C10        16.2970   40.6260  -10.0440 C.3       1 1H5         0.1475
      9 C11        16.0810   42.0100   -9.4250 C.3       1 1H5         0.0763
     10 C13        15.1000   40.6910   -7.6750 C.cat     1 1H5         0.3456
     11 N14        15.7640   39.5970   -7.9240 N.pl3     1 1H5        -0.2639
     12 C1         19.7610   40.4930   -7.0490 C.ar      1 1H5         0.0911
     13 F7         18.8410   39.0550  -10.7330 F         1 1H5        -0.1644
     14 O12        15.2030   41.8740   -8.2930 O.3       1 1H5        -0.3197
     15 F15        15.0370   40.3190  -10.5190 F         1 1H5        -0.2486
     16 N16        14.1920   40.6860   -6.6620 N.pl3     1 1H5        -0.2512
     17 N17        19.9500   41.0650   -5.8200 N.am      1 1H5        -0.2263
     18 C18        21.0640   41.6530   -5.3590 C.2       1 1H5         0.2558
     19 C19        20.9400   42.2850   -4.0400 C.ar      1 1H5         0.1362
     20 O20        22.0800   41.6850   -6.0030 O.2       1 1H5        -0.3646
     21 N21        19.8070   42.0360   -3.3620 N.ar      1 1H5        -0.2641
     22 C22        19.5530   42.5760   -2.1760 C.ar      1 1H5         0.0510
     23 C23        20.4860   43.5020   -1.6590 C.ar      1 1H5         0.1267
     24 C24        21.6970   43.8250   -2.3880 C.ar      1 1H5        -0.0031
     25 C25        21.9210   43.2040   -3.6040 C.ar      1 1H5        -0.0036
     26 C26        20.2460   44.1130   -0.3750 C.1       1 1H5         0.1128
     27 N27        20.0850   44.6090    0.6470 N.1       1 1H5        -0.3219
     28 F28        15.4420   37.7840   -9.7610 F         1 1H5        -0.2545
     29 H1         21.8299   40.4908   -7.7006 H         1 1H5         0.0763
     30 H2         21.2537   39.5633   -9.9081 H         1 1H5         0.0657
     31 H3         17.6698   40.4778   -6.6496 H         1 1H5         0.0677
     32 H4         17.1794   37.4471   -8.7235 H         1 1H5         0.0557
     33 H5         17.3718   38.0416  -10.4076 H         1 1H5         0.0557
     34 H6         17.0377   40.6709  -10.8560 H         1 1H5         0.0616
     35 H7         15.6264   42.6816  -10.1681 H         1 1H5         0.0577
     36 H8         17.0460   42.4245   -9.0979 H         1 1H5         0.0577
     37 H9         15.5938   38.7591   -7.3496 H         1 1H5         0.3118
     38 H10        13.6556   41.5386   -6.4469 H         1 1H5         0.3201
     39 H11        14.0409   39.8296   -6.1101 H         1 1H5         0.3201
     40 H12        19.1695   41.0420   -5.1952 H         1 1H5         0.2251
     41 H13        18.6585   42.3147   -1.6223 H         1 1H5         0.0939
     42 H14        22.4107   44.5369   -1.9894 H         1 1H5         0.0844
     43 H15        22.8063   43.4124   -4.1938 H         1 1H5         0.0781
@<TRIPOS>BOND
     1    1    2 ar 
     2    1   12 ar 
     3    2    3 ar 
     4    3    4 ar 
     5    3   13 1  
     6    4    5 ar 
     7    4    6 1  
     8    5   12 ar 
     9    6    7 1  
    10    6    8 1  
    11    6   11 1  
    12    7   28 1  
    13    8    9 1  
    14    8   15 1  
    15    9   14 1  
    16   11   10 ar 
    17   10   14 1  
    18   10   16 ar 
    19   12   17 1  
    20   17   18 am 
    21   18   19 1  
    22   18   20 2  
    23   19   21 ar 
    24   19   25 ar 
    25   21   22 ar 
    26   22   23 ar 
    27   23   24 ar 
    28   23   26 1  
    29   24   25 ar 
    30   26   27 3  
    31    1   29 1  
    32    2   30 1  
    33    5   31 1  
    34    7   32 1  
    35    7   33 1  
    36    8   34 1  
    37    9   35 1  
    38    9   36 1  
    39   11   37 1  
    40   16   38 1  
    41   16   39 1  
    42   17   40 1  
    43   22   41 1  
    44   24   42 1  
    45   25   43 1  
@<TRIPOS>SUBSTRUCTURE
     1 1H5         1

