### 
### Created by X-TOOL on Mon Sep 10 21:13:13 2018
### 

@<TRIPOS>MOLECULE
4j17_ligand
   43    45     1     0     0
SMALL
GAST_HUCK


@<TRIPOS>ATOM
      1 C2        -22.2180  -43.4590   -2.2890 C.ar      1 1HQ        -0.0031
      2 C3        -22.3720  -42.7980   -3.5000 C.ar      1 1HQ        -0.0036
      3 C4        -21.4260  -41.8800   -3.9410 C.ar      1 1HQ         0.1362
      4 N5        -20.3700  -41.5910   -3.2300 N.ar      1 1HQ        -0.2641
      5 C6        -20.1150  -42.1780   -2.0720 C.ar      1 1HQ         0.0510
      6 N9        -20.4290  -40.5840   -5.7190 N.am      1 1HQ        -0.2263
      7 C15       -19.6440  -38.9510   -9.4610 C.ar      1 1HQ         0.1529
      8 C1        -21.0220  -43.1360   -1.5880 C.ar      1 1HQ         0.1267
      9 C7        -21.5450  -41.1990   -5.2350 C.2       1 1HQ         0.2558
     10 O8        -22.5910  -41.2510   -5.8730 O.2       1 1HQ        -0.3646
     11 C10       -20.7760  -43.7580   -0.3250 C.1       1 1HQ         0.1128
     12 N11       -20.5990  -44.2470    0.6630 N.1       1 1HQ        -0.3219
     13 C12       -20.2570  -39.9620   -6.9510 C.ar      1 1HQ         0.0911
     14 C13       -21.3330  -39.7080   -7.8650 C.ar      1 1HQ        -0.0112
     15 C14       -20.9920  -39.2250   -9.1500 C.ar      1 1HQ        -0.0061
     16 C16       -18.5760  -39.2170   -8.5260 C.ar      1 1HQ         0.0222
     17 C17       -18.9040  -39.7550   -7.2990 C.ar      1 1HQ        -0.0184
     18 F18       -19.2520  -38.4440  -10.7010 F         1 1HQ        -0.1644
     19 C19       -17.0890  -39.0050   -8.9110 C.3       1 1HQ         0.1592
     20 C20       -16.5650  -40.0530   -9.9440 C.3       1 1HQ        -0.0038
     21 C21       -16.4660  -41.4360   -9.3120 C.3       1 1HQ         0.0455
     22 O22       -15.5440  -41.2290   -8.1740 O.3       1 1HQ        -0.3225
     23 C23       -15.5140  -40.1250   -7.4390 C.cat     1 1HQ         0.3455
     24 N24       -16.1990  -39.0650   -7.7080 N.pl3     1 1HQ        -0.2638
     25 C25       -16.8580  -37.6310   -9.4800 C.3       1 1HQ         0.2614
     26 F26       -17.2550  -36.6460   -8.5870 F         1 1HQ        -0.2150
     27 F27       -15.5220  -37.4610   -9.7160 F         1 1HQ        -0.2150
     28 N28       -14.7090  -40.1780   -6.2760 N.pl3     1 1HQ        -0.2512
     29 H1        -22.9487  -44.1634   -1.9084 H         1 1HQ         0.0844
     30 H2        -23.2438  -43.0010   -4.1114 H         1 1HQ         0.0781
     31 H3        -19.2245  -41.9251   -1.5080 H         1 1HQ         0.0939
     32 H4        -19.6342  -40.5795   -5.1121 H         1 1HQ         0.2251
     33 H5        -22.3654  -39.8792   -7.5824 H         1 1HQ         0.0763
     34 H6        -21.7646  -39.0659   -9.8936 H         1 1HQ         0.0657
     35 H7        -18.1200  -40.0200   -6.5989 H         1 1HQ         0.0677
     36 H8        -15.5691  -39.7455  -10.2956 H         1 1HQ         0.0231
     37 H9        -17.2581  -40.0956  -10.7971 H         1 1HQ         0.0231
     38 H10       -16.0538  -42.1656  -10.0246 H         1 1HQ         0.0549
     39 H11       -17.4506  -41.7804   -8.9629 H         1 1HQ         0.0549
     40 H12       -16.1326  -38.2471   -7.0854 H         1 1HQ         0.3118
     41 H13       -17.4219  -37.5270  -10.4187 H         1 1HQ         0.0956
     42 H14       -14.6401  -39.3558   -5.6594 H         1 1HQ         0.3201
     43 H15       -14.1921  -41.0388   -6.0462 H         1 1HQ         0.3201
@<TRIPOS>BOND
     1    2    1 ar 
     2    1    8 ar 
     3    3    2 ar 
     4    3    4 ar 
     5    9    3 1  
     6    4    5 ar 
     7    5    8 ar 
     8    6    9 am 
     9   13    6 1  
    10   15    7 ar 
    11    7   16 ar 
    12    7   18 1  
    13    8   11 1  
    14    9   10 2  
    15   11   12 3  
    16   14   13 ar 
    17   13   17 ar 
    18   14   15 ar 
    19   16   17 ar 
    20   16   19 1  
    21   19   20 1  
    22   19   24 1  
    23   19   25 1  
    24   20   21 1  
    25   21   22 1  
    26   22   23 1  
    27   23   24 ar 
    28   23   28 ar 
    29   25   26 1  
    30   25   27 1  
    31    1   29 1  
    32    2   30 1  
    33    5   31 1  
    34    6   32 1  
    35   14   33 1  
    36   15   34 1  
    37   17   35 1  
    38   20   36 1  
    39   20   37 1  
    40   21   38 1  
    41   21   39 1  
    42   24   40 1  
    43   25   41 1  
    44   28   42 1  
    45   28   43 1  
@<TRIPOS>SUBSTRUCTURE
     1 1HQ         1

