### 
### Created by X-TOOL on Mon Sep 10 21:13:13 2018
### 

@<TRIPOS>MOLECULE
4j1c_ligand
   43    45     1     0     0
SMALL
GAST_HUCK


@<TRIPOS>ATOM
      1 C27       -22.2170  -42.9960   -3.4060 C.ar      1 1HO        -0.0036
      2 C28       -20.5830  -44.0330   -0.2690 C.1       1 1HO         0.1128
      3 C26       -22.0030  -43.6840   -2.2270 C.ar      1 1HO        -0.0031
      4 O22       -22.4970  -41.3190   -5.7270 O.2       1 1HO        -0.3646
      5 C20       -21.4300  -41.3810   -5.0970 C.2       1 1HO         0.2558
      6 N19       -20.2600  -40.8590   -5.5540 N.am      1 1HO        -0.2263
      7 C15       -21.0950  -39.7170   -7.5310 C.ar      1 1HO        -0.0112
      8 C16       -20.8020  -39.1100   -8.7470 C.ar      1 1HO        -0.0061
      9 C17       -19.4790  -38.9830   -9.1580 C.ar      1 1HO         0.1530
     10 C1        -15.3870  -40.4380   -7.3950 C.cat     1 1HO         0.3457
     11 C3        -16.9540  -39.2770   -8.8030 C.3       1 1HO         0.1902
     12 C8        -18.4010  -39.4620   -8.3450 C.ar      1 1HO         0.0250
     13 C4        -16.5960  -40.4400   -9.7840 C.3       1 1HO         0.2957
     14 C5        -16.4590  -41.7710   -9.0750 C.3       1 1HO         0.1085
     15 C9        -16.8330  -37.8580   -9.3290 C.3       1 1HO         0.1172
     16 N2        -16.0250  -39.3270   -7.6950 N.pl3     1 1HO        -0.2616
     17 O6        -15.4100  -41.5630   -8.1170 O.3       1 1HO        -0.3167
     18 N7        -14.5860  -40.4690   -6.3070 N.pl3     1 1HO        -0.2512
     19 F10       -15.4500  -37.6410   -9.5670 F         1 1HO        -0.2544
     20 F11       -17.5010  -40.6190  -10.7730 F         1 1HO        -0.2088
     21 F12       -15.4510  -40.2430  -10.4920 F         1 1HO        -0.2088
     22 C13       -18.7080  -40.0390   -7.1600 C.ar      1 1HO        -0.0183
     23 C14       -20.0530  -40.1940   -6.7550 C.ar      1 1HO         0.0911
     24 F18       -19.1930  -38.3960  -10.3510 F         1 1HO        -0.1644
     25 C21       -21.2870  -42.0620   -3.8150 C.ar      1 1HO         0.1362
     26 N23       -20.1570  -41.8240   -3.1200 N.ar      1 1HO        -0.2641
     27 C24       -19.8530  -42.4650   -1.9910 C.ar      1 1HO         0.0510
     28 C25       -20.7990  -43.3760   -1.4970 C.ar      1 1HO         0.1267
     29 N29       -20.4210  -44.5580    0.7010 N.1       1 1HO        -0.3219
     30 H1        -23.1026  -43.1871   -4.0011 H         1 1HO         0.0781
     31 H2        -22.7096  -44.4230   -1.8669 H         1 1HO         0.0844
     32 H3        -19.4623  -40.9658   -4.9604 H         1 1HO         0.2251
     33 H4        -22.1215  -39.8149   -7.1966 H         1 1HO         0.0763
     34 H5        -21.6034  -38.7362   -9.3740 H         1 1HO         0.0657
     35 H6        -16.1840  -42.5637   -9.7863 H         1 1HO         0.0607
     36 H7        -17.3983  -42.0409   -8.5702 H         1 1HO         0.0607
     37 H8        -17.2087  -37.1416   -8.5837 H         1 1HO         0.0558
     38 H9        -17.4027  -37.7477  -10.2635 H         1 1HO         0.0558
     39 H10       -15.8605  -38.4800   -7.1325 H         1 1HO         0.3118
     40 H11       -14.0819  -41.3335   -6.0630 H         1 1HO         0.3201
     41 H12       -14.4796  -39.6282   -5.7217 H         1 1HO         0.3201
     42 H13       -17.9113  -40.3871   -6.5126 H         1 1HO         0.0677
     43 H14       -18.9150  -42.2898   -1.4767 H         1 1HO         0.0939
@<TRIPOS>BOND
     1    1    3 ar 
     2   25    1 ar 
     3   28    2 1  
     4    2   29 3  
     5    3   28 ar 
     6    5    4 2  
     7    6    5 am 
     8    5   25 1  
     9   23    6 1  
    10    8    7 ar 
    11    7   23 ar 
    12    9    8 ar 
    13   12    9 ar 
    14    9   24 1  
    15   16   10 ar 
    16   10   17 1  
    17   10   18 ar 
    18   11   12 1  
    19   11   13 1  
    20   11   15 1  
    21   11   16 1  
    22   12   22 ar 
    23   13   14 1  
    24   13   20 1  
    25   13   21 1  
    26   14   17 1  
    27   15   19 1  
    28   22   23 ar 
    29   25   26 ar 
    30   26   27 ar 
    31   27   28 ar 
    32    1   30 1  
    33    3   31 1  
    34    6   32 1  
    35    7   33 1  
    36    8   34 1  
    37   14   35 1  
    38   14   36 1  
    39   15   37 1  
    40   15   38 1  
    41   16   39 1  
    42   18   40 1  
    43   18   41 1  
    44   22   42 1  
    45   27   43 1  
@<TRIPOS>SUBSTRUCTURE
     1 1HO         1

