### 
### Created by X-TOOL on Mon Sep 10 21:13:12 2018
### 

@<TRIPOS>MOLECULE
4j1e_ligand
   46    48     1     0     0
SMALL
GAST_HUCK


@<TRIPOS>ATOM
      1 C1        -16.1320  -41.1170   -9.4690 C.3       1 1HM         0.1511
      2 C2        -16.2600  -39.7310  -10.0900 C.3       1 1HM         0.0046
      3 C4        -15.2620  -39.9600   -7.5490 C.cat     1 1HM         0.3459
      4 C6        -16.9130  -38.8110   -8.9850 C.3       1 1HM         0.1277
      5 C12       -19.4300  -38.9290   -9.5330 C.ar      1 1HM         0.1528
      6 C15       -16.8240  -37.2760   -9.2550 C.3       1 1HM         0.1115
      7 C17       -21.3020  -41.2030   -5.3160 C.2       1 1HM         0.2558
      8 C18       -21.1560  -41.8800   -4.0310 C.ar      1 1HM         0.1362
      9 O3        -15.2530  -41.0500   -8.2990 O.3       1 1HM        -0.3102
     10 N5        -16.0390  -38.9300   -7.8270 N.pl3     1 1HM        -0.2662
     11 C7        -18.3370  -39.1850   -8.6060 C.ar      1 1HM         0.0193
     12 C8        -18.6380  -39.6700   -7.3270 C.ar      1 1HM        -0.0185
     13 C9        -19.9900  -39.9360   -7.0290 C.ar      1 1HM         0.0911
     14 C10       -21.0820  -39.7360   -7.9760 C.ar      1 1HM        -0.0112
     15 C11       -20.7720  -39.2150   -9.2570 C.ar      1 1HM        -0.0061
     16 F13       -19.0980  -38.4810  -10.7620 F         1 1HM        -0.1644
     17 N14       -14.4550  -40.0600   -6.4130 N.pl3     1 1HM        -0.2512
     18 N16       -20.1830  -40.5810   -5.8010 N.am      1 1HM        -0.2263
     19 O19       -22.3570  -41.2570   -5.9370 O.2       1 1HM        -0.3646
     20 N20       -20.0690  -41.5830   -3.2800 N.ar      1 1HM        -0.2641
     21 C21       -19.7810  -42.2300   -2.1360 C.ar      1 1HM         0.0510
     22 C22       -20.6940  -43.1190   -1.6220 C.ar      1 1HM         0.1267
     23 C23       -21.8860  -43.4430   -2.3710 C.ar      1 1HM        -0.0031
     24 C24       -22.1550  -42.7850   -3.5810 C.ar      1 1HM        -0.0036
     25 C25       -20.4660  -43.7460   -0.3510 C.1       1 1HM         0.1128
     26 N26       -20.2930  -44.2550    0.6620 N.1       1 1HM        -0.3219
     27 C27       -15.4650  -42.0660  -10.5340 C.3       1 1HM         0.4146
     28 F28       -14.2530  -41.5840  -10.8790 F         1 1HM        -0.1680
     29 F29       -15.3230  -43.2360   -9.8920 F         1 1HM        -0.1680
     30 F30       -16.3650  -42.1530  -11.5690 F         1 1HM        -0.1680
     31 F31       -15.4720  -36.9680   -9.6680 F         1 1HM        -0.2546
     32 H1        -17.1224  -41.4980   -9.1792 H         1 1HM         0.0674
     33 H2        -16.9029  -39.7707  -10.9817 H         1 1HM         0.0236
     34 H3        -15.2685  -39.3455  -10.3697 H         1 1HM         0.0236
     35 H4        -17.0685  -36.7215   -8.3370 H         1 1HM         0.0556
     36 H5        -17.5295  -36.9963  -10.0512 H         1 1HM         0.0556
     37 H6        -16.0258  -38.1403   -7.1659 H         1 1HM         0.3117
     38 H7        -17.8586  -39.8351   -6.5919 H         1 1HM         0.0677
     39 H8        -22.1034  -39.9795   -7.7068 H         1 1HM         0.0763
     40 H9        -21.5462  -39.0442   -9.9963 H         1 1HM         0.0657
     41 H10       -14.3877  -39.2681   -5.7578 H         1 1HM         0.3201
     42 H11       -13.9273  -40.9256   -6.2307 H         1 1HM         0.3201
     43 H12       -19.3903  -40.5883   -5.1914 H         1 1HM         0.2251
     44 H13       -18.8409  -42.0522   -1.6264 H         1 1HM         0.0939
     45 H14       -22.5727  -44.1944   -1.9984 H         1 1HM         0.0844
     46 H15       -23.0688  -42.9566   -4.1383 H         1 1HM         0.0781
@<TRIPOS>BOND
     1    2    1 1  
     2    1    9 1  
     3    1   27 1  
     4    4    2 1  
     5    3    9 1  
     6   10    3 ar 
     7    3   17 ar 
     8    4    6 1  
     9    4   10 1  
    10   11    4 1  
    11   11    5 ar 
    12    5   15 ar 
    13    5   16 1  
    14    6   31 1  
    15    7    8 1  
    16   18    7 am 
    17    7   19 2  
    18    8   20 ar 
    19    8   24 ar 
    20   12   11 ar 
    21   13   12 ar 
    22   13   14 ar 
    23   13   18 1  
    24   14   15 ar 
    25   20   21 ar 
    26   21   22 ar 
    27   22   23 ar 
    28   22   25 1  
    29   23   24 ar 
    30   25   26 3  
    31   27   28 1  
    32   27   29 1  
    33   27   30 1  
    34    1   32 1  
    35    2   33 1  
    36    2   34 1  
    37    6   35 1  
    38    6   36 1  
    39   10   37 1  
    40   12   38 1  
    41   14   39 1  
    42   15   40 1  
    43   17   41 1  
    44   17   42 1  
    45   18   43 1  
    46   21   44 1  
    47   23   45 1  
    48   24   46 1  
@<TRIPOS>SUBSTRUCTURE
     1 1HM         1

