### 
### Created by X-TOOL on Mon Sep 10 21:13:15 2018
### 

@<TRIPOS>MOLECULE
4j1f_ligand
   46    48     1     0     0
SMALL
GAST_HUCK


@<TRIPOS>ATOM
      1 C1        -15.7050  -42.0000   -9.4990 C.3       1 1HL         0.1510
      2 C2        -15.9970  -40.6260  -10.1230 C.3       1 1HL         0.0019
      3 O3        -14.8330  -41.9060   -8.3660 O.3       1 1HL        -0.3102
      4 C4        -14.8050  -40.7560   -7.6450 C.cat     1 1HL         0.3459
      5 N5        -15.5480  -39.6980   -7.8860 N.pl3     1 1HL        -0.2687
      6 C6        -16.4430  -39.6130   -9.0300 C.3       1 1HL         0.0971
      7 C7        -17.9090  -39.9350   -8.6870 C.ar      1 1HL         0.0166
      8 C8        -18.1890  -40.4810   -7.4450 C.ar      1 1HL        -0.0186
      9 C9        -19.5110  -40.8060   -7.1170 C.ar      1 1HL         0.0911
     10 C10       -20.5760  -40.6310   -8.0260 C.ar      1 1HL        -0.0112
     11 C11       -20.2750  -40.1130   -9.2890 C.ar      1 1HL        -0.0061
     12 C12       -18.9500  -39.7500   -9.6220 C.ar      1 1HL         0.1528
     13 F13       -18.6970  -39.2530  -10.8980 F         1 1HL        -0.1644
     14 N14       -13.9410  -40.7700   -6.5520 N.pl3     1 1HL        -0.2512
     15 C15       -16.2390  -38.1930   -9.5850 C.3       1 1HL        -0.0443
     16 N16       -19.6800  -41.3850   -5.8800 N.am      1 1HL        -0.2263
     17 C17       -20.8110  -41.9620   -5.3680 C.2       1 1HL         0.2558
     18 C18       -20.6730  -42.5710   -4.0420 C.ar      1 1HL         0.1362
     19 O19       -21.8840  -41.9830   -5.9400 O.2       1 1HL        -0.3646
     20 N20       -19.5620  -42.2940   -3.3320 N.ar      1 1HL        -0.2641
     21 C21       -19.3710  -42.8200   -2.1230 C.ar      1 1HL         0.0510
     22 C22       -20.3130  -43.7210   -1.5640 C.ar      1 1HL         0.1267
     23 C23       -21.4900  -44.0540   -2.3260 C.ar      1 1HL        -0.0031
     24 C24       -21.6770  -43.4640   -3.5860 C.ar      1 1HL        -0.0036
     25 C25       -20.0910  -44.2930   -0.2600 C.1       1 1HL         0.1128
     26 N26       -19.9390  -44.7650    0.7820 N.1       1 1HL        -0.3219
     27 C27       -14.9510  -42.8650  -10.5180 C.3       1 1HL         0.4146
     28 F28       -14.6770  -44.1010   -9.9320 F         1 1HL        -0.1680
     29 F29       -15.8510  -43.1370  -11.5240 F         1 1HL        -0.1680
     30 F30       -13.7790  -42.2130  -11.0150 F         1 1HL        -0.1680
     31 H1        -16.6526  -42.4771   -9.2084 H         1 1HL         0.0674
     32 H2        -16.7992  -40.7304  -10.8683 H         1 1HL         0.0235
     33 H3        -15.0869  -40.2509  -10.6139 H         1 1HL         0.0235
     34 H4        -15.4942  -38.8980   -7.2394 H         1 1HL         0.3116
     35 H5        -17.3909  -40.6553   -6.7325 H         1 1HL         0.0677
     36 H6        -21.5930  -40.8895   -7.7541 H         1 1HL         0.0763
     37 H7        -21.0654  -39.9884  -10.0203 H         1 1HL         0.0657
     38 H8        -13.8580  -39.9381   -5.9504 H         1 1HL         0.3201
     39 H9        -13.3853  -41.6123   -6.3456 H         1 1HL         0.3201
     40 H10       -16.5479  -37.4560   -8.8291 H         1 1HL         0.0172
     41 H11       -16.8463  -38.0634  -10.4930 H         1 1HL         0.0172
     42 H12       -15.1770  -38.0440   -9.8298 H         1 1HL         0.0172
     43 H13       -18.8786  -41.3841   -5.2819 H         1 1HL         0.2251
     44 H14       -18.4838  -42.5558   -1.5590 H         1 1HL         0.0939
     45 H15       -22.2210  -44.7506   -1.9316 H         1 1HL         0.0844
     46 H16       -22.5529  -43.6818   -4.1863 H         1 1HL         0.0781
@<TRIPOS>BOND
     1    1    2 1  
     2    1    3 1  
     3    1   27 1  
     4    2    6 1  
     5    3    4 1  
     6    4    5 ar 
     7    4   14 ar 
     8    5    6 1  
     9    6    7 1  
    10    6   15 1  
    11    7    8 ar 
    12    7   12 ar 
    13    8    9 ar 
    14    9   10 ar 
    15    9   16 1  
    16   10   11 ar 
    17   11   12 ar 
    18   12   13 1  
    19   16   17 am 
    20   17   18 1  
    21   17   19 2  
    22   18   20 ar 
    23   18   24 ar 
    24   20   21 ar 
    25   21   22 ar 
    26   22   23 ar 
    27   22   25 1  
    28   23   24 ar 
    29   25   26 3  
    30   27   28 1  
    31   27   29 1  
    32   27   30 1  
    33    1   31 1  
    34    2   32 1  
    35    2   33 1  
    36    5   34 1  
    37    8   35 1  
    38   10   36 1  
    39   11   37 1  
    40   14   38 1  
    41   14   39 1  
    42   15   40 1  
    43   15   41 1  
    44   15   42 1  
    45   16   43 1  
    46   21   44 1  
    47   23   45 1  
    48   24   46 1  
@<TRIPOS>SUBSTRUCTURE
     1 1HL         1

