### 
### Created by X-TOOL on Mon Sep 10 21:13:14 2018
### 

@<TRIPOS>MOLECULE
4j1h_ligand
   46    48     1     0     0
SMALL
GAST_HUCK


@<TRIPOS>ATOM
      1 C1         14.6520   40.9890   -9.7980 C.3       1 1HJ         0.1510
      2 C2         16.0300   40.3540   -9.9920 C.3       1 1HJ         0.0019
      3 O3         14.5460   41.3950   -8.4100 O.3       1 1HJ        -0.3102
      4 C4         14.6810   40.3910   -7.5620 C.cat     1 1HJ         0.3459
      5 N5         15.4580   39.3830   -7.7730 N.pl3     1 1HJ        -0.2687
      6 C6         16.2630   39.2090   -8.9670 C.3       1 1HJ         0.0971
      7 C7         17.6800   39.3920   -8.5390 C.ar      1 1HJ         0.0166
      8 C8         17.9560   39.9510   -7.3190 C.ar      1 1HJ        -0.0186
      9 C9         19.2970   40.1260   -6.9780 C.ar      1 1HJ         0.0911
     10 C10        20.3620   39.8590   -7.8600 C.ar      1 1HJ        -0.0112
     11 C11        20.0530   39.3160   -9.0860 C.ar      1 1HJ        -0.0061
     12 C12        18.7320   39.1010   -9.4210 C.ar      1 1HJ         0.1528
     13 F13        18.5000   38.5740  -10.6320 F         1 1HJ        -0.1644
     14 N14        13.9600   40.4610   -6.3950 N.pl3     1 1HJ        -0.2512
     15 C15        15.9510   37.8570   -9.6510 C.3       1 1HJ        -0.0443
     16 N16        19.5750   40.7300   -5.7800 N.am      1 1HJ        -0.2263
     17 C17        20.7540   41.2730   -5.4000 C.2       1 1HJ         0.2558
     18 C18        20.7100   41.9840   -4.1100 C.ar      1 1HJ         0.1362
     19 O19        21.7740   41.2570   -6.0810 O.2       1 1HJ        -0.3646
     20 N20        19.6590   41.7760   -3.3210 N.ar      1 1HJ        -0.2641
     21 C21        19.5040   42.3960   -2.1690 C.ar      1 1HJ         0.0510
     22 C22        20.4500   43.3380   -1.7790 C.ar      1 1HJ         0.1267
     23 C23        21.5950   43.6370   -2.5950 C.ar      1 1HJ        -0.0031
     24 C24        21.7170   42.9250   -3.7960 C.ar      1 1HJ        -0.0036
     25 C25        20.2590   43.9800   -0.5220 C.1       1 1HJ         0.1128
     26 N26        20.0860   44.4790    0.4740 N.1       1 1HJ        -0.3219
     27 C27        14.6270   42.2980  -10.5940 C.3       1 1HJ         0.4146
     28 F28        14.7150   41.9730  -11.9380 F         1 1HJ        -0.1680
     29 F29        13.3450   42.8360  -10.4220 F         1 1HJ        -0.1680
     30 F30        15.6820   43.2020  -10.1920 F         1 1HJ        -0.1680
     31 H1         13.8434   40.3050  -10.0951 H         1 1HJ         0.0674
     32 H2         16.8037   41.1236   -9.8541 H         1 1HJ         0.0235
     33 H3         16.0976   39.9445  -11.0107 H         1 1HJ         0.0235
     34 H4         15.5101   38.6546   -7.0466 H         1 1HJ         0.3116
     35 H5         17.1613   40.2464   -6.6436 H         1 1HJ         0.0677
     36 H6         21.3879   40.0735   -7.5831 H         1 1HJ         0.0763
     37 H7         20.8419   39.0590   -9.7836 H         1 1HJ         0.0657
     38 H8         14.0298   39.7038   -5.7003 H         1 1HJ         0.3201
     39 H9         13.3495   41.2707   -6.2146 H         1 1HJ         0.3201
     40 H10        16.1124   37.0379   -8.9348 H         1 1HJ         0.0172
     41 H11        16.6151   37.7225  -10.5175 H         1 1HJ         0.0172
     42 H12        14.9036   37.8491   -9.9870 H         1 1HJ         0.0172
     43 H13        18.8277   40.7740   -5.1170 H         1 1HJ         0.2251
     44 H14        18.6527   42.1755   -1.5352 H         1 1HJ         0.0939
     45 H15        22.3284   44.3771   -2.2960 H         1 1HJ         0.0844
     46 H16        22.5560   43.0905   -4.4622 H         1 1HJ         0.0781
@<TRIPOS>BOND
     1    1    2 1  
     2    1    3 1  
     3    1   27 1  
     4    2    6 1  
     5    3    4 1  
     6    4    5 ar 
     7    4   14 ar 
     8    5    6 1  
     9    6    7 1  
    10    6   15 1  
    11    7    8 ar 
    12    7   12 ar 
    13    8    9 ar 
    14    9   10 ar 
    15    9   16 1  
    16   10   11 ar 
    17   11   12 ar 
    18   12   13 1  
    19   16   17 am 
    20   17   18 1  
    21   17   19 2  
    22   18   20 ar 
    23   18   24 ar 
    24   20   21 ar 
    25   21   22 ar 
    26   22   23 ar 
    27   22   25 1  
    28   23   24 ar 
    29   25   26 3  
    30   27   28 1  
    31   27   29 1  
    32   27   30 1  
    33    1   31 1  
    34    2   32 1  
    35    2   33 1  
    36    5   34 1  
    37    8   35 1  
    38   10   36 1  
    39   11   37 1  
    40   14   38 1  
    41   14   39 1  
    42   15   40 1  
    43   15   41 1  
    44   15   42 1  
    45   16   43 1  
    46   21   44 1  
    47   23   45 1  
    48   24   46 1  
@<TRIPOS>SUBSTRUCTURE
     1 1HJ         1

