### 
### Created by X-TOOL on Mon Sep 10 21:13:14 2018
### 

@<TRIPOS>MOLECULE
4j1i_ligand
   46    48     1     0     0
SMALL
GAST_HUCK


@<TRIPOS>ATOM
      1 C8         20.5320  -40.3270    8.0100 C.ar      1 1HH        -0.0112
      2 C3         15.2630  -41.3480    9.6100 C.3       1 1HH         0.1815
      3 C5         14.9730  -40.3870    7.4090 C.cat     1 1HH         0.3460
      4 C9         20.1950  -39.8020    9.2570 C.ar      1 1HH        -0.0061
      5 C11        18.1700  -40.0390    7.2950 C.ar      1 1HH        -0.0185
      6 C14        17.8340  -39.5350    8.5300 C.ar      1 1HH         0.0193
      7 C7         19.5010  -40.4240    7.0190 C.ar      1 1HH         0.0911
      8 C2         15.8000  -39.9460    9.9840 C.3       1 1HH         0.1561
      9 C21        20.9170  -41.4560    5.2660 C.2       1 1HH         0.2558
     10 C22        20.8590  -42.1060    3.9280 C.ar      1 1HH         0.1362
     11 C12        16.3840  -37.6470    9.3120 C.3       1 1HH        -0.0415
     12 C10        18.8550  -39.4130    9.5020 C.ar      1 1HH         0.1528
     13 C1         16.4180  -39.1120    8.8390 C.3       1 1HH         0.1279
     14 O4         15.0430  -41.4780    8.1960 O.3       1 1HH        -0.3073
     15 N6         15.6050  -39.2720    7.6380 N.pl3     1 1HH        -0.2662
     16 F13        18.5410  -38.9040   10.7140 F         1 1HH        -0.1644
     17 F15        16.4480  -42.3040   11.3750 F         1 1HH        -0.1679
     18 F16        15.7250  -43.6610    9.7680 F         1 1HH        -0.1679
     19 F17        17.4330  -42.4490    9.3430 F         1 1HH        -0.1679
     20 F18        14.6370  -39.2820   10.3370 F         1 1HH        -0.2481
     21 N19        14.2540  -40.5290    6.2530 N.pl3     1 1HH        -0.2512
     22 N20        19.7400  -40.9960    5.7640 N.am      1 1HH        -0.2263
     23 O23        21.9340  -41.4220    5.9340 O.2       1 1HH        -0.3646
     24 C24        21.7930  -43.0990    3.5790 C.ar      1 1HH        -0.0036
     25 C25        21.6350  -43.7280    2.3320 C.ar      1 1HH        -0.0031
     26 C26        20.5240  -43.3630    1.5220 C.ar      1 1HH         0.1267
     27 C27        19.6430  -42.3750    1.9700 C.ar      1 1HH         0.0510
     28 N28        19.8450  -41.8330    3.1440 N.ar      1 1HH        -0.2641
     29 C29        20.3210  -43.9620    0.2310 C.1       1 1HH         0.1128
     30 N30        20.1680  -44.4330   -0.7910 N.1       1 1HH        -0.3219
     31 C31        16.2400  -42.4340   10.0350 C.3       1 1HH         0.4173
     32 H1         21.5438  -40.6522    7.7963 H         1 1HH         0.0763
     33 H2         14.3075  -41.5012   10.1330 H         1 1HH         0.0703
     34 H3         20.9484  -39.6929   10.0288 H         1 1HH         0.0657
     35 H4         17.4094  -40.1413    6.5294 H         1 1HH         0.0677
     36 H5         16.5160  -40.0202   10.8158 H         1 1HH         0.0621
     37 H6         16.8141  -37.0002    8.5331 H         1 1HH         0.0172
     38 H7         16.9706  -37.5466   10.2371 H         1 1HH         0.0172
     39 H8         15.3430  -37.3476    9.5036 H         1 1HH         0.0172
     40 H9         15.5304  -38.4957    6.9652 H         1 1HH         0.3117
     41 H10        14.1594  -39.7344    5.6045 H         1 1HH         0.3201
     42 H11        13.8075  -41.4304    6.0316 H         1 1HH         0.3201
     43 H12        18.9470  -41.0758    5.1600 H         1 1HH         0.2251
     44 H13        22.6035  -43.3686    4.2465 H         1 1HH         0.0781
     45 H14        22.3444  -44.4751    1.9948 H         1 1HH         0.0844
     46 H15        18.8064  -42.0628    1.3554 H         1 1HH         0.0939
@<TRIPOS>BOND
     1    1    4 ar 
     2    7    1 ar 
     3    8    2 1  
     4    2   14 1  
     5    2   31 1  
     6   14    3 1  
     7    3   15 ar 
     8    3   21 ar 
     9    4   12 ar 
    10    5    6 ar 
    11    7    5 ar 
    12    6   12 ar 
    13    6   13 1  
    14   22    7 1  
    15   13    8 1  
    16    8   20 1  
    17    9   10 1  
    18    9   22 am 
    19    9   23 2  
    20   10   24 ar 
    21   10   28 ar 
    22   13   11 1  
    23   12   16 1  
    24   13   15 1  
    25   31   17 1  
    26   31   18 1  
    27   31   19 1  
    28   24   25 ar 
    29   25   26 ar 
    30   26   27 ar 
    31   26   29 1  
    32   27   28 ar 
    33   29   30 3  
    34    1   32 1  
    35    2   33 1  
    36    4   34 1  
    37    5   35 1  
    38    8   36 1  
    39   11   37 1  
    40   11   38 1  
    41   11   39 1  
    42   15   40 1  
    43   21   41 1  
    44   21   42 1  
    45   22   43 1  
    46   24   44 1  
    47   25   45 1  
    48   27   46 1  
@<TRIPOS>SUBSTRUCTURE
     1 1HH         1

