### 
### Created by X-TOOL on Mon Sep 10 21:13:14 2018
### 

@<TRIPOS>MOLECULE
4j1k_ligand
   46    48     1     0     0
SMALL
GAST_HUCK


@<TRIPOS>ATOM
      1 C1        -15.9580  -41.5740   -9.2490 C.3       1 1HG         0.1815
      2 C2        -16.1220  -40.2010   -9.8920 C.3       1 1HG         0.1561
      3 O3        -15.0300  -41.4230   -8.1630 O.3       1 1HG        -0.3073
      4 C4        -15.0100  -40.3360   -7.4330 C.cat     1 1HG         0.3460
      5 N5        -15.7230  -39.2590   -7.6490 N.pl3     1 1HG        -0.2662
      6 C6        -16.6000  -39.2070   -8.8240 C.3       1 1HG         0.1279
      7 C7        -18.0130  -39.5880   -8.4830 C.ar      1 1HG         0.0193
      8 C8        -18.3140  -40.1260   -7.2660 C.ar      1 1HG        -0.0185
      9 C9        -19.6560  -40.4620   -6.9760 C.ar      1 1HG         0.0911
     10 C10       -20.7010  -40.3530   -7.9150 C.ar      1 1HG        -0.0112
     11 C11       -20.3870  -39.8100   -9.1520 C.ar      1 1HG        -0.0061
     12 C12       -19.0580  -39.4070   -9.3980 C.ar      1 1HG         0.1528
     13 F13       -18.7790  -38.9220  -10.6080 F         1 1HG        -0.1644
     14 N14       -14.1660  -40.4830   -6.3800 N.pl3     1 1HG        -0.2512
     15 C15       -16.4830  -37.8220   -9.4630 C.3       1 1HG        -0.0415
     16 N16       -19.8850  -41.0220   -5.7260 N.am      1 1HG        -0.2263
     17 C17       -21.0230  -41.5310   -5.2280 C.2       1 1HG         0.2558
     18 C18       -20.9120  -42.1750   -3.9150 C.ar      1 1HG         0.1362
     19 O19       -22.0650  -41.5380   -5.8580 O.2       1 1HG        -0.3646
     20 N20       -19.8220  -41.9380   -3.1650 N.ar      1 1HG        -0.2641
     21 C21       -19.6010  -42.4810   -1.9880 C.ar      1 1HG         0.0510
     22 C22       -20.5070  -43.4290   -1.5220 C.ar      1 1HG         0.1267
     23 C23       -21.6610  -43.7540   -2.3080 C.ar      1 1HG        -0.0031
     24 C24       -21.8910  -43.1200   -3.5370 C.ar      1 1HG        -0.0036
     25 C25       -20.2890  -44.0520   -0.2370 C.1       1 1HG         0.1128
     26 N26       -20.1070  -44.5440    0.7890 N.1       1 1HG        -0.3219
     27 C27       -15.2750  -42.5070  -10.2730 C.3       1 1HG         0.4173
     28 F28       -14.0010  -42.1130  -10.6220 F         1 1HG        -0.1679
     29 F29       -15.2990  -43.7950   -9.7630 F         1 1HG        -0.1679
     30 F30       -15.9510  -42.4870  -11.4370 F         1 1HG        -0.1679
     31 F31       -14.8660  -39.8220  -10.3640 F         1 1HG        -0.2481
     32 H1        -16.9232  -41.9789   -8.9109 H         1 1HG         0.0703
     33 H2        -16.8463  -40.2437  -10.7188 H         1 1HG         0.0621
     34 H3        -15.6688  -38.4590   -7.0025 H         1 1HG         0.3117
     35 H4        -17.5346  -40.2935   -6.5314 H         1 1HG         0.0677
     36 H5        -21.7076  -40.6797   -7.6805 H         1 1HG         0.0763
     37 H6        -21.1485  -39.6975   -9.9152 H         1 1HG         0.0657
     38 H7        -14.0398  -39.7114   -5.7095 H         1 1HG         0.3201
     39 H8        -13.6518  -41.3662   -6.2515 H         1 1HG         0.3201
     40 H9        -16.8129  -37.0575   -8.7442 H         1 1HG         0.0172
     41 H10       -17.1162  -37.7780  -10.3614 H         1 1HG         0.0172
     42 H11       -15.4359  -37.6345   -9.7428 H         1 1HG         0.0172
     43 H12       -19.0949  -41.0499   -5.1137 H         1 1HG         0.2251
     44 H13       -18.7373  -42.1981   -1.3972 H         1 1HG         0.0939
     45 H14       -22.3630  -44.4976   -1.9483 H         1 1HG         0.0844
     46 H15       -22.7565  -43.3390   -4.1518 H         1 1HG         0.0781
@<TRIPOS>BOND
     1    1    2 1  
     2    1    3 1  
     3    1   27 1  
     4    2    6 1  
     5    2   31 1  
     6    3    4 1  
     7    4    5 ar 
     8    4   14 ar 
     9    5    6 1  
    10    6    7 1  
    11    6   15 1  
    12    7    8 ar 
    13    7   12 ar 
    14    8    9 ar 
    15    9   10 ar 
    16    9   16 1  
    17   10   11 ar 
    18   11   12 ar 
    19   12   13 1  
    20   16   17 am 
    21   17   18 1  
    22   17   19 2  
    23   18   20 ar 
    24   18   24 ar 
    25   20   21 ar 
    26   21   22 ar 
    27   22   23 ar 
    28   22   25 1  
    29   23   24 ar 
    30   25   26 3  
    31   27   28 1  
    32   27   29 1  
    33   27   30 1  
    34    1   32 1  
    35    2   33 1  
    36    5   34 1  
    37    8   35 1  
    38   10   36 1  
    39   11   37 1  
    40   14   38 1  
    41   14   39 1  
    42   15   40 1  
    43   15   41 1  
    44   15   42 1  
    45   16   43 1  
    46   21   44 1  
    47   23   45 1  
    48   24   46 1  
@<TRIPOS>SUBSTRUCTURE
     1 1HG         1

