### 
### Created by X-TOOL on Mon Sep 10 21:13:16 2018
### 

@<TRIPOS>MOLECULE
4j1p_ligand
   49    51     1     0     0
SMALL
GAST_HUCK


@<TRIPOS>ATOM
      1 O1         14.5830   21.1100   -7.3150 O.3       1 1K0        -0.3230
      2 C1         15.5120   22.0300   -6.7020 C.3       1 1K0         0.0600
      3 C2         13.3790   20.9580   -6.7520 C.ar      1 1K0         0.0796
      4 C3         12.5510   20.0230   -7.3590 C.ar      1 1K0        -0.0062
      5 C4         11.3090   19.7610   -6.8550 C.ar      1 1K0         0.0986
      6 N1          9.2490   20.9720   -3.9930 N.am      1 1K0        -0.2048
      7 C5         10.7910   18.4110   -8.7730 C.3       1 1K0         0.0607
      8 O2         10.4280   18.9030   -7.4710 O.3       1 1K0        -0.3202
      9 C6         10.8260   20.4160   -5.6890 C.ar      1 1K0         0.0799
     10 O3          8.6570   24.6660    1.1930 O.3       1 1K0        -0.3170
     11 N2         11.2900   22.1520   -4.0120 N.2       1 1K0        -0.3082
     12 C7          9.5800   20.1500   -5.0640 C.2       1 1K0         0.2215
     13 C8         10.1050   21.9130   -3.4900 C.2       1 1K0         0.1489
     14 O4          7.1620   25.0360    3.5290 O.3       1 1K0        -0.3924
     15 O5          8.7870   19.2520   -5.3630 O.2       1 1K0        -0.3966
     16 C9          9.6680   22.6690   -2.2800 C.ar      1 1K0         0.0219
     17 C18         8.4030   22.7770   -1.9070 C.ar      1 1K0        -0.0529
     18 C16         8.0130   23.3830   -0.7220 C.ar      1 1K0        -0.0134
     19 C17         6.5660   23.4710   -0.2940 C.3       1 1K0        -0.0328
     20 C13         9.0330   24.0140    0.0230 C.ar      1 1K0         0.1035
     21 C14         8.7930   23.8560    2.3780 C.3       1 1K0         0.0925
     22 C15         8.4990   24.6730    3.6170 C.3       1 1K0         0.0718
     23 C11        10.3550   23.9730   -0.3440 C.ar      1 1K0        -0.0134
     24 C12        11.3840   24.6510    0.4600 C.3       1 1K0        -0.0328
     25 C10        10.6650   23.3210   -1.5340 C.ar      1 1K0        -0.0529
     26 C19        11.7010   21.4130   -5.1390 C.ar      1 1K0         0.0024
     27 C20        12.9480   21.6510   -5.6430 C.ar      1 1K0        -0.0348
     28 H          16.4491   22.0428   -7.2778 H         1 1K0         0.0579
     29 H          15.7198   21.7086   -5.6707 H         1 1K0         0.0579
     30 H          15.0749   23.0393   -6.6906 H         1 1K0         0.0579
     31 H          12.8939   19.4957   -8.2419 H         1 1K0         0.0420
     32 H           8.3473   20.8712   -3.5726 H         1 1K0         0.2481
     33 H          10.0021   17.7405   -9.1446 H         1 1K0         0.0581
     34 H          11.7397   17.8585   -8.7048 H         1 1K0         0.0581
     35 H          10.9087   19.2577   -9.4653 H         1 1K0         0.0581
     36 H           6.6240   24.2536    3.4980 H         1 1K0         0.2095
     37 H           7.6360   22.3731   -2.5578 H         1 1K0         0.0544
     38 H           5.9386   22.9148   -1.0060 H         1 1K0         0.0367
     39 H           6.2527   24.5253   -0.2750 H         1 1K0         0.0367
     40 H           6.4536   23.0369    0.7104 H         1 1K0         0.0367
     41 H           9.8210   23.4690    2.4356 H         1 1K0         0.0636
     42 H           8.0868   23.0144    2.3238 H         1 1K0         0.0636
     43 H           8.6728   24.0714    4.5213 H         1 1K0         0.0584
     44 H           9.1370   25.5686    3.6442 H         1 1K0         0.0584
     45 H          12.3704   24.4977   -0.0022 H         1 1K0         0.0367
     46 H          11.3874   24.2344    1.4780 H         1 1K0         0.0367
     47 H          11.1636   25.7277    0.5051 H         1 1K0         0.0367
     48 H          11.6888   23.3160   -1.8901 H         1 1K0         0.0544
     49 H          13.5953   22.3820   -5.1721 H         1 1K0         0.0390
@<TRIPOS>BOND
     1    1    2 1  
     2    3    1 1  
     3    4    3 ar 
     4    3   27 ar 
     5    5    4 ar 
     6    5    8 1  
     7    9    5 ar 
     8    6   12 am 
     9   13    6 1  
    10    8    7 1  
    11   12    9 1  
    12   26    9 ar 
    13   10   20 1  
    14   21   10 1  
    15   13   11 2  
    16   11   26 1  
    17   12   15 2  
    18   16   13 1  
    19   22   14 1  
    20   17   16 ar 
    21   16   25 ar 
    22   18   17 ar 
    23   18   19 1  
    24   20   18 ar 
    25   20   23 ar 
    26   21   22 1  
    27   23   24 1  
    28   23   25 ar 
    29   26   27 ar 
    30    2   28 1  
    31    2   29 1  
    32    2   30 1  
    33    4   31 1  
    34    6   32 1  
    35    7   33 1  
    36    7   34 1  
    37    7   35 1  
    38   14   36 1  
    39   17   37 1  
    40   19   38 1  
    41   19   39 1  
    42   19   40 1  
    43   21   41 1  
    44   21   42 1  
    45   22   43 1  
    46   22   44 1  
    47   24   45 1  
    48   24   46 1  
    49   24   47 1  
    50   25   48 1  
    51   27   49 1  
@<TRIPOS>SUBSTRUCTURE
     1 1K0         1

