### 
### Created by X-TOOL on Mon Sep 10 21:13:15 2018
### 

@<TRIPOS>MOLECULE
4j21_ligand
   33    35     1     0     0
SMALL
GAST_HUCK


@<TRIPOS>ATOM
      1 C4        -12.4600    1.8530   14.2040 C.2       1 AJ6         0.1909
      2 C8        -12.1000    2.5450   11.9470 C.ar      1 AJ6         0.0867
      3 C10       -11.7770    3.2110    9.6340 C.ar      1 AJ6        -0.0339
      4 C13       -10.2290    3.1630    6.1770 C.ar      1 AJ6        -0.0416
      5 C17       -12.5250    2.0800    7.4540 C.ar      1 AJ6         0.0389
      6 C20       -11.9010    4.9090   11.3700 C.ar      1 AJ6        -0.0597
      7 C21       -12.0880    3.9300   12.3750 C.ar      1 AJ6         0.0171
      8 C1        -12.3270    5.7480   14.3470 C.3       1 AJ6        -0.0261
      9 C2        -12.2830    4.2770   13.8120 C.2       1 AJ6        -0.0322
     10 C3        -12.4580    3.2350   14.6730 C.2       1 AJ6        -0.0026
     11 O5        -12.6530    0.9230   15.0080 O.2       1 AJ6        -0.4134
     12 N6        -12.2920    1.5530   12.8830 N.am      1 AJ6        -0.2330
     13 C9        -11.9290    2.2080   10.6070 C.ar      1 AJ6        -0.0288
     14 C11       -11.5820    2.8860    8.1800 C.ar      1 AJ6        -0.0170
     15 C12       -10.4410    3.4030    7.5190 C.ar      1 AJ6        -0.0632
     16 C14       -11.1640    2.4040    5.4830 C.ar      1 AJ6         0.0386
     17 N15       -10.9630    2.1650    4.1270 N.pl3     1 AJ6        -0.3354
     18 C16       -12.2980    1.8580    6.1040 C.ar      1 AJ6        -0.0280
     19 CL        -13.9790    1.4080    8.1850 Cl        1 AJ6        -0.0716
     20 C19       -11.7290    4.5470   10.0440 C.ar      1 AJ6        -0.0657
     21 H1         -9.3529    3.5575    5.6751 H         1 AJ6         0.0526
     22 H2        -11.8922    5.9582   11.6422 H         1 AJ6         0.0616
     23 H3        -12.4806    5.7376   15.4362 H         1 AJ6         0.0426
     24 H4        -13.1548    6.2888   13.8652 H         1 AJ6         0.0426
     25 H5        -11.3765    6.2509   14.1156 H         1 AJ6         0.0426
     26 H6        -12.5993    3.4380   15.7335 H         1 AJ6         0.0416
     27 H7        -12.3086    0.5970   12.5899 H         1 AJ6         0.2355
     28 H8        -11.9130    1.1650   10.3120 H         1 AJ6         0.0505
     29 H9         -9.7240    3.9957    8.0755 H         1 AJ6         0.0602
     30 H10       -11.6451    1.6047    3.5962 H         1 AJ6         0.1732
     31 H11       -10.1321    2.5483    3.6541 H         1 AJ6         0.1732
     32 H12       -12.9969    1.2623    5.5280 H         1 AJ6         0.0529
     33 H13       -11.5525    5.3198    9.3047 H         1 AJ6         0.0510
@<TRIPOS>BOND
     1    1   10 1  
     2    1   11 2  
     3   12    1 am 
     4    2    7 ar 
     5    2   12 1  
     6   13    2 ar 
     7    3   13 ar 
     8   14    3 1  
     9    3   20 ar 
    10   15    4 ar 
    11    4   16 ar 
    12   14    5 ar 
    13    5   18 ar 
    14    5   19 1  
    15    6    7 ar 
    16   20    6 ar 
    17    7    9 1  
    18    9    8 1  
    19    9   10 2  
    20   14   15 ar 
    21   16   17 1  
    22   16   18 ar 
    23    4   21 1  
    24    6   22 1  
    25    8   23 1  
    26    8   24 1  
    27    8   25 1  
    28   10   26 1  
    29   12   27 1  
    30   13   28 1  
    31   15   29 1  
    32   17   30 1  
    33   17   31 1  
    34   18   32 1  
    35   20   33 1  
@<TRIPOS>SUBSTRUCTURE
     1 AJ6         1

