### 
### Created by X-TOOL on Mon Sep 10 21:13:14 2018
### 

@<TRIPOS>MOLECULE
4j22_ligand
   55    58     1     0     0
SMALL
GAST_HUCK


@<TRIPOS>ATOM
      1 C4          7.5700   10.4100  -14.1800 C.2       1 AJ7         0.1920
      2 C8          6.8050   10.6410  -11.9270 C.ar      1 AJ7         0.0893
      3 C10         6.1350   10.8750   -9.6250 C.ar      1 AJ7        -0.0235
      4 C13         5.1710   10.1590   -6.0360 C.ar      1 AJ7        -0.0412
      5 C15         6.4300   10.0890   -3.8870 C.2       1 AJ7         0.2050
      6 C21         3.6050   10.4920    1.0310 C.3       1 AJ7        -0.0078
      7 C22         3.6560   10.6270    2.5760 C.3       1 AJ7         0.0878
      8 C24         6.0330   10.0200    2.2010 C.3       1 AJ7         0.0878
      9 C26         7.5610   10.5260   -6.0920 C.ar      1 AJ7        -0.0273
     10 C1          4.7110   13.0300  -14.2020 C.3       1 AJ7        -0.0257
     11 C2          5.7300   11.9680  -13.7830 C.2       1 AJ7        -0.0305
     12 C3          6.6150   11.3820  -14.6990 C.2       1 AJ7        -0.0011
     13 O5          8.3660    9.8520  -14.8700 O.2       1 AJ7        -0.4128
     14 N6          7.6400   10.0670  -12.8850 N.am      1 AJ7        -0.2322
     15 C9          6.9870   10.3200  -10.5850 C.ar      1 AJ7        -0.0245
     16 C11         6.2590   10.6020   -8.1630 C.ar      1 AJ7        -0.0013
     17 C12         5.1130   10.3130   -7.4100 C.ar      1 AJ7        -0.0479
     18 C14         6.3890   10.2310   -5.3700 C.ar      1 AJ7         0.0503
     19 O16         7.3970   10.5400   -3.3020 O.2       1 AJ7        -0.3848
     20 N17         5.3860    9.6210   -3.1830 N.am      1 AJ7        -0.2811
     21 C18         5.3900    9.5590   -1.7000 C.3       1 AJ7         0.0703
     22 C19         4.7540   10.8710   -1.1740 C.3       1 AJ7        -0.0111
     23 N20         4.7860   11.0820    0.3050 N.4       1 AJ7         0.2399
     24 O23         4.9930   10.4630    3.1100 O.3       1 AJ7        -0.3693
     25 C25         6.1210   10.9710    0.9810 C.3       1 AJ7        -0.0078
     26 C27         7.5200   10.7030   -7.4670 C.ar      1 AJ7         0.0539
     27 CL          9.0280   11.0640   -8.2480 Cl        1 AJ7        -0.0679
     28 C29         5.1790   11.8410  -10.0140 C.ar      1 AJ7        -0.0621
     29 C30         4.9900   12.2100  -11.3280 C.ar      1 AJ7        -0.0576
     30 C31         5.8240   11.6100  -12.3400 C.ar      1 AJ7         0.0193
     31 H1          4.2605    9.9810   -5.4753 H         1 AJ7         0.0670
     32 H2          2.6961   10.9979    0.6733 H         1 AJ7         0.0837
     33 H3          3.5508    9.4218    0.7828 H         1 AJ7         0.0837
     34 H4          3.0045    9.8586    3.0177 H         1 AJ7         0.0613
     35 H5          3.2865   11.6251    2.8540 H         1 AJ7         0.0613
     36 H6          5.8012    9.0028    1.8523 H         1 AJ7         0.0613
     37 H7          6.9984   10.0158    2.7283 H         1 AJ7         0.0613
     38 H8          8.5055   10.6158   -5.5677 H         1 AJ7         0.0675
     39 H9          4.7643   13.1800  -15.2904 H         1 AJ7         0.0426
     40 H10         4.9367   13.9770  -13.6899 H         1 AJ7         0.0426
     41 H11         3.6995   12.6964  -13.9270 H         1 AJ7         0.0426
     42 H12         6.5902   11.6424  -15.7561 H         1 AJ7         0.0428
     43 H13         8.3091    9.3811  -12.5989 H         1 AJ7         0.2357
     44 H14         7.7819    9.6460  -10.2867 H         1 AJ7         0.0530
     45 H15         4.1597   10.2077   -7.9152 H         1 AJ7         0.0638
     46 H16         4.5764    9.3027   -3.6762 H         1 AJ7         0.1846
     47 H17         6.4224    9.4686   -1.3312 H         1 AJ7         0.0572
     48 H18         4.8018    8.6942   -1.3592 H         1 AJ7         0.0572
     49 H19         3.7005   10.8818   -1.4902 H         1 AJ7         0.0834
     50 H20         5.2862   11.7117   -1.6429 H         1 AJ7         0.0834
     51 H21         4.6060   12.0710    0.3795 H         1 AJ7         0.2036
     52 H22         6.8573   10.5755    0.2658 H         1 AJ7         0.0837
     53 H23         6.4388   11.9677    1.3209 H         1 AJ7         0.0837
     54 H24         4.5709   12.3097   -9.2487 H         1 AJ7         0.0529
     55 H25         4.2306   12.9359  -11.5954 H         1 AJ7         0.0621
@<TRIPOS>BOND
     1    1   12 1  
     2    1   13 2  
     3   14    1 am 
     4    2   14 1  
     5   15    2 ar 
     6    2   30 ar 
     7    3   15 ar 
     8   16    3 1  
     9    3   28 ar 
    10    4   17 ar 
    11   18    4 ar 
    12    5   18 1  
    13    5   19 2  
    14   20    5 am 
    15    6    7 1  
    16   23    6 1  
    17    7   24 1  
    18   24    8 1  
    19    8   25 1  
    20   18    9 ar 
    21    9   26 ar 
    22   11   10 1  
    23   11   12 2  
    24   30   11 1  
    25   17   16 ar 
    26   26   16 ar 
    27   21   20 1  
    28   22   21 1  
    29   22   23 1  
    30   23   25 1  
    31   26   27 1  
    32   28   29 ar 
    33   29   30 ar 
    34    4   31 1  
    35    6   32 1  
    36    6   33 1  
    37    7   34 1  
    38    7   35 1  
    39    8   36 1  
    40    8   37 1  
    41    9   38 1  
    42   10   39 1  
    43   10   40 1  
    44   10   41 1  
    45   12   42 1  
    46   14   43 1  
    47   15   44 1  
    48   17   45 1  
    49   20   46 1  
    50   21   47 1  
    51   21   48 1  
    52   22   49 1  
    53   22   50 1  
    54   23   51 1  
    55   25   52 1  
    56   25   53 1  
    57   28   54 1  
    58   29   55 1  
@<TRIPOS>SUBSTRUCTURE
     1 AJ7         1

