### 
### Created by X-TOOL on Mon Sep 10 21:13:13 2018
### 

@<TRIPOS>MOLECULE
4j28_ligand
   33    35     1     0     0
SMALL
GAST_HUCK


@<TRIPOS>ATOM
      1 OAD       -14.3980   11.8290   30.6670 O.3       1 EAT        -0.3803
      2 CAG       -15.1960   10.9630   31.5210 C.3       1 EAT         0.1465
      3 CAA       -15.2410    9.4850   31.1220 C.3       1 EAT         0.1311
      4 OAC       -15.6130    9.3150   29.7820 O.3       1 EAT        -0.3832
      5 CAF       -16.3110    8.9670   32.0810 C.3       1 EAT         0.0064
      6 CAB       -16.6550    7.5210   31.7740 C.3       1 EAT        -0.0191
      7 NAH       -17.3640    9.9750   31.9120 N.4       1 EAT         0.2544
      8 CAE       -16.6470   11.2900   31.4340 C.3       1 EAT         0.0885
      9 CAP       -17.0720   12.4840   32.3370 C.2       1 EAT         0.1729
     10 NAQ       -17.7010   13.6120   31.9810 N.pl3     1 EAT        -0.2418
     11 CAM       -17.9440   14.2980   33.1210 C.ar      1 EAT         0.0785
     12 CAN       -18.5230   15.5000   33.3730 C.ar      1 EAT        -0.0422
     13 CAI       -18.6340   15.9980   34.6850 C.ar      1 EAT        -0.0766
     14 CAJ       -18.1330   15.2330   35.7310 C.ar      1 EAT        -0.0786
     15 CAK       -17.5300   14.0140   35.4140 C.ar      1 EAT        -0.0656
     16 CAL       -17.4400   13.5900   34.1400 C.ar      1 EAT         0.0209
     17 NAO       -16.9180   12.4730   33.6410 N.2       1 EAT        -0.3133
     18 H1        -13.4971   11.5276   30.6657 H         1 EAT         0.2105
     19 H2        -14.8261   11.0682   32.5516 H         1 EAT         0.0712
     20 H3        -14.2730    8.9920   31.2948 H         1 EAT         0.0680
     21 H4        -14.9847    9.7554   29.2218 H         1 EAT         0.2102
     22 H5        -15.9469    9.0013   33.1184 H         1 EAT         0.0875
     23 H6        -17.4260    7.1706   32.4760 H         1 EAT         0.0285
     24 H7        -15.7536    6.8994   31.8792 H         1 EAT         0.0285
     25 H8        -17.0348    7.4450   30.7445 H         1 EAT         0.0285
     26 H9        -17.8375   10.1346   32.7874 H         1 EAT         0.2043
     27 H10       -18.0306    9.6702   31.2201 H         1 EAT         0.2043
     28 H11       -16.9161   11.5216   30.3929 H         1 EAT         0.1156
     29 H12       -17.9511   13.9008   31.0245 H         1 EAT         0.2324
     30 H13       -18.9075   16.0879   32.5474 H         1 EAT         0.0541
     31 H14       -19.1004   16.9579   34.8751 H         1 EAT         0.0528
     32 H15       -18.2077   15.5709   36.7583 H         1 EAT         0.0516
     33 H16       -17.1267   13.3976   36.2093 H         1 EAT         0.0535
@<TRIPOS>BOND
     1    1    2 1  
     2    2    3 1  
     3    2    8 1  
     4    3    4 1  
     5    3    5 1  
     6    5    6 1  
     7    5    7 1  
     8    7    8 1  
     9    8    9 1  
    10    9   10 1  
    11    9   17 2  
    12   10   11 1  
    13   11   12 ar 
    14   11   16 ar 
    15   12   13 ar 
    16   13   14 ar 
    17   14   15 ar 
    18   15   16 ar 
    19   16   17 1  
    20    1   18 1  
    21    2   19 1  
    22    3   20 1  
    23    4   21 1  
    24    5   22 1  
    25    6   23 1  
    26    6   24 1  
    27    6   25 1  
    28    7   26 1  
    29    7   27 1  
    30    8   28 1  
    31   10   29 1  
    32   12   30 1  
    33   13   31 1  
    34   14   32 1  
    35   15   33 1  
@<TRIPOS>SUBSTRUCTURE
     1 EAT         1

