### 
### Created by X-TOOL on Mon Sep 10 21:13:16 2018
### 

@<TRIPOS>MOLECULE
4j2t_ligand
  117   119     1     0     0
SMALL
GAST_HUCK


@<TRIPOS>ATOM
      1 CAB        -6.2250   -3.6310  -72.7630 C.3       1 1HT        -0.0653
      2 CAR        -5.4110   -4.7960  -72.3030 C.3       1 1HT        -0.0559
      3 CAU        -5.9090   -5.5210  -71.0950 C.3       1 1HT        -0.0533
      4 CAV        -5.0530   -5.4770  -69.8300 C.3       1 1HT        -0.0529
      5 CAW        -5.6400   -6.0320  -68.5540 C.3       1 1HT        -0.0509
      6 CAX        -5.5840   -5.0060  -67.4420 C.3       1 1HT        -0.0348
      7 CBA        -5.7820   -5.5410  -66.0360 C.3       1 1HT         0.0487
      8 CBL        -7.2140   -5.5210  -65.5120 C.2       1 1HT         0.2341
      9 OAL        -8.0820   -5.2840  -66.3370 O.2       1 1HT        -0.3704
     10 OBD        -7.3830   -5.1550  -64.1810 O.3       1 1HT        -0.2701
     11 CBT        -8.4550   -4.4380  -63.8040 C.3       1 1HT         0.1243
     12 CBV        -8.8350   -4.6980  -62.3710 C.3       1 1HT         0.0315
     13 CBX       -10.1520   -5.5710  -62.0290 C.3       1 1HT         0.1038
     14 OBG        -9.7260   -6.6010  -62.8120 O.3       1 1HT        -0.2702
     15 CBI       -10.3980   -7.7450  -63.1840 C.2       1 1HT         0.2311
     16 OAJ       -11.5070   -7.6350  -63.6690 O.2       1 1HT        -0.3707
     17 CAE        -9.5310   -8.8700  -63.6830 C.3       1 1HT         0.0372
     18 CAI       -11.4060   -5.1220  -62.6760 C.3       1 1HT        -0.0309
     19 CBB       -10.2320   -6.1720  -60.6570 C.3       1 1HT         0.0102
     20 CBR       -10.2150   -5.2760  -59.4280 C.3       1 1HT         0.0989
     21 OBC       -11.3620   -4.5580  -59.3330 O.3       1 1HT        -0.3452
     22 CBK       -12.4440   -4.9980  -58.5400 C.3       1 1HT         0.1566
     23 OAK       -12.2030   -5.2470  -57.3760 O.3       1 1HT        -0.3670
     24 CAY       -13.6620   -4.1820  -58.7910 C.3       1 1HT        -0.0020
     25 CAS       -13.8080   -3.1840  -57.6720 C.3       1 1HT        -0.0513
     26 CAC       -15.1170   -2.4670  -57.6510 C.3       1 1HT        -0.0651
     27 CBY        -9.1110   -4.1670  -59.1940 C.3       1 1HT         0.1577
     28 OBH        -7.9710   -4.9020  -58.8660 O.3       1 1HT        -0.3369
     29 CBM        -6.6210   -4.7540  -59.2480 C.3       1 1HT         0.1572
     30 OAM        -6.1060   -5.7290  -59.7610 O.3       1 1HT        -0.3669
     31 CAZ        -5.7210   -4.0710  -58.2500 C.3       1 1HT        -0.0020
     32 CAT        -4.8020   -2.9610  -58.7030 C.3       1 1HT        -0.0513
     33 CAD        -3.9140   -2.2650  -57.6960 C.3       1 1HT        -0.0651
     34 CBW        -9.3170   -3.2330  -58.0870 C.3       1 1HT         0.1472
     35 CAH        -9.2040   -3.8160  -56.6880 C.3       1 1HT        -0.0283
     36 OAP       -10.5840   -2.6960  -58.1450 O.3       1 1HT        -0.3808
     37 CBP        -8.3970   -2.1020  -58.4130 C.3       1 1HT         0.1883
     38 OAO        -8.9100   -0.8440  -58.5340 O.3       1 1HT        -0.3647
     39 OBF        -7.9180   -2.4170  -59.7170 O.3       1 1HT        -0.3420
     40 CBU        -8.9550   -3.1420  -60.2360 C.3       1 1HT         0.0997
     41 CBQ        -8.9540   -3.3120  -61.7980 C.3       1 1HT         0.0022
     42 CBN        -8.1110   -2.2860  -62.5710 C.3       1 1HT        -0.0046
     43 CAG        -8.8050   -1.0510  -62.3710 C.3       1 1HT        -0.0593
     44 CBS        -8.2620   -2.9330  -63.9680 C.3       1 1HT         0.1213
     45 OBE        -9.2730   -2.4810  -64.7170 O.3       1 1HT        -0.2701
     46 CBO        -8.9750   -2.2350  -66.0890 C.2       1 1HT         0.2369
     47 OAN        -7.9720   -1.5900  -66.3580 O.2       1 1HT        -0.3701
     48 CBJ       -10.1150   -2.3580  -67.2270 C.3       1 1HT         0.0570
     49 CAF        -9.6330   -3.0820  -68.5630 C.3       1 1HT        -0.0440
     50 CAQ       -11.5110   -2.9690  -66.7280 C.3       1 1HT        -0.0350
     51 CAA       -12.6200   -1.9880  -66.5190 C.3       1 1HT        -0.0629
     52 H1         -5.7573   -3.1857  -73.6535 H         1 1HT         0.0230
     53 H2         -6.2759   -2.8797  -71.9611 H         1 1HT         0.0230
     54 H3         -7.2412   -3.9696  -73.0132 H         1 1HT         0.0230
     55 H4         -4.3986   -4.4288  -72.0788 H         1 1HT         0.0263
     56 H5         -5.3640   -5.5188  -73.1309 H         1 1HT         0.0263
     57 H6         -6.0273   -6.5785  -71.3735 H         1 1HT         0.0265
     58 H7         -6.8914   -5.0967  -70.8404 H         1 1HT         0.0265
     59 H8         -4.8016   -4.4227  -69.6423 H         1 1HT         0.0265
     60 H9         -4.1325   -6.0419  -70.0387 H         1 1HT         0.0265
     61 H10        -5.0683   -6.9219  -68.2519 H         1 1HT         0.0267
     62 H11        -6.6885   -6.3128  -68.7323 H         1 1HT         0.0267
     63 H12        -6.3693   -4.2596  -67.6322 H         1 1HT         0.0291
     64 H13        -4.5983   -4.5194  -67.4817 H         1 1HT         0.0291
     65 H14        -5.1654   -4.9360  -65.3551 H         1 1HT         0.0518
     66 H15        -5.4315   -6.5835  -66.0195 H         1 1HT         0.0518
     67 H16        -9.2942   -4.7459  -64.4450 H         1 1HT         0.0683
     68 H17        -7.9919   -5.2200  -61.8949 H         1 1HT         0.0365
     69 H18       -10.1635   -9.7291  -63.9512 H         1 1HT         0.0483
     70 H19        -8.8250   -9.1668  -62.8934 H         1 1HT         0.0483
     71 H20        -8.9711   -8.5362  -64.5690 H         1 1HT         0.0483
     72 H21       -12.2314   -5.7837  -62.3746 H         1 1HT         0.0261
     73 H22       -11.2879   -5.1578  -63.7690 H         1 1HT         0.0261
     74 H23       -11.6304   -4.0910  -62.3650 H         1 1HT         0.0261
     75 H24        -9.3771   -6.8575  -60.5611 H         1 1HT         0.0322
     76 H25       -11.1691   -6.7467  -60.6170 H         1 1HT         0.0322
     77 H26       -10.1523   -5.9666  -58.5741 H         1 1HT         0.0629
     78 H27       -12.6930   -5.9848  -58.9574 H         1 1HT         0.0907
     79 H28       -11.8705   -4.4664  -56.9486 H         1 1HT         0.2125
     80 H29       -14.5463   -4.8354  -58.8230 H         1 1HT         0.0314
     81 H30       -13.5626   -3.6523  -59.7499 H         1 1HT         0.0314
     82 H31       -13.0078   -2.4359  -57.7718 H         1 1HT         0.0264
     83 H32       -13.6934   -3.7184  -56.7174 H         1 1HT         0.0264
     84 H33       -15.1357   -1.7626  -56.8063 H         1 1HT         0.0230
     85 H34       -15.9328   -3.1962  -57.5383 H         1 1HT         0.0230
     86 H35       -15.2472   -1.9137  -58.5927 H         1 1HT         0.0230
     87 H36        -6.6790   -4.0309  -60.0749 H         1 1HT         0.0907
     88 H37        -6.1316   -6.4570  -59.1512 H         1 1HT         0.2125
     89 H38        -5.0838   -4.8519  -57.8094 H         1 1HT         0.0314
     90 H39        -6.3726   -3.6470  -57.4717 H         1 1HT         0.0314
     91 H40        -5.4373   -2.1863  -59.1570 H         1 1HT         0.0264
     92 H41        -4.1398   -3.3884  -59.4704 H         1 1HT         0.0264
     93 H42        -3.3198   -1.4912  -58.2042 H         1 1HT         0.0230
     94 H43        -3.2394   -2.9998  -57.2324 H         1 1HT         0.0230
     95 H44        -4.5368   -1.7977  -56.9191 H         1 1HT         0.0230
     96 H45        -9.3774   -3.0233  -55.9453 H         1 1HT         0.0260
     97 H46        -8.1978   -4.2373  -56.5465 H         1 1HT         0.0260
     98 H47        -9.9551   -4.6093  -56.5596 H         1 1HT         0.0260
     99 H48       -11.2245   -3.3818  -57.9966 H         1 1HT         0.2105
    100 H49        -7.5841   -2.0815  -57.6722 H         1 1HT         0.0939
    101 H50        -9.6087   -0.8487  -59.1776 H         1 1HT         0.2126
    102 H51        -9.8515   -2.5180  -60.1063 H         1 1HT         0.0631
    103 H52        -9.9862   -3.0344  -62.0579 H         1 1HT         0.0335
    104 H53        -7.0605   -2.2083  -62.2541 H         1 1HT         0.0331
    105 H54        -8.2724   -0.2424  -62.8930 H         1 1HT         0.0233
    106 H55        -8.8499   -0.8257  -61.2953 H         1 1HT         0.0233
    107 H56        -9.8262   -1.1353  -62.7710 H         1 1HT         0.0233
    108 H57        -7.3281   -2.7474  -64.5188 H         1 1HT         0.0682
    109 H58       -10.3357   -1.3198  -67.5157 H         1 1HT         0.0551
    110 H59       -10.4668   -3.1224  -69.2794 H         1 1HT         0.0258
    111 H60        -9.3023   -4.1043  -68.3273 H         1 1HT         0.0258
    112 H61        -8.7975   -2.5189  -69.0043 H         1 1HT         0.0258
    113 H62       -11.3310   -3.4818  -65.7716 H         1 1HT         0.0291
    114 H63       -11.8457   -3.7000  -67.4787 H         1 1HT         0.0291
    115 H64       -13.5209   -2.5200  -66.1794 H         1 1HT         0.0231
    116 H65       -12.8349   -1.4703  -67.4655 H         1 1HT         0.0231
    117 H66       -12.3201   -1.2521  -65.7584 H         1 1HT         0.0231
@<TRIPOS>BOND
     1    1    2 1  
     2    2    3 1  
     3    3    4 1  
     4    4    5 1  
     5    5    6 1  
     6    6    7 1  
     7    7    8 1  
     8    8    9 2  
     9    8   10 1  
    10   10   11 1  
    11   11   12 1  
    12   11   44 1  
    13   12   13 1  
    14   12   41 1  
    15   13   14 1  
    16   13   18 1  
    17   13   19 1  
    18   14   15 1  
    19   15   16 2  
    20   15   17 1  
    21   19   20 1  
    22   20   21 1  
    23   20   27 1  
    24   21   22 1  
    25   22   23 1  
    26   22   24 1  
    27   24   25 1  
    28   25   26 1  
    29   27   28 1  
    30   27   34 1  
    31   27   40 1  
    32   28   29 1  
    33   29   30 1  
    34   29   31 1  
    35   31   32 1  
    36   32   33 1  
    37   34   35 1  
    38   34   36 1  
    39   34   37 1  
    40   37   38 1  
    41   37   39 1  
    42   39   40 1  
    43   40   41 1  
    44   41   42 1  
    45   42   43 1  
    46   42   44 1  
    47   44   45 1  
    48   45   46 1  
    49   46   47 2  
    50   46   48 1  
    51   48   49 1  
    52   48   50 1  
    53   50   51 1  
    54    1   52 1  
    55    1   53 1  
    56    1   54 1  
    57    2   55 1  
    58    2   56 1  
    59    3   57 1  
    60    3   58 1  
    61    4   59 1  
    62    4   60 1  
    63    5   61 1  
    64    5   62 1  
    65    6   63 1  
    66    6   64 1  
    67    7   65 1  
    68    7   66 1  
    69   11   67 1  
    70   12   68 1  
    71   17   69 1  
    72   17   70 1  
    73   17   71 1  
    74   18   72 1  
    75   18   73 1  
    76   18   74 1  
    77   19   75 1  
    78   19   76 1  
    79   20   77 1  
    80   22   78 1  
    81   23   79 1  
    82   24   80 1  
    83   24   81 1  
    84   25   82 1  
    85   25   83 1  
    86   26   84 1  
    87   26   85 1  
    88   26   86 1  
    89   29   87 1  
    90   30   88 1  
    91   31   89 1  
    92   31   90 1  
    93   32   91 1  
    94   32   92 1  
    95   33   93 1  
    96   33   94 1  
    97   33   95 1  
    98   35   96 1  
    99   35   97 1  
   100   35   98 1  
   101   36   99 1  
   102   37  100 1  
   103   38  101 1  
   104   40  102 1  
   105   41  103 1  
   106   42  104 1  
   107   43  105 1  
   108   43  106 1  
   109   43  107 1  
   110   44  108 1  
   111   48  109 1  
   112   49  110 1  
   113   49  111 1  
   114   49  112 1  
   115   50  113 1  
   116   50  114 1  
   117   51  115 1  
   118   51  116 1  
   119   51  117 1  
@<TRIPOS>SUBSTRUCTURE
     1 1HT         1

