### 
### Created by X-TOOL on Mon Sep 10 21:13:15 2018
### 

@<TRIPOS>MOLECULE
4j3d_ligand
   56    57     1     0     0
SMALL
GAST_HUCK


@<TRIPOS>ATOM
      1 C1         -3.0780   11.4870   27.5640 C.ar      1 1JS        -0.0615
      2 C2         -1.9020   12.1340   27.9460 C.ar      1 1JS        -0.0604
      3 C3         -0.8270   12.2690   27.0760 C.ar      1 1JS        -0.0459
      4 C7          0.1540   11.8100   24.8150 C.1       1 1JS        -0.0589
      5 C8          1.0130   11.8590   24.0150 C.1       1 1JS        -0.0578
      6 C9          2.0560   11.9040   23.0210 C.ar      1 1JS         0.0291
      7 C10         3.3930   12.1530   23.3760 C.ar      1 1JS        -0.0412
      8 C11         4.3930   12.1780   22.4330 C.ar      1 1JS        -0.0413
      9 C12         4.0750   11.9510   21.0770 C.ar      1 1JS         0.0494
     10 C13         2.7420   11.6840   20.7320 C.ar      1 1JS        -0.0413
     11 C14         1.7500   11.6570   21.6820 C.ar      1 1JS        -0.0412
     12 C15         5.1270   11.9790   20.0320 C.2       1 1JS         0.2066
     13 C20         5.8460   10.5390   16.8170 C.3       1 1JS         0.0044
     14 C21         5.3650    9.3230   17.6110 C.3       1 1JS         0.0414
     15 C22         6.5500    8.4550   17.9830 C.2       1 1JS         0.1762
     16 C27         5.7550    8.2660   22.7740 C.3       1 1JS         0.0460
     17 O28         5.7170    6.8290   22.7470 O.3       1 1JS        -0.3949
     18 C4         -0.9260   11.7340   25.7660 C.ar      1 1JS         0.0263
     19 C5         -2.1000   11.0600   25.3870 C.ar      1 1JS        -0.0459
     20 C6         -3.1650   10.9500   26.2790 C.ar      1 1JS        -0.0604
     21 O16         6.2860   12.1440   20.4030 O.2       1 1JS        -0.3849
     22 N17         4.8180   11.8110   18.7050 N.am      1 1JS        -0.2650
     23 C18         5.8330   11.8320   17.6150 C.3       1 1JS         0.1341
     24 O23         7.4440    8.2910   17.1800 O.2       1 1JS        -0.3971
     25 N24         6.6530    7.8160   19.1760 N.am      1 1JS        -0.2869
     26 C25         5.6660    7.9190   20.2610 C.3       1 1JS         0.0329
     27 C26         6.2290    8.7780   21.4110 C.3       1 1JS        -0.0095
     28 C29         5.5620   12.8980   16.5880 C.2       1 1JS         0.2245
     29 O30         4.4210   13.1540   16.2050 O.2       1 1JS        -0.3944
     30 N31         6.6160   13.5680   16.0610 N.am      1 1JS        -0.1623
     31 O32         6.4020   14.5690   15.0980 O.3       1 1JS        -0.2717
     32 H1         -3.9099   11.4030   28.2539 H         1 1JS         0.0619
     33 H2         -1.8252   12.5418   28.9474 H         1 1JS         0.0619
     34 H3          0.0762   12.7769   27.3945 H         1 1JS         0.0632
     35 H4          3.6411   12.3292   24.4164 H         1 1JS         0.0639
     36 H5          5.4179   12.3706   22.7288 H         1 1JS         0.0668
     37 H6          2.4894   11.4951   19.6949 H         1 1JS         0.0668
     38 H7          0.7278   11.4435   21.3910 H         1 1JS         0.0639
     39 H8          5.1911   10.6640   15.9421 H         1 1JS         0.0337
     40 H9          6.8757   10.3489   16.4801 H         1 1JS         0.0337
     41 H10         4.6629    8.7397   16.9971 H         1 1JS         0.0505
     42 H11         4.8578    9.6613   18.5266 H         1 1JS         0.0505
     43 H12         6.4513    8.6019   23.5565 H         1 1JS         0.0558
     44 H13         4.7491    8.6576   22.9855 H         1 1JS         0.0558
     45 H14         6.5867    6.4937   22.5630 H         1 1JS         0.2094
     46 H15        -2.1771   10.6243   24.3974 H         1 1JS         0.0632
     47 H16        -4.0714   10.4414   25.9711 H         1 1JS         0.0619
     48 H17         3.8601   11.6668   18.4568 H         1 1JS         0.1876
     49 H18         6.8204   11.9987   18.0702 H         1 1JS         0.0800
     50 H19         7.4537    7.2364   19.3272 H         1 1JS         0.1850
     51 H20         5.4345    6.9122   20.6389 H         1 1JS         0.0520
     52 H21         4.7480    8.3856   19.8744 H         1 1JS         0.0520
     53 H22         7.3280    8.7440   21.3782 H         1 1JS         0.0307
     54 H23         5.8902    9.8164   21.2811 H         1 1JS         0.0307
     55 H24         7.5458   13.3500   16.3575 H         1 1JS         0.2217
     56 H25         7.2373   14.9367   14.8340 H         1 1JS         0.2490
@<TRIPOS>BOND
     1    2    1 ar 
     2   20    1 ar 
     3    3    2 ar 
     4   18    3 ar 
     5    5    4 3  
     6    4   18 1  
     7    6    5 1  
     8    7    6 ar 
     9   11    6 ar 
    10    8    7 ar 
    11    9    8 ar 
    12    9   10 ar 
    13   12    9 1  
    14   10   11 ar 
    15   12   21 2  
    16   22   12 am 
    17   14   13 1  
    18   13   23 1  
    19   15   14 1  
    20   15   24 2  
    21   25   15 am 
    22   16   17 1  
    23   27   16 1  
    24   18   19 ar 
    25   19   20 ar 
    26   23   22 1  
    27   23   28 1  
    28   26   25 1  
    29   26   27 1  
    30   28   29 2  
    31   28   30 am 
    32   30   31 1  
    33    1   32 1  
    34    2   33 1  
    35    3   34 1  
    36    7   35 1  
    37    8   36 1  
    38   10   37 1  
    39   11   38 1  
    40   13   39 1  
    41   13   40 1  
    42   14   41 1  
    43   14   42 1  
    44   16   43 1  
    45   16   44 1  
    46   17   45 1  
    47   19   46 1  
    48   20   47 1  
    49   22   48 1  
    50   23   49 1  
    51   25   50 1  
    52   26   51 1  
    53   26   52 1  
    54   27   53 1  
    55   27   54 1  
    56   30   55 1  
    57   31   56 1  
@<TRIPOS>SUBSTRUCTURE
     1 1JS         1

