### 
### Created by X-TOOL on Mon Sep 10 21:13:14 2018
### 

@<TRIPOS>MOLECULE
4j3e_ligand
   70    74     1     0     0
SMALL
GAST_HUCK


@<TRIPOS>ATOM
      1 O3          7.9740   27.2330   34.4680 O.2       1 NUT        -0.3853
      2 C25         8.0030   26.7450   35.6050 C.2       1 NUT         0.3083
      3 N2          7.7840   27.4960   36.7240 N.am      1 NUT        -0.2313
      4 C29         7.0940   28.7840   36.5830 C.3       1 NUT         0.1240
      5 C28         8.0740   29.8910   36.8040 C.2       1 NUT         0.1986
      6 O2          8.1960   30.8610   36.0510 O.2       1 NUT        -0.3949
      7 N3          8.8410   29.7670   37.8890 N.am      1 NUT        -0.2834
      8 C27         8.6910   28.5980   38.7800 C.3       1 NUT         0.0513
      9 C26         8.5940   27.2970   37.9560 C.3       1 NUT         0.0577
     10 N1          8.3720   25.3900   35.7790 N.am      1 NUT        -0.1619
     11 C10         8.1970   24.5780   36.9140 C.2       1 NUT         0.1329
     12 C9          7.1070   24.7980   37.8810 C.ar      1 NUT         0.0616
     13 C3          7.3190   24.5280   39.2500 C.ar      1 NUT        -0.0548
     14 C2          6.3090   24.7440   40.1850 C.ar      1 NUT        -0.0340
     15 C5          5.8240   25.2650   37.4780 C.ar      1 NUT         0.1089
     16 O1          5.5800   25.4340   36.1700 O.3       1 NUT        -0.3097
     17 C6          4.3130   26.0090   35.8240 C.3       1 NUT         0.0782
     18 C8          4.4280   26.7620   34.4950 C.3       1 NUT        -0.0341
     19 C7          3.2260   24.9320   35.7160 C.3       1 NUT        -0.0341
     20 C4          4.8050   25.5130   38.4030 C.ar      1 NUT         0.0050
     21 C1          5.0630   25.2340   39.7460 C.ar      1 NUT         0.0914
     22 O           4.0870   25.4200   40.6480 O.3       1 NUT        -0.3182
     23 C           4.4110   25.0410   41.9830 C.3       1 NUT         0.0612
     24 C18         9.3620   24.7990   34.8830 C.3       1 NUT         0.1245
     25 C19         8.6530   24.1230   33.7240 C.ar      1 NUT        -0.0081
     26 C24         7.2780   23.8420   33.8210 C.ar      1 NUT        -0.0568
     27 C23         6.6180   23.1770   32.7980 C.ar      1 NUT        -0.0545
     28 C22         7.3510   22.7790   31.6470 C.ar      1 NUT         0.0330
     29 CL1         6.5860   21.9100   30.4430 Cl        1 NUT        -0.0771
     30 C21         8.7260   23.1060   31.5160 C.ar      1 NUT        -0.0545
     31 C20         9.3600   23.7730   32.5570 C.ar      1 NUT        -0.0568
     32 C11        10.0410   23.7850   35.8420 C.3       1 NUT         0.0592
     33 N           9.1040   23.6340   36.9600 N.2       1 NUT        -0.3569
     34 C12        10.4210   22.4690   35.2130 C.ar      1 NUT        -0.0316
     35 C17        11.7680   22.2420   34.8740 C.ar      1 NUT        -0.0590
     36 C16        12.1540   21.0710   34.2600 C.ar      1 NUT        -0.0546
     37 C15        11.1720   20.0950   33.9660 C.ar      1 NUT         0.0330
     38 CL         11.6110   18.7210   33.1300 Cl        1 NUT        -0.0771
     39 C14         9.8190   20.2830   34.3560 C.ar      1 NUT        -0.0546
     40 C13         9.4600   21.4720   34.9750 C.ar      1 NUT        -0.0590
     41 H1          6.2868   28.8528   37.3271 H         1 NUT         0.0763
     42 H2          6.6686   28.8652   35.5719 H         1 NUT         0.0763
     43 H3          9.5210   30.4692   38.1001 H         1 NUT         0.1852
     44 H4          7.7763   28.7153   39.3796 H         1 NUT         0.0540
     45 H5          9.5626   28.5385   39.4484 H         1 NUT         0.0540
     46 H6          9.6071   26.9772   37.6709 H         1 NUT         0.0542
     47 H7          8.1231   26.5170   38.5723 H         1 NUT         0.0542
     48 H8          8.2797   24.1478   39.5781 H         1 NUT         0.0638
     49 H9          6.4793   24.5380   41.2355 H         1 NUT         0.0483
     50 H10         4.0246   26.7204   36.6118 H         1 NUT         0.0650
     51 H11         3.4528   27.2001   34.2363 H         1 NUT         0.0259
     52 H12         4.7378   26.0638   33.7035 H         1 NUT         0.0259
     53 H13         5.1759   27.5629   34.5908 H         1 NUT         0.0259
     54 H14         2.2682   25.4031   35.4501 H         1 NUT         0.0259
     55 H15         3.1247   24.4151   36.6817 H         1 NUT         0.0259
     56 H16         3.5055   24.2055   34.9388 H         1 NUT         0.0259
     57 H17         3.8465   25.9088   38.0874 H         1 NUT         0.0483
     58 H18         3.5485   25.2329   42.6382 H         1 NUT         0.0582
     59 H19         5.2738   25.6275   42.3315 H         1 NUT         0.0582
     60 H20         4.6606   23.9701   42.0098 H         1 NUT         0.0582
     61 H21        10.0790   25.5415   34.5027 H         1 NUT         0.0833
     62 H22         6.7287   24.1482   34.7040 H         1 NUT         0.0558
     63 H23         5.5580   22.9638   32.8753 H         1 NUT         0.0606
     64 H24         9.2725   22.8397   30.6185 H         1 NUT         0.0606
     65 H25        10.4103   24.0268   32.4701 H         1 NUT         0.0558
     66 H26        10.9706   24.2362   36.2192 H         1 NUT         0.0550
     67 H27        12.5112   22.9984   35.0990 H         1 NUT         0.0557
     68 H28        13.1938   20.8996   34.0059 H         1 NUT         0.0606
     69 H29         9.0800   19.5113   34.1733 H         1 NUT         0.0606
     70 H30         8.4314   21.6326   35.2769 H         1 NUT         0.0557
@<TRIPOS>BOND
     1    1    2 2  
     2    2    3 am 
     3    2   10 am 
     4    3    4 1  
     5    3    9 1  
     6    4    5 1  
     7    5    6 2  
     8    5    7 am 
     9    7    8 1  
    10    8    9 1  
    11   10   11 1  
    12   10   24 1  
    13   11   12 1  
    14   11   33 2  
    15   12   13 ar 
    16   12   15 ar 
    17   13   14 ar 
    18   14   21 ar 
    19   15   16 1  
    20   15   20 ar 
    21   16   17 1  
    22   17   18 1  
    23   17   19 1  
    24   20   21 ar 
    25   21   22 1  
    26   22   23 1  
    27   24   25 1  
    28   24   32 1  
    29   25   26 ar 
    30   25   31 ar 
    31   26   27 ar 
    32   27   28 ar 
    33   28   29 1  
    34   28   30 ar 
    35   30   31 ar 
    36   32   33 1  
    37   32   34 1  
    38   34   35 ar 
    39   34   40 ar 
    40   35   36 ar 
    41   36   37 ar 
    42   37   38 1  
    43   37   39 ar 
    44   39   40 ar 
    45    4   41 1  
    46    4   42 1  
    47    7   43 1  
    48    8   44 1  
    49    8   45 1  
    50    9   46 1  
    51    9   47 1  
    52   13   48 1  
    53   14   49 1  
    54   17   50 1  
    55   18   51 1  
    56   18   52 1  
    57   18   53 1  
    58   19   54 1  
    59   19   55 1  
    60   19   56 1  
    61   20   57 1  
    62   23   58 1  
    63   23   59 1  
    64   23   60 1  
    65   24   61 1  
    66   26   62 1  
    67   27   63 1  
    68   30   64 1  
    69   31   65 1  
    70   32   66 1  
    71   35   67 1  
    72   36   68 1  
    73   39   69 1  
    74   40   70 1  
@<TRIPOS>SUBSTRUCTURE
     1 NUT         1

