### 
### Created by X-TOOL on Mon Sep 10 21:13:16 2018
### 

@<TRIPOS>MOLECULE
4j3i_ligand
   49    51     1     0     0
SMALL
GAST_HUCK


@<TRIPOS>ATOM
      1 O1         -8.6540   -6.2660   -0.7220 O.3       1 1K0        -0.3230
      2 C1         -7.7440   -7.1740   -0.1290 C.3       1 1K0         0.0600
      3 C2         -9.8780   -6.1690   -0.1790 C.ar      1 1K0         0.0796
      4 C3        -10.7000   -5.2150   -0.8430 C.ar      1 1K0        -0.0062
      5 C4        -12.0080   -4.9840   -0.4400 C.ar      1 1K0         0.0986
      6 N1        -14.2140   -6.2910    2.2990 N.am      1 1K0        -0.2048
      7 C5        -12.1700   -3.0510   -1.8630 C.3       1 1K0         0.0607
      8 O2        -12.7770   -4.0120   -0.9400 O.3       1 1K0        -0.3202
      9 C6        -12.5340   -5.7120    0.6600 C.ar      1 1K0         0.0799
     10 O3        -14.2170   -9.5610    7.7900 O.3       1 1K0        -0.3170
     11 N2        -12.1400   -7.3740    2.4000 N.2       1 1K0        -0.3082
     12 C7        -13.8850   -5.5530    1.1990 C.2       1 1K0         0.2215
     13 C8        -13.3290   -7.1530    2.8950 C.2       1 1K0         0.1489
     14 O4        -17.3310   -9.8320    6.5330 O.3       1 1K0        -0.3924
     15 O5        -14.7850   -4.8340    0.6720 O.2       1 1K0        -0.3966
     16 C9        -13.6150   -7.8650    4.1130 C.ar      1 1K0         0.0219
     17 C18       -14.2040   -7.1300    5.1180 C.ar      1 1K0        -0.0529
     18 C16       -14.4460   -7.6540    6.3930 C.ar      1 1K0        -0.0134
     19 C17       -15.1640   -6.8980    7.5140 C.3       1 1K0        -0.0328
     20 C13       -14.0260   -9.0010    6.5900 C.ar      1 1K0         0.1035
     21 C14       -15.5430   -9.8970    8.2450 C.3       1 1K0         0.0925
     22 C15       -16.3590  -10.6360    7.1560 C.3       1 1K0         0.0718
     23 C11       -13.4240   -9.8140    5.5250 C.ar      1 1K0        -0.0134
     24 C12       -12.9600  -11.2110    5.7800 C.3       1 1K0        -0.0328
     25 C10       -13.1410   -9.1720    4.3710 C.ar      1 1K0        -0.0529
     26 C19       -11.6860   -6.6590    1.3330 C.ar      1 1K0         0.0024
     27 C20       -10.3880   -6.8940    0.8580 C.ar      1 1K0        -0.0348
     28 H          -6.7898   -7.1463   -0.6755 H         1 1K0         0.0579
     29 H          -8.1610   -8.1910   -0.1708 H         1 1K0         0.0579
     30 H          -7.5740   -6.8902    0.9201 H         1 1K0         0.0579
     31 H         -10.2962   -4.6576   -1.6804 H         1 1K0         0.0420
     32 H         -15.1325   -6.2001    2.6839 H         1 1K0         0.2481
     33 H         -12.9278   -2.3205   -2.1824 H         1 1K0         0.0581
     34 H         -11.7804   -3.5836   -2.7430 H         1 1K0         0.0581
     35 H         -11.3459   -2.5269   -1.3570 H         1 1K0         0.0581
     36 H         -16.9074   -9.0913    6.1153 H         1 1K0         0.2095
     37 H         -14.4915   -6.1051    4.9133 H         1 1K0         0.0544
     38 H         -15.4062   -5.8805    7.1734 H         1 1K0         0.0367
     39 H         -14.5100   -6.8432    8.3967 H         1 1K0         0.0367
     40 H         -16.0918   -7.4270    7.7773 H         1 1K0         0.0367
     41 H         -16.0706   -8.9709    8.5171 H         1 1K0         0.0636
     42 H         -15.4614  -10.5459    9.1294 H         1 1K0         0.0636
     43 H         -15.6620  -10.9976    6.3857 H         1 1K0         0.0584
     44 H         -16.8654  -11.4932    7.6237 H         1 1K0         0.0584
     45 H         -12.5448  -11.6343    4.8535 H         1 1K0         0.0367
     46 H         -13.8096  -11.8243    6.1147 H         1 1K0         0.0367
     47 H         -12.1839  -11.2031    6.5595 H         1 1K0         0.0367
     48 H         -12.5351   -9.6713    3.6236 H         1 1K0         0.0544
     49 H          -9.7808   -7.6631    1.3215 H         1 1K0         0.0390
@<TRIPOS>BOND
     1    1    2 1  
     2    3    1 1  
     3    4    3 ar 
     4    3   27 ar 
     5    5    4 ar 
     6    5    8 1  
     7    9    5 ar 
     8    6   12 am 
     9   13    6 1  
    10    8    7 1  
    11   12    9 1  
    12   26    9 ar 
    13   10   20 1  
    14   21   10 1  
    15   13   11 2  
    16   11   26 1  
    17   12   15 2  
    18   16   13 1  
    19   22   14 1  
    20   17   16 ar 
    21   16   25 ar 
    22   18   17 ar 
    23   18   19 1  
    24   20   18 ar 
    25   20   23 ar 
    26   21   22 1  
    27   23   24 1  
    28   23   25 ar 
    29   26   27 ar 
    30    2   28 1  
    31    2   29 1  
    32    2   30 1  
    33    4   31 1  
    34    6   32 1  
    35    7   33 1  
    36    7   34 1  
    37    7   35 1  
    38   14   36 1  
    39   17   37 1  
    40   19   38 1  
    41   19   39 1  
    42   19   40 1  
    43   21   41 1  
    44   21   42 1  
    45   22   43 1  
    46   22   44 1  
    47   24   45 1  
    48   24   46 1  
    49   24   47 1  
    50   25   48 1  
    51   27   49 1  
@<TRIPOS>SUBSTRUCTURE
     1 1K0         1

