### 
### Created by X-TOOL on Mon Sep 10 21:13:20 2018
### 

@<TRIPOS>MOLECULE
4j3j_ligand
   51    53     1     0     0
SMALL
GAST_HUCK


@<TRIPOS>ATOM
      1 FBB         8.7670   16.1120  -29.0690 F         1 D3C        -0.2727
      2 CBA         9.0950   17.3780  -29.3020 C.3       1 D3C         0.3435
      3 FBC        10.3840   17.5610  -29.0270 F         1 D3C        -0.2727
      4 FBD         8.8720   17.6550  -30.5860 F         1 D3C        -0.2727
      5 CAX         8.2460   18.2960  -28.4090 C.2       1 D3C         0.1044
      6 CAY         7.5140   19.3190  -28.8490 C.2       1 D3C        -0.0291
      7 CAZ         6.9090   19.8940  -27.8070 C.2       1 D3C        -0.0027
      8 CAV         7.2530   19.2420  -26.6990 C.2       1 D3C         0.1255
      9 CAU         6.8210   19.5180  -25.2690 C.3       1 D3C         0.1191
     10 NAW         8.1200   18.1900  -27.0230 N.pl3     1 D3C        -0.2307
     11 CAT         8.7010   17.2470  -26.0100 C.3       1 D3C         0.0822
     12 CAS         8.2720   17.5530  -24.5580 C.3       1 D3C         0.0663
     13 NAQ         6.9550   18.2400  -24.5360 N.am      1 D3C        -0.2331
     14 CAP         5.8920   17.7260  -23.9070 C.2       1 D3C         0.2633
     15 OAR         4.8380   18.3640  -23.9590 O.2       1 D3C        -0.4004
     16 NAO         6.0060   16.5750  -23.2400 N.am      1 D3C        -0.2726
     17 CAN         4.8770   15.9420  -22.5320 C.3       1 D3C         0.0365
     18 CAL         4.3580   16.8230  -21.3850 C.3       1 D3C         0.0119
     19 CAK         3.3190   16.0820  -20.5390 C.3       1 D3C        -0.0141
     20 NAM         2.5240   17.0470  -19.7650 N.4       1 D3C         0.2221
     21 CAJ         4.0490   15.1240  -19.5880 C.3       1 D3C         0.0222
     22 CAD         3.0900   14.3310  -18.7010 C.ar      1 D3C        -0.0096
     23 CAC         2.3200   13.3310  -19.2990 C.ar      1 D3C        -0.0298
     24 CAB         1.4310   12.5760  -18.5380 C.ar      1 D3C         0.1544
     25 FAI         0.6880   11.6150  -19.1200 F         1 D3C        -0.1895
     26 CAA         1.3090   12.8140  -17.1740 C.ar      1 D3C         0.1560
     27 FAH         0.4520   12.0810  -16.4470 F         1 D3C        -0.1911
     28 CAF         2.0750   13.8060  -16.5670 C.ar      1 D3C        -0.0030
     29 CAE         2.9630   14.5590  -17.3320 C.ar      1 D3C         0.1274
     30 FAG         3.7020   15.5210  -16.7450 F         1 D3C        -0.1934
     31 H           7.4241   19.6341  -29.8875 H         1 D3C         0.0785
     32 H           6.2436   20.7547  -27.8557 H         1 D3C         0.0514
     33 H           5.7761   19.8609  -25.2471 H         1 D3C         0.0848
     34 H           7.4680   20.2846  -24.8177 H         1 D3C         0.0848
     35 H           9.7978   17.3078  -26.0680 H         1 D3C         0.0642
     36 H           8.3766   16.2261  -26.2599 H         1 D3C         0.0642
     37 H           9.0258   18.2012  -24.0872 H         1 D3C         0.0551
     38 H           8.1972   16.6100  -23.9967 H         1 D3C         0.0551
     39 H           6.8970   16.1215  -23.2194 H         1 D3C         0.1845
     40 H           5.2108   14.9789  -22.1184 H         1 D3C         0.0519
     41 H           4.0592   15.7702  -23.2473 H         1 D3C         0.0519
     42 H           3.8960   17.7269  -21.8086 H         1 D3C         0.0341
     43 H           5.2038   17.1099  -20.7429 H         1 D3C         0.0341
     44 H           2.6514   15.5072  -21.1978 H         1 D3C         0.0872
     45 H           1.8424   16.5528  -19.2107 H         1 D3C         0.1998
     46 H           2.0520   17.6760  -20.3956 H         1 D3C         0.1998
     47 H           3.1326   17.5736  -19.1581 H         1 D3C         0.1998
     48 H           4.7205   15.7108  -18.9440 H         1 D3C         0.0465
     49 H           4.6411   14.4165  -20.1870 H         1 D3C         0.0465
     50 H           2.4149   13.1413  -20.3621 H         1 D3C         0.0522
     51 H           1.9807   13.9916  -15.5032 H         1 D3C         0.0562
@<TRIPOS>BOND
     1    1    2 1  
     2    2    3 1  
     3    2    4 1  
     4    2    5 1  
     5    5    6 2  
     6    5   10 1  
     7    6    7 1  
     8    7    8 2  
     9    8    9 1  
    10    8   10 1  
    11    9   13 1  
    12   10   11 1  
    13   11   12 1  
    14   12   13 1  
    15   13   14 am 
    16   14   15 2  
    17   14   16 am 
    18   16   17 1  
    19   17   18 1  
    20   18   19 1  
    21   19   20 1  
    22   19   21 1  
    23   21   22 1  
    24   22   23 ar 
    25   22   29 ar 
    26   23   24 ar 
    27   24   25 1  
    28   24   26 ar 
    29   26   27 1  
    30   26   28 ar 
    31   28   29 ar 
    32   29   30 1  
    33    6   31 1  
    34    7   32 1  
    35    9   33 1  
    36    9   34 1  
    37   11   35 1  
    38   11   36 1  
    39   12   37 1  
    40   12   38 1  
    41   16   39 1  
    42   17   40 1  
    43   17   41 1  
    44   18   42 1  
    45   18   43 1  
    46   19   44 1  
    47   20   45 1  
    48   20   46 1  
    49   20   47 1  
    50   21   48 1  
    51   21   49 1  
    52   23   50 1  
    53   28   51 1  
@<TRIPOS>SUBSTRUCTURE
     1 D3C         1

