### 
### Created by X-TOOL on Mon Sep 10 21:13:14 2018
### 

@<TRIPOS>MOLECULE
4j3l_ligand
   45    47     1     0     0
SMALL
GAST_HUCK


@<TRIPOS>ATOM
      1 C4          2.5620  -10.4020   -1.6490 C.3       1 AJ5         0.0537
      2 C6          2.4150  -11.5620   -3.8310 C.2       1 AJ5         0.2049
      3 C8          2.5340  -11.5870   -5.3360 C.ar      1 AJ5         0.0503
      4 C10         3.4080  -10.6770   -7.3970 C.ar      1 AJ5        -0.0479
      5 C13         4.4130  -11.8280  -10.0450 C.ar      1 AJ5        -0.0621
      6 C15         3.8080  -12.1310  -12.3770 C.ar      1 AJ5         0.0193
      7 C17         5.5600  -12.4170  -14.3080 C.3       1 AJ5        -0.0257
      8 C24         2.0720  -11.9610  -10.6230 C.ar      1 AJ5        -0.0245
      9 C1          6.3600  -10.3350   -1.0990 C.3       1 AJ5         0.0365
     10 O2          5.0130  -10.7520   -1.4070 O.3       1 AJ5        -0.3810
     11 C3          3.9170   -9.8240   -1.1740 C.3       1 AJ5         0.0673
     12 N5          2.6080  -10.4470   -3.1130 N.am      1 AJ5        -0.2840
     13 O7          2.2230  -12.6190   -3.2440 O.2       1 AJ5        -0.3849
     14 C9          3.2680  -10.6130   -6.0170 C.ar      1 AJ5        -0.0412
     15 C11         2.8120  -11.6940   -8.1710 C.ar      1 AJ5        -0.0013
     16 C12         3.0630  -11.7850   -9.6500 C.ar      1 AJ5        -0.0235
     17 C14         4.8060  -11.9700  -11.3620 C.ar      1 AJ5        -0.0576
     18 C16         4.1060  -12.3390  -13.8290 C.2       1 AJ5        -0.0305
     19 C18         3.0630  -12.5230  -14.7350 C.2       1 AJ5        -0.0011
     20 C19         1.7260  -12.4890  -14.2360 C.2       1 AJ5         0.1920
     21 O20         0.7460  -12.6620  -14.9810 O.2       1 AJ5        -0.4128
     22 N21         1.4790  -12.2780  -12.9110 N.am      1 AJ5        -0.2322
     23 C23         2.4400  -12.1100  -11.9580 C.ar      1 AJ5         0.0893
     24 C25         2.0580  -12.7070   -7.4760 C.ar      1 AJ5         0.0539
     25 CL          1.2420  -14.0720   -8.2460 Cl        1 AJ5        -0.0679
     26 C27         1.9420  -12.6350   -6.0830 C.ar      1 AJ5        -0.0273
     27 H1          1.7372   -9.7548   -1.3163 H         1 AJ5         0.0542
     28 H2          2.4198  -11.4147   -1.2438 H         1 AJ5         0.0542
     29 H3          3.9971   -9.9172   -7.8978 H         1 AJ5         0.0638
     30 H4          5.1787  -11.7461   -9.2820 H         1 AJ5         0.0529
     31 H5          5.5795  -12.5716  -15.3969 H         1 AJ5         0.0426
     32 H6          6.0658  -13.2569  -13.8094 H         1 AJ5         0.0426
     33 H7          6.0781  -11.4785  -14.0616 H         1 AJ5         0.0426
     34 H8          1.0259  -11.9812  -10.3395 H         1 AJ5         0.0530
     35 H9          7.0591  -11.1513   -1.3332 H         1 AJ5         0.0523
     36 H10         6.4315  -10.0865   -0.0298 H         1 AJ5         0.0523
     37 H11         6.6160   -9.4495   -1.6992 H         1 AJ5         0.0523
     38 H12         3.8547   -9.6103   -0.0968 H         1 AJ5         0.0580
     39 H13         4.1178   -8.8915   -1.7219 H         1 AJ5         0.0580
     40 H14         2.7942   -9.5964   -3.6048 H         1 AJ5         0.1845
     41 H15         3.7308   -9.8028   -5.4652 H         1 AJ5         0.0670
     42 H16         5.8578  -11.9597  -11.6243 H         1 AJ5         0.0621
     43 H17         3.2622  -12.6879  -15.7928 H         1 AJ5         0.0428
     44 H18         0.5237  -12.2440  -12.6172 H         1 AJ5         0.2357
     45 H19         1.3832  -13.4032   -5.5608 H         1 AJ5         0.0675
@<TRIPOS>BOND
     1    1   11 1  
     2   12    1 1  
     3    3    2 1  
     4    2   12 am 
     5    2   13 2  
     6   14    3 ar 
     7    3   26 ar 
     8    4   14 ar 
     9   15    4 ar 
    10   16    5 ar 
    11    5   17 ar 
    12   17    6 ar 
    13    6   18 1  
    14   23    6 ar 
    15   18    7 1  
    16   16    8 ar 
    17    8   23 ar 
    18   10    9 1  
    19   11   10 1  
    20   15   16 1  
    21   15   24 ar 
    22   18   19 2  
    23   19   20 1  
    24   20   21 2  
    25   20   22 am 
    26   22   23 1  
    27   24   25 1  
    28   24   26 ar 
    29    1   27 1  
    30    1   28 1  
    31    4   29 1  
    32    5   30 1  
    33    7   31 1  
    34    7   32 1  
    35    7   33 1  
    36    8   34 1  
    37    9   35 1  
    38    9   36 1  
    39    9   37 1  
    40   11   38 1  
    41   11   39 1  
    42   12   40 1  
    43   14   41 1  
    44   17   42 1  
    45   19   43 1  
    46   22   44 1  
    47   26   45 1  
@<TRIPOS>SUBSTRUCTURE
     1 AJ5         1

