### 
### Created by X-TOOL on Mon Sep 10 21:13:13 2018
### 

@<TRIPOS>MOLECULE
4j3m_ligand
   33    35     1     0     0
SMALL
GAST_HUCK


@<TRIPOS>ATOM
      1 C4          8.3370   11.3810  -13.7720 C.2       1 AJ8         0.1919
      2 C8          7.7520   11.6690  -11.4630 C.ar      1 AJ8         0.0890
      3 C10         7.1360   11.8770   -9.1460 C.ar      1 AJ8        -0.0245
      4 C13         6.2640   11.0870   -5.5660 C.ar      1 AJ8        -0.0466
      5 C15         7.6690   10.9900   -3.5060 C.2       1 AJ8         0.0630
      6 C21         6.1990   12.9030   -9.4620 C.ar      1 AJ8        -0.0624
      7 C22         6.0680   13.3030  -10.7520 C.ar      1 AJ8        -0.0578
      8 C1          5.7610   14.1850  -13.5610 C.3       1 AJ8        -0.0258
      9 C2          6.7040   13.0560  -13.2230 C.2       1 AJ8        -0.0307
     10 C3          7.4010   12.4590  -14.2240 C.2       1 AJ8        -0.0013
     11 O5          9.0630   10.7660  -14.5930 O.2       1 AJ8        -0.4129
     12 N6          8.4790   11.0480  -12.4930 N.am      1 AJ8        -0.2323
     13 C9          7.8960   11.2730  -10.1330 C.ar      1 AJ8        -0.0249
     14 C11         7.2760   11.5740   -7.6890 C.ar      1 AJ8        -0.0029
     15 C12         6.1280   11.2850   -6.9210 C.ar      1 AJ8        -0.0498
     16 C14         7.5280   11.1800   -4.9680 C.ar      1 AJ8         0.0109
     17 O16         8.5130   11.3030   -2.7860 O.co2     1 AJ8        -0.5607
     18 O17         6.8330   10.4540   -2.7590 O.co2     1 AJ8        -0.5607
     19 C18         8.6780   11.4470   -5.6740 C.ar      1 AJ8        -0.0328
     20 C19         8.5230   11.6790   -7.0340 C.ar      1 AJ8         0.0521
     21 CL         10.0000   11.9630   -7.8220 Cl        1 AJ8        -0.0683
     22 C23         6.8400   12.7090  -11.7960 C.ar      1 AJ8         0.0191
     23 H1          5.3936   10.8592   -4.9613 H         1 AJ8         0.0653
     24 H2          5.5989   13.3579   -8.6823 H         1 AJ8         0.0527
     25 H3          5.3628   14.0896  -10.9949 H         1 AJ8         0.0620
     26 H4          5.7516   14.3413  -14.6498 H         1 AJ8         0.0426
     27 H5          6.0971   15.1055  -13.0613 H         1 AJ8         0.0426
     28 H6          4.7471   13.9310  -13.2183 H         1 AJ8         0.0426
     29 H7          7.2885   12.7411  -15.2698 H         1 AJ8         0.0427
     30 H8          9.1292   10.3267  -12.2541 H         1 AJ8         0.2357
     31 H9          8.6024   10.4930   -9.8727 H         1 AJ8         0.0528
     32 H10         5.1535   11.2199   -7.3914 H         1 AJ8         0.0634
     33 H11         9.6503   11.4747   -5.1955 H         1 AJ8         0.0658
@<TRIPOS>BOND
     1    1   10 1  
     2    1   11 2  
     3   12    1 am 
     4    2   12 1  
     5   13    2 ar 
     6    2   22 ar 
     7    3    6 ar 
     8    3   13 ar 
     9   14    3 1  
    10   15    4 ar 
    11    4   16 ar 
    12   16    5 1  
    13    5   17 ar 
    14    5   18 ar 
    15    6    7 ar 
    16    7   22 ar 
    17    9    8 1  
    18    9   10 2  
    19   22    9 1  
    20   14   15 ar 
    21   14   20 ar 
    22   16   19 ar 
    23   19   20 ar 
    24   20   21 1  
    25    4   23 1  
    26    6   24 1  
    27    7   25 1  
    28    8   26 1  
    29    8   27 1  
    30    8   28 1  
    31   10   29 1  
    32   12   30 1  
    33   13   31 1  
    34   15   32 1  
    35   19   33 1  
@<TRIPOS>SUBSTRUCTURE
     1 AJ8         1

