### 
### Created by X-TOOL on Mon Sep 10 21:13:13 2018
### 

@<TRIPOS>MOLECULE
4j44_ligand
   58    57     1     0     0
SMALL
GAST_HUCK


@<TRIPOS>ATOM
      1 N          25.2820   38.0240    7.2470 N.4       1 ALA         0.2377
      2 CA         25.7570   37.9000    8.6370 C.3       1 ALA         0.0621
      3 C          26.8070   36.7880    8.6820 C.2       1 ALA         0.2264
      4 O          26.8740   36.0040    7.7450 O.2       1 ALA        -0.3907
      5 CB         24.5990   37.5810    9.5820 C.3       1 ALA        -0.0040
      6 N          27.5700   36.7350    9.7680 N.am      1 ILE        -0.2608
      7 CA         28.5190   35.6440    9.9540 C.3       1 ILE         0.1336
      8 C          28.1540   34.8360   11.1850 C.2       1 ILE         0.2042
      9 O          27.6250   35.3490   12.1680 O.2       1 ILE        -0.3944
     10 CB         29.9860   36.1050   10.0030 C.3       1 ILE        -0.0037
     11 CG1        30.2280   37.0100   11.1770 C.3       1 ILE        -0.0491
     12 CG2        30.3790   36.7820    8.6980 C.3       1 ILE        -0.0582
     13 CD1        31.6890   37.4260   11.3100 C.3       1 ILE        -0.0648
     14 N          28.4880   33.5520   11.1270 N.am      1 ALA        -0.2640
     15 CA         28.3080   32.6580   12.2800 C.3       1 ALA         0.1282
     16 C          29.4300   32.8240   13.2350 C.2       1 ALA         0.2031
     17 O          30.5760   33.0020   12.8240 O.2       1 ALA        -0.3944
     18 CB         28.2290   31.2010   11.8430 C.3       1 ALA        -0.0244
     19 N          29.1290   32.7630   14.5190 N.am      1 VAL        -0.2692
     20 CA         30.1270   32.9070   15.5810 C.3       1 VAL         0.0967
     21 C          30.5820   31.5120   15.9770 C.2       1 VAL         0.0603
     22 O          29.7710   30.6850   16.4010 O.co2     1 VAL        -0.5666
     23 CB         29.5410   33.6650   16.7860 C.3       1 VAL        -0.0118
     24 CG1        30.5550   33.8300   17.9140 C.3       1 VAL        -0.0590
     25 CG2        29.0060   35.0240   16.3360 C.3       1 VAL        -0.0590
     26 OXT        31.7750   31.1650   15.8270 O.co2     1 VAL        -0.5666
     27 H1         24.5876   38.7527    7.1930 H         1 ALA         0.2015
     28 H2         24.8757   37.1501    6.9515 H         1 ALA         0.2015
     29 H3         26.0579   38.2541    6.6460 H         1 ALA         0.2015
     30 H4         26.2176   38.8489    8.9491 H         1 ALA         0.1095
     31 H5         24.9787   37.4937   10.6107 H         1 ALA         0.0310
     32 H6         24.1317   36.6315    9.2819 H         1 ALA         0.0310
     33 H7         23.8533   38.3882    9.5337 H         1 ALA         0.0310
     34 H8         27.4929   37.4492   10.4637 H         1 ILE         0.1885
     35 H9         28.4225   34.9804    9.0820 H         1 ILE         0.0803
     36 H10        30.6185   35.2137   10.1271 H         1 ILE         0.0345
     37 H11        29.9275   36.4834   12.0948 H         1 ILE         0.0267
     38 H12        29.6144   37.9149   11.0558 H         1 ILE         0.0267
     39 H13        30.1910   36.0967    7.8583 H         1 ILE         0.0235
     40 H14        31.4475   37.0418    8.7270 H         1 ILE         0.0235
     41 H15        29.7826   37.6967    8.5653 H         1 ILE         0.0235
     42 H16        31.8045   38.0850   12.1831 H         1 ILE         0.0230
     43 H17        32.0017   37.9623   10.4020 H         1 ILE         0.0230
     44 H18        32.3147   36.5308   11.4409 H         1 ILE         0.0230
     45 H19        28.8708   33.1847   10.2793 H         1 ALA         0.1883
     46 H20        27.3681   32.9251   12.7852 H         1 ALA         0.0797
     47 H21        28.0947   30.5599   12.7267 H         1 ALA         0.0277
     48 H22        29.1590   30.9223   11.3259 H         1 ALA         0.0277
     49 H23        27.3763   31.0685   11.1609 H         1 ALA         0.0277
     50 H24        28.1752   32.6114   14.7784 H         1 VAL         0.1875
     51 H25        30.9880   33.4731   15.1961 H         1 VAL         0.0729
     52 H26        28.6979   33.0768   17.1773 H         1 VAL         0.0336
     53 H27        30.0898   34.3755   18.7483 H         1 VAL         0.0234
     54 H28        31.4242   34.3948   17.5460 H         1 VAL         0.0234
     55 H29        30.8819   32.8387   18.2611 H         1 VAL         0.0234
     56 H30        28.2781   34.8808   15.5238 H         1 VAL         0.0234
     57 H31        29.8394   35.6453   15.9762 H         1 VAL         0.0234
     58 H32        28.5154   35.5240   17.1841 H         1 VAL         0.0234
@<TRIPOS>BOND
     1    1    2 1  
     2    2    3 1  
     3    2    5 1  
     4    3    4 2  
     5    3    6 am 
     6    6    7 1  
     7    7    8 1  
     8    7   10 1  
     9    8    9 2  
    10    8   14 am 
    11   10   11 1  
    12   10   12 1  
    13   11   13 1  
    14   14   15 1  
    15   15   16 1  
    16   15   18 1  
    17   16   17 2  
    18   16   19 am 
    19   19   20 1  
    20   20   21 1  
    21   20   23 1  
    22   21   22 ar 
    23   21   26 ar 
    24   23   24 1  
    25   23   25 1  
    26    1   27 1  
    27    1   28 1  
    28    1   29 1  
    29    2   30 1  
    30    5   31 1  
    31    5   32 1  
    32    5   33 1  
    33    6   34 1  
    34    7   35 1  
    35   10   36 1  
    36   11   37 1  
    37   11   38 1  
    38   12   39 1  
    39   12   40 1  
    40   12   41 1  
    41   13   42 1  
    42   13   43 1  
    43   13   44 1  
    44   14   45 1  
    45   15   46 1  
    46   18   47 1  
    47   18   48 1  
    48   18   49 1  
    49   19   50 1  
    50   20   51 1  
    51   23   52 1  
    52   24   53 1  
    53   24   54 1  
    54   24   55 1  
    55   25   56 1  
    56   25   57 1  
    57   25   58 1  
@<TRIPOS>SUBSTRUCTURE
     1 ALA         1

