### 
### Created by X-TOOL on Mon Sep 10 21:13:13 2018
### 

@<TRIPOS>MOLECULE
4j45_ligand
   47    46     1     0     0
SMALL
GAST_HUCK


@<TRIPOS>ATOM
      1 N          25.1090   37.9240    7.2040 N.4       1 ALA         0.2377
      2 CA         25.6500   37.8210    8.5540 C.3       1 ALA         0.0621
      3 C          26.7070   36.7080    8.5430 C.2       1 ALA         0.2265
      4 O          26.7270   35.8770    7.6360 O.2       1 ALA        -0.3907
      5 CB         24.5120   37.4650    9.5570 C.3       1 ALA        -0.0040
      6 N          27.4390   36.6940    9.6360 N.am      1 THR        -0.2586
      7 CA         28.4560   35.6830    9.9220 C.3       1 THR         0.1566
      8 C          28.0790   34.7980   11.1320 C.2       1 THR         0.2065
      9 O          27.5730   35.2980   12.1540 O.2       1 THR        -0.3943
     10 CB         29.8430   36.3210   10.1610 C.3       1 THR         0.0924
     11 OG1        29.8730   37.0500   11.3920 O.3       1 THR        -0.3874
     12 CG2        30.1340   37.2670    9.0610 C.3       1 THR        -0.0346
     13 N          28.4440   33.5080   11.0450 N.am      1 ALA        -0.2639
     14 CA         28.1610   32.5690   12.1460 C.3       1 ALA         0.1282
     15 C          29.2060   32.8300   13.1790 C.2       1 ALA         0.2031
     16 O          30.3880   32.8230   12.8750 O.2       1 ALA        -0.3944
     17 CB         28.2400   31.1280   11.6770 C.3       1 ALA        -0.0244
     18 N          28.7670   33.0700   14.4020 N.am      1 ALA        -0.2698
     19 CA         29.5880   33.6550   15.4510 C.3       1 ALA         0.0916
     20 C          29.9230   32.5740   16.4580 C.2       1 ALA         0.0598
     21 O          29.5370   31.4000   16.2930 O.co2     1 ALA        -0.5666
     22 CB         28.8360   34.7920   16.1220 C.3       1 ALA        -0.0300
     23 OXT        30.5850   32.8840   17.4540 O.co2     1 ALA        -0.5666
     24 H1         24.4092   38.6490    7.1769 H         1 ALA         0.2015
     25 H2         24.6921   37.0447    6.9411 H         1 ALA         0.2015
     26 H3         25.8515   38.1496    6.5607 H         1 ALA         0.2015
     27 H4         26.1122   38.7751    8.8475 H         1 ALA         0.1095
     28 H5         24.9285   37.3893   10.5723 H         1 ALA         0.0310
     29 H6         24.0608   36.5028    9.2732 H         1 ALA         0.0310
     30 H7         23.7434   38.2516    9.5338 H         1 ALA         0.0310
     31 H8         27.2913   37.4171   10.3108 H         1 THR         0.1885
     32 H9         28.5302   35.0317    9.0386 H         1 THR         0.0826
     33 H10        30.6067   35.5297   10.1856 H         1 THR         0.0639
     34 H11        29.6819   36.4609   12.1123 H         1 THR         0.2101
     35 H12        31.1204   37.7260    9.2235 H         1 THR         0.0257
     36 H13        29.3636   38.0518    9.0388 H         1 THR         0.0257
     37 H14        30.1345   36.7265    8.1030 H         1 THR         0.0257
     38 H15        28.9128   33.1810   10.2244 H         1 ALA         0.1883
     39 H16        27.1595   32.7612   12.5583 H         1 ALA         0.0797
     40 H17        28.0243   30.4556   12.5204 H         1 ALA         0.0277
     41 H18        29.2501   30.9222   11.2931 H         1 ALA         0.0277
     42 H19        27.5029   30.9616   10.8776 H         1 ALA         0.0277
     43 H20        27.8189   32.8369   14.6183 H         1 ALA         0.1875
     44 H21        30.5180   34.0472   15.0137 H         1 ALA         0.0723
     45 H22        29.4625   35.2292   16.9135 H         1 ALA         0.0270
     46 H23        27.9049   34.4062   16.5626 H         1 ALA         0.0270
     47 H24        28.5963   35.5638   15.3758 H         1 ALA         0.0270
@<TRIPOS>BOND
     1    1    2 1  
     2    2    3 1  
     3    2    5 1  
     4    3    4 2  
     5    3    6 am 
     6    6    7 1  
     7    7    8 1  
     8    7   10 1  
     9    8    9 2  
    10    8   13 am 
    11   10   11 1  
    12   10   12 1  
    13   13   14 1  
    14   14   15 1  
    15   14   17 1  
    16   15   16 2  
    17   15   18 am 
    18   18   19 1  
    19   19   20 1  
    20   19   22 1  
    21   20   21 ar 
    22   20   23 ar 
    23    1   24 1  
    24    1   25 1  
    25    1   26 1  
    26    2   27 1  
    27    5   28 1  
    28    5   29 1  
    29    5   30 1  
    30    6   31 1  
    31    7   32 1  
    32   10   33 1  
    33   11   34 1  
    34   12   35 1  
    35   12   36 1  
    36   12   37 1  
    37   13   38 1  
    38   14   39 1  
    39   17   40 1  
    40   17   41 1  
    41   17   42 1  
    42   18   43 1  
    43   19   44 1  
    44   22   45 1  
    45   22   46 1  
    46   22   47 1  
@<TRIPOS>SUBSTRUCTURE
     1 ALA         1

