### 
### Created by X-TOOL on Mon Sep 10 21:13:13 2018
### 

@<TRIPOS>MOLECULE
4j46_ligand
   62    62     1     0     0
SMALL
GAST_HUCK


@<TRIPOS>ATOM
      1 N          25.1840   37.8700    6.9680 N.4       1 ALA         0.2377
      2 CA         25.7180   37.7980    8.3350 C.3       1 ALA         0.0621
      3 C          26.7600   36.6950    8.4660 C.2       1 ALA         0.2264
      4 O          26.8130   35.8270    7.5730 O.2       1 ALA        -0.3907
      5 CB         24.5900   37.5530    9.3810 C.3       1 ALA        -0.0040
      6 N          27.4380   36.7170    9.5960 N.am      1 VAL        -0.2608
      7 CA         28.5030   35.8090    9.9810 C.3       1 VAL         0.1336
      8 C          28.0030   34.8410   11.0730 C.2       1 VAL         0.2067
      9 O          27.5370   35.2630   12.1340 O.2       1 VAL        -0.3942
     10 CB         29.7080   36.6100   10.5230 C.3       1 VAL        -0.0062
     11 CG1        30.7610   35.7110   11.1680 C.3       1 VAL        -0.0584
     12 CG2        30.2710   37.4860    9.3890 C.3       1 VAL        -0.0584
     13 N          28.1850   33.5220   10.8390 N.am      1 PRO        -0.2498
     14 CA         27.7360   32.5370   11.8310 C.3       1 PRO         0.1337
     15 C          28.7910   32.1690   12.8760 C.2       1 PRO         0.2036
     16 O          30.0040   32.1610   12.5900 O.2       1 PRO        -0.3944
     17 CB         27.3410   31.3550   10.9400 C.3       1 PRO        -0.0104
     18 CG         28.2580   31.4140    9.7590 C.3       1 PRO        -0.0281
     19 CD         28.4650   32.9030    9.5170 C.3       1 PRO         0.0369
     20 N          28.3980   31.9450   14.1070 N.am      1 ILE        -0.2692
     21 CA         29.2390   31.3490   15.1650 C.3       1 ILE         0.0969
     22 C          28.5810   30.1150   15.7750 C.2       1 ILE         0.0604
     23 O          27.3940   30.1790   16.0720 O.co2     1 ILE        -0.5666
     24 CB         29.5400   32.3570   16.2850 C.3       1 ILE        -0.0092
     25 CG1        30.2330   33.5920   15.7370 C.3       1 ILE        -0.0497
     26 CG2        30.3620   31.7540   17.4150 C.3       1 ILE        -0.0588
     27 CD1        30.6860   34.4980   16.8520 C.3       1 ILE        -0.0649
     28 OXT        29.2040   29.0340   16.0520 O.co2     1 ILE        -0.5666
     29 H1         24.4988   38.6073    6.9134 H         1 ALA         0.2015
     30 H2         24.7517   36.9912    6.7294 H         1 ALA         0.2015
     31 H3         25.9351   38.0610    6.3235 H         1 ALA         0.2015
     32 H4         26.1991   38.7609    8.5619 H         1 ALA         0.1095
     33 H5         25.0285   37.5055   10.3887 H         1 ALA         0.0310
     34 H6         24.0821   36.6033    9.1570 H         1 ALA         0.0310
     35 H7         23.8629   38.3772    9.3360 H         1 ALA         0.0310
     36 H8         27.1945   37.4301   10.2534 H         1 VAL         0.1885
     37 H9         28.8186   35.2303    9.1004 H         1 VAL         0.0803
     38 H10        29.3369   37.2830   11.3100 H         1 VAL         0.0343
     39 H11        31.5941   36.3279   11.5360 H         1 VAL         0.0234
     40 H12        31.1368   34.9939   10.4233 H         1 VAL         0.0234
     41 H13        30.3105   35.1639   12.0092 H         1 VAL         0.0234
     42 H14        29.4648   38.1059    8.9698 H         1 VAL         0.0234
     43 H15        30.6864   36.8420    8.5999 H         1 VAL         0.0234
     44 H16        31.0640   38.1361    9.7871 H         1 VAL         0.0234
     45 H17        26.8544   32.9200   12.3658 H         1 PRO         0.0802
     46 H18        26.2937   31.4509   10.6175 H         1 PRO         0.0313
     47 H19        27.4727   30.4062   11.4808 H         1 PRO         0.0313
     48 H20        27.7953   30.9375    8.8822 H         1 PRO         0.0287
     49 H21        29.2144   30.9191    9.9832 H         1 PRO         0.0287
     50 H22        29.4981   33.1080    9.1997 H         1 PRO         0.0524
     51 H23        27.7661   33.2764    8.7540 H         1 PRO         0.0524
     52 H24        27.4602   32.1961   14.3470 H         1 ILE         0.1875
     53 H25        30.1917   31.0443   14.7072 H         1 ILE         0.0729
     54 H26        28.5754   32.6723   16.7095 H         1 ILE         0.0338
     55 H27        29.5321   34.1404   15.0905 H         1 ILE         0.0267
     56 H28        31.1086   33.2814   15.1481 H         1 ILE         0.0267
     57 H29        29.8510   30.8609   17.8039 H         1 ILE         0.0234
     58 H30        30.4737   32.4931   18.2220 H         1 ILE         0.0234
     59 H31        31.3553   31.4721   17.0358 H         1 ILE         0.0234
     60 H32        31.1834   35.3822   16.4268 H         1 ILE         0.0230
     61 H33        31.3910   33.9572   17.5004 H         1 ILE         0.0230
     62 H34        29.8145   34.8163   17.4429 H         1 ILE         0.0230
@<TRIPOS>BOND
     1    1    2 1  
     2    2    3 1  
     3    2    5 1  
     4    3    4 2  
     5    3    6 am 
     6    6    7 1  
     7    7    8 1  
     8    7   10 1  
     9    8    9 2  
    10    8   13 am 
    11   10   11 1  
    12   10   12 1  
    13   13   14 1  
    14   13   19 1  
    15   14   15 1  
    16   14   17 1  
    17   15   16 2  
    18   15   20 am 
    19   17   18 1  
    20   18   19 1  
    21   20   21 1  
    22   21   22 1  
    23   21   24 1  
    24   22   23 ar 
    25   22   28 ar 
    26   24   25 1  
    27   24   26 1  
    28   25   27 1  
    29    1   29 1  
    30    1   30 1  
    31    1   31 1  
    32    2   32 1  
    33    5   33 1  
    34    5   34 1  
    35    5   35 1  
    36    6   36 1  
    37    7   37 1  
    38   10   38 1  
    39   11   39 1  
    40   11   40 1  
    41   11   41 1  
    42   12   42 1  
    43   12   43 1  
    44   12   44 1  
    45   14   45 1  
    46   17   46 1  
    47   17   47 1  
    48   18   48 1  
    49   18   49 1  
    50   19   50 1  
    51   19   51 1  
    52   20   52 1  
    53   21   53 1  
    54   24   54 1  
    55   25   55 1  
    56   25   56 1  
    57   26   57 1  
    58   26   58 1  
    59   26   59 1  
    60   27   60 1  
    61   27   61 1  
    62   27   62 1  
@<TRIPOS>SUBSTRUCTURE
     1 ALA         1

