### 
### Created by X-TOOL on Mon Sep 10 21:13:13 2018
### 

@<TRIPOS>MOLECULE
4j47_ligand
   63    63     1     0     0
SMALL
GAST_HUCK


@<TRIPOS>ATOM
      1 N          25.2110   37.9890    7.1900 N.4       1 SER         0.2396
      2 CA         25.6930   37.7650    8.5800 C.3       1 SER         0.0885
      3 C          26.7480   36.6440    8.5590 C.2       1 SER         0.2290
      4 O          26.8210   35.9190    7.5570 O.2       1 SER        -0.3906
      5 CB         24.5180   37.3740    9.5190 C.3       1 SER         0.1041
      6 OG         24.0890   36.0420    9.2470 O.3       1 SER        -0.3870
      7 N          27.4070   36.4750    9.6920 N.am      1 VAL        -0.2607
      8 CA         28.3680   35.3680    9.8580 C.3       1 VAL         0.1336
      9 C          28.0950   34.6410   11.1670 C.2       1 VAL         0.2067
     10 O          27.7190   35.2540   12.1650 O.2       1 VAL        -0.3942
     11 CB         29.8470   35.8320    9.8200 C.3       1 VAL        -0.0062
     12 CG1        30.1710   36.4620    8.4770 C.3       1 VAL        -0.0584
     13 CG2        30.1880   36.7380   10.9680 C.3       1 VAL        -0.0584
     14 N          28.3560   33.3140   11.1890 N.am      1 PRO        -0.2498
     15 CA         28.1820   32.5840   12.4530 C.3       1 PRO         0.1337
     16 C          29.3020   32.8700   13.3920 C.2       1 PRO         0.2036
     17 O          30.3970   33.2190   12.9550 O.2       1 PRO        -0.3944
     18 CB         28.1790   31.1040   12.0230 C.3       1 PRO        -0.0104
     19 CG         28.9700   31.0790   10.7510 C.3       1 PRO        -0.0281
     20 CD         28.6970   32.4170   10.0650 C.3       1 PRO         0.0369
     21 N          29.0430   32.7560   14.6840 N.am      1 ILE        -0.2692
     22 CA         30.1030   32.8120   15.7060 C.3       1 ILE         0.0969
     23 C          30.5400   31.3860   15.9620 C.2       1 ILE         0.0604
     24 O          29.7000   30.5540   16.3640 O.co2     1 ILE        -0.5666
     25 CB         29.5820   33.4510   16.9750 C.3       1 ILE        -0.0092
     26 CG1        29.1160   34.8660   16.6380 C.3       1 ILE        -0.0497
     27 CG2        30.6430   33.4770   18.0780 C.3       1 ILE        -0.0588
     28 CD1        28.5280   35.5590   17.8060 C.3       1 ILE        -0.0649
     29 OXT        31.7300   31.0380   15.7480 O.co2     1 ILE        -0.5666
     30 H1         24.5186   38.7216    7.1885 H         1 SER         0.2016
     31 H2         24.8016   37.1390    6.8352 H         1 SER         0.2016
     32 H3         25.9863   38.2583    6.6048 H         1 SER         0.2016
     33 H4         26.1539   38.6907    8.9550 H         1 SER         0.1122
     34 H5         23.6783   38.0658    9.3568 H         1 SER         0.0640
     35 H6         24.8517   37.4412   10.5650 H         1 SER         0.0640
     36 H7         23.7984   35.9822    8.3445 H         1 SER         0.2099
     37 H8         27.2516   37.1085   10.4500 H         1 VAL         0.1885
     38 H9         28.2149   34.6625    9.0280 H         1 VAL         0.0803
     39 H10        30.4748   34.9345    9.9213 H         1 VAL         0.0343
     40 H11        31.2225   36.7849    8.4676 H         1 VAL         0.0234
     41 H12        29.5187   37.3325    8.3134 H         1 VAL         0.0234
     42 H13        30.0066   35.7251    7.6771 H         1 VAL         0.0234
     43 H14        29.9363   36.2395   11.9157 H         1 VAL         0.0234
     44 H15        29.6135   37.6720   10.8812 H         1 VAL         0.0234
     45 H16        31.2639   36.9660   10.9481 H         1 VAL         0.0234
     46 H17        27.2285   32.8527   12.9312 H         1 PRO         0.0802
     47 H18        27.1515   30.7523   11.8483 H         1 PRO         0.0313
     48 H19        28.6563   30.4758   12.7895 H         1 PRO         0.0313
     49 H20        28.6411   30.2466   10.1116 H         1 PRO         0.0287
     50 H21        30.0429   30.9722   10.9690 H         1 PRO         0.0287
     51 H22        29.5899   32.7756    9.5320 H         1 PRO         0.0524
     52 H23        27.8575   32.3335    9.3592 H         1 PRO         0.0524
     53 H24        28.0956   32.6274   14.9772 H         1 ILE         0.1875
     54 H25        30.9532   33.4003   15.3306 H         1 ILE         0.0729
     55 H26        28.7226   32.8680   17.3377 H         1 ILE         0.0338
     56 H27        28.3580   34.8085   15.8429 H         1 ILE         0.0267
     57 H28        29.9792   35.4466   16.2804 H         1 ILE         0.0267
     58 H29        30.9628   32.4489   18.3034 H         1 ILE         0.0234
     59 H30        30.2195   33.9360   18.9835 H         1 ILE         0.0234
     60 H31        31.5092   34.0646   17.7398 H         1 ILE         0.0234
     61 H32        28.2099   36.5697   17.5107 H         1 ILE         0.0230
     62 H33        29.2791   35.6303   18.6065 H         1 ILE         0.0230
     63 H34        27.6580   34.9922   18.1689 H         1 ILE         0.0230
@<TRIPOS>BOND
     1    1    2 1  
     2    2    3 1  
     3    2    5 1  
     4    3    4 2  
     5    3    7 am 
     6    5    6 1  
     7    7    8 1  
     8    8    9 1  
     9    8   11 1  
    10    9   10 2  
    11    9   14 am 
    12   11   12 1  
    13   11   13 1  
    14   14   15 1  
    15   14   20 1  
    16   15   16 1  
    17   15   18 1  
    18   16   17 2  
    19   16   21 am 
    20   18   19 1  
    21   19   20 1  
    22   21   22 1  
    23   22   23 1  
    24   22   25 1  
    25   23   24 ar 
    26   23   29 ar 
    27   25   26 1  
    28   25   27 1  
    29   26   28 1  
    30    1   30 1  
    31    1   31 1  
    32    1   32 1  
    33    2   33 1  
    34    5   34 1  
    35    5   35 1  
    36    6   36 1  
    37    7   37 1  
    38    8   38 1  
    39   11   39 1  
    40   12   40 1  
    41   12   41 1  
    42   12   42 1  
    43   13   43 1  
    44   13   44 1  
    45   13   45 1  
    46   15   46 1  
    47   18   47 1  
    48   18   48 1  
    49   19   49 1  
    50   19   50 1  
    51   20   51 1  
    52   20   52 1  
    53   21   53 1  
    54   22   54 1  
    55   25   55 1  
    56   26   56 1  
    57   26   57 1  
    58   27   58 1  
    59   27   59 1  
    60   27   60 1  
    61   28   61 1  
    62   28   62 1  
    63   28   63 1  
@<TRIPOS>SUBSTRUCTURE
     1 SER         1

