### 
### Created by X-TOOL on Mon Sep 10 21:13:14 2018
### 

@<TRIPOS>MOLECULE
4j48_ligand
   70    69     1     0     0
SMALL
GAST_HUCK


@<TRIPOS>ATOM
      1 N         -38.1350  -25.0330   -7.2830 N.4       1 ALA         0.2377
      2 CA        -38.0510  -25.5140   -8.6690 C.3       1 ALA         0.0621
      3 C         -36.9540  -26.5990   -8.6860 C.2       1 ALA         0.2264
      4 O         -36.1590  -26.7640   -7.7250 O.2       1 ALA        -0.3907
      5 CB        -37.7430  -24.3890   -9.6490 C.3       1 ALA        -0.0040
      6 N         -36.9350  -27.3530   -9.7690 N.am      1 MET        -0.2610
      7 CA        -35.9730  -28.4180   -9.8760 C.3       1 MET         0.1318
      8 C         -35.2510  -28.3680  -11.2180 C.2       1 MET         0.2039
      9 O         -35.7500  -27.8260  -12.2260 O.2       1 MET        -0.3944
     10 CB        -36.6670  -29.7690   -9.5950 C.3       1 MET        -0.0034
     11 CG        -37.6660  -30.2410  -10.6310 C.3       1 MET        -0.0024
     12 SD        -38.6990  -31.6130   -9.9690 S.3       1 MET        -0.1639
     13 CE        -37.6590  -33.0190  -10.4230 C.3       1 MET        -0.0181
     14 N         -34.0610  -28.9370  -11.2280 N.am      1 ARG        -0.2637
     15 CA        -33.3760  -29.1840  -12.4770 C.3       1 ARG         0.1310
     16 C         -34.0900  -30.1800  -13.3360 C.2       1 ARG         0.2033
     17 O         -34.7850  -31.0770  -12.8570 O.2       1 ARG        -0.3944
     18 CB        -31.9560  -29.6670  -12.2290 C.3       1 ARG        -0.0092
     19 CG        -31.0690  -28.4710  -11.9870 C.3       1 ARG        -0.0156
     20 CD        -29.7540  -28.8940  -11.4440 C.3       1 ARG         0.0627
     21 NE        -29.9780  -29.5580  -10.1920 N.pl3     1 ARG        -0.2723
     22 CZ        -29.0420  -30.1850   -9.5110 C.cat     1 ARG         0.2882
     23 NH1       -27.7840  -30.2400   -9.9690 N.pl3     1 ARG        -0.2849
     24 NH2       -29.3820  -30.7470   -8.3630 N.pl3     1 ARG        -0.2849
     25 N         -33.9120  -29.9580  -14.6250 N.am      1 VAL        -0.2692
     26 CA        -34.5260  -30.7140  -15.6580 C.3       1 VAL         0.0967
     27 C         -33.7130  -31.9650  -15.8840 C.2       1 VAL         0.0603
     28 O         -34.3050  -33.0160  -16.1090 O.co2     1 VAL        -0.5666
     29 CB        -34.5750  -29.9110  -16.9490 C.3       1 VAL        -0.0118
     30 CG1       -35.0800  -30.7780  -18.0940 C.3       1 VAL        -0.0590
     31 CG2       -35.4690  -28.6990  -16.7670 C.3       1 VAL        -0.0590
     32 H         -32.6240  -31.9357  -15.8482 O.co2     1 VAL        -0.5666
     33 H1        -38.8423  -24.3178   -7.2179 H         1 ALA         0.2015
     34 H2        -37.2445  -24.6510   -7.0053 H         1 ALA         0.2015
     35 H3        -38.3759  -25.8001   -6.6751 H         1 ALA         0.2015
     36 H4        -39.0129  -25.9645   -8.9549 H         1 ALA         0.1095
     37 H5        -37.6901  -24.7960  -10.6696 H         1 ALA         0.0310
     38 H6        -36.7788  -23.9286   -9.3875 H         1 ALA         0.0310
     39 H7        -38.5377  -23.6301   -9.5977 H         1 ALA         0.0310
     40 H8        -37.5848  -27.1854  -10.5104 H         1 MET         0.1884
     41 H9        -35.2138  -28.2691   -9.0940 H         1 MET         0.0800
     42 H10       -37.1970  -29.6798   -8.6353 H         1 MET         0.0320
     43 H11       -35.8837  -30.5367   -9.5113 H         1 MET         0.0320
     44 H12       -37.1232  -30.5953  -11.5197 H         1 MET         0.0378
     45 H13       -38.3190  -29.4011  -10.9107 H         1 MET         0.0378
     46 H14       -38.1392  -33.9520  -10.0928 H         1 MET         0.0340
     47 H15       -36.6768  -32.9204   -9.9376 H         1 MET         0.0340
     48 H16       -37.5279  -33.0407  -11.5149 H         1 MET         0.0340
     49 H17       -33.6293  -29.1995  -10.3650 H         1 ARG         0.1883
     50 H18       -33.3279  -28.2323  -13.0264 H         1 ARG         0.0800
     51 H19       -31.5959  -30.2221  -13.1077 H         1 ARG         0.0313
     52 H20       -31.9382  -30.3245  -11.3473 H         1 ARG         0.0313
     53 H21       -31.5578  -27.7989  -11.2664 H         1 ARG         0.0301
     54 H22       -30.9130  -27.9390  -12.9371 H         1 ARG         0.0301
     55 H23       -29.1144  -28.0126  -11.2887 H         1 ARG         0.0689
     56 H24       -29.2645  -29.5828  -12.1483 H         1 ARG         0.0689
     57 H25       -30.9310  -29.5432   -9.8015 H         1 ARG         0.2642
     58 H26       -27.0599  -30.7334   -9.4276 H         1 ARG         0.2615
     59 H27       -27.5410  -29.7889  -10.8625 H         1 ARG         0.2615
     60 H28       -30.3555  -30.6918   -8.0310 H         1 ARG         0.2615
     61 H29       -28.6733  -31.2398   -7.8010 H         1 ARG         0.2615
     62 H30       -33.3054  -29.2088  -14.8911 H         1 VAL         0.1875
     63 H31       -35.5490  -30.9841  -15.3571 H         1 VAL         0.0729
     64 H32       -33.5584  -29.5672  -17.1905 H         1 VAL         0.0336
     65 H33       -35.1094  -30.1832  -19.0189 H         1 VAL         0.0234
     66 H34       -36.0913  -31.1420  -17.8599 H         1 VAL         0.0234
     67 H35       -34.4042  -31.6351  -18.2306 H         1 VAL         0.0234
     68 H36       -35.0897  -28.0850  -15.9369 H         1 VAL         0.0234
     69 H37       -36.4933  -29.0296  -16.5402 H         1 VAL         0.0234
     70 H38       -35.4722  -28.1035  -17.6918 H         1 VAL         0.0234
@<TRIPOS>BOND
     1    1    2 1  
     2    2    3 1  
     3    2    5 1  
     4    3    4 2  
     5    3    6 am 
     6    6    7 1  
     7    7    8 1  
     8    7   10 1  
     9    8    9 2  
    10    8   14 am 
    11   10   11 1  
    12   11   12 1  
    13   12   13 1  
    14   14   15 1  
    15   15   16 1  
    16   15   18 1  
    17   16   17 2  
    18   16   25 am 
    19   18   19 1  
    20   19   20 1  
    21   20   21 1  
    22   21   22 ar 
    23   22   23 ar 
    24   22   24 ar 
    25   25   26 1  
    26   26   27 1  
    27   26   29 1  
    28   27   28 ar 
    29   29   30 1  
    30   29   31 1  
    31   27   32 ar 
    32    1   33 1  
    33    1   34 1  
    34    1   35 1  
    35    2   36 1  
    36    5   37 1  
    37    5   38 1  
    38    5   39 1  
    39    6   40 1  
    40    7   41 1  
    41   10   42 1  
    42   10   43 1  
    43   11   44 1  
    44   11   45 1  
    45   13   46 1  
    46   13   47 1  
    47   13   48 1  
    48   14   49 1  
    49   15   50 1  
    50   18   51 1  
    51   18   52 1  
    52   19   53 1  
    53   19   54 1  
    54   20   55 1  
    55   20   56 1  
    56   21   57 1  
    57   23   58 1  
    58   23   59 1  
    59   24   60 1  
    60   24   61 1  
    61   25   62 1  
    62   26   63 1  
    63   29   64 1  
    64   30   65 1  
    65   30   66 1  
    66   30   67 1  
    67   31   68 1  
    68   31   69 1  
    69   31   70 1  
@<TRIPOS>SUBSTRUCTURE
     1 ALA         1

