### 
### Created by X-TOOL on Mon Sep 10 21:13:15 2018
### 

@<TRIPOS>MOLECULE
4j4n_ligand
   38    40     1     0     0
SMALL
GAST_HUCK


@<TRIPOS>ATOM
      1 O1         -9.0660   11.8840  -30.5610 O.2       1 D44        -0.3846
      2 C2         -9.1310   10.9730  -29.7580 C.2       1 D44         0.2151
      3 N3         -9.2290    9.6750  -30.0920 N.am      1 D44        -0.2361
      4 C4         -9.2620    9.1960  -31.4270 C.ar      1 D44         0.0688
      5 C9         -8.4490    9.7780  -32.4150 C.ar      1 D44        -0.0475
      6 C8         -8.4580    9.3310  -33.7430 C.ar      1 D44        -0.0825
      7 C7         -9.2900    8.2770  -34.1050 C.ar      1 D44        -0.0840
      8 C6        -10.1040    7.6880  -33.1360 C.ar      1 D44        -0.0735
      9 C5        -10.0990    8.1310  -31.8000 C.ar      1 D44        -0.0213
     10 C10       -11.0030    7.4550  -30.7730 C.3       1 D44        -0.0259
     11 C11       -11.9210    6.4070  -31.3740 C.3       1 D44        -0.0574
     12 C12        -9.1200   11.3560  -28.3000 C.3       1 D44         0.1117
     13 S13        -8.7280   10.0240  -27.2170 S.3       1 D44        -0.0117
     14 C14       -10.0670    8.9380  -27.0480 C.2       1 D44         0.1928
     15 N18        -9.9110    7.7310  -26.4940 N.pl3     1 D44        -0.2220
     16 C17       -11.1510    7.2200  -26.5650 C.ar      1 D44         0.1516
     17 N22       -11.5430    5.9950  -26.1350 N.ar      1 D44        -0.2851
     18 C21       -12.8210    5.6320  -26.2800 C.ar      1 D44        -0.0062
     19 C20       -13.7410    6.4990  -26.8670 C.ar      1 D44        -0.0506
     20 C19       -13.3470    7.7570  -27.3190 C.ar      1 D44        -0.0460
     21 C16       -12.0170    8.1320  -27.1590 C.ar      1 D44         0.0494
     22 N15       -11.3030    9.2400  -27.4680 N.2       1 D44        -0.2989
     23 H1         -9.2820    9.0040  -29.3524 H         1 D44         0.2235
     24 H2         -7.7949   10.5979  -32.1411 H         1 D44         0.0480
     25 H3         -7.8214    9.8031  -34.4825 H         1 D44         0.0520
     26 H4         -9.3062    7.9172  -35.1274 H         1 D44         0.0470
     27 H5        -10.7558    6.8695  -33.4193 H         1 D44         0.0513
     28 H6        -11.6225    8.2266  -30.2925 H         1 D44         0.0394
     29 H7        -10.3689    6.9701  -30.0162 H         1 D44         0.0394
     30 H8        -12.5404    5.9636  -30.5804 H         1 D44         0.0249
     31 H9        -11.3173    5.6205  -31.8504 H         1 D44         0.0249
     32 H10       -12.5709    6.8771  -32.1268 H         1 D44         0.0249
     33 H11       -10.1171   11.7369  -28.0341 H         1 D44         0.0657
     34 H12        -8.3734   12.1509  -28.1560 H         1 D44         0.0657
     35 H13        -9.0568    7.3021  -26.1103 H         1 D44         0.2367
     36 H14       -13.1447    4.6555  -25.9384 H         1 D44         0.0741
     37 H15       -14.7750    6.1912  -26.9732 H         1 D44         0.0602
     38 H16       -14.0603    8.4276  -27.7844 H         1 D44         0.0663
@<TRIPOS>BOND
     1    1    2 2  
     2    2    3 am 
     3    2   12 1  
     4    3    4 1  
     5    4    5 ar 
     6    4    9 ar 
     7    5    6 ar 
     8    6    7 ar 
     9    7    8 ar 
    10    8    9 ar 
    11    9   10 1  
    12   10   11 1  
    13   12   13 1  
    14   13   14 1  
    15   14   15 1  
    16   14   22 2  
    17   15   16 1  
    18   16   17 ar 
    19   16   21 ar 
    20   17   18 ar 
    21   18   19 ar 
    22   19   20 ar 
    23   20   21 ar 
    24   21   22 1  
    25    3   23 1  
    26    5   24 1  
    27    6   25 1  
    28    7   26 1  
    29    8   27 1  
    30   10   28 1  
    31   10   29 1  
    32   11   30 1  
    33   11   31 1  
    34   11   32 1  
    35   12   33 1  
    36   12   34 1  
    37   15   35 1  
    38   18   36 1  
    39   19   37 1  
    40   20   38 1  
@<TRIPOS>SUBSTRUCTURE
     1 D44         1

