### 
### Created by X-TOOL on Mon Sep 10 21:13:13 2018
### 

@<TRIPOS>MOLECULE
4j4o_ligand
   38    40     1     0     0
SMALL
GAST_HUCK


@<TRIPOS>ATOM
      1 O1        -16.0780   20.5760   -9.4090 O.2       1 D44        -0.3846
      2 C2        -15.1680   21.0940   -8.7800 C.2       1 D44         0.2151
      3 N3        -14.4250   22.0180   -9.3460 N.am      1 D44        -0.2361
      4 C4        -14.8300   22.4080  -10.6160 C.ar      1 D44         0.0688
      5 C9        -15.0000   21.5450  -11.6970 C.ar      1 D44        -0.0475
      6 C8        -15.4170   22.0130  -12.9320 C.ar      1 D44        -0.0825
      7 C7        -15.7250   23.3560  -13.0490 C.ar      1 D44        -0.0840
      8 C6        -15.6040   24.2050  -11.9560 C.ar      1 D44        -0.0735
      9 C5        -15.1420   23.7310  -10.7250 C.ar      1 D44        -0.0213
     10 C10       -14.9960   24.6120   -9.4890 C.3       1 D44        -0.0259
     11 C11       -13.5770   24.9500   -9.0560 C.3       1 D44        -0.0574
     12 C12       -14.7760   20.6940   -7.3820 C.3       1 D44         0.1117
     13 S13       -13.5990   21.8060   -6.6110 S.3       1 D44        -0.0117
     14 C14       -12.0310   21.1420   -7.0750 C.2       1 D44         0.1928
     15 N18       -10.8640   21.7080   -6.7130 N.pl3     1 D44        -0.2220
     16 C17        -9.9460   20.8740   -7.2680 C.ar      1 D44         0.1516
     17 N22        -8.5940   21.0040   -7.1910 N.ar      1 D44        -0.2851
     18 C21        -7.8230   20.0810   -7.8090 C.ar      1 D44        -0.0062
     19 C20        -8.3750   19.0180   -8.5270 C.ar      1 D44        -0.0506
     20 C19        -9.7720   18.8910   -8.6120 C.ar      1 D44        -0.0460
     21 C16       -10.5690   19.8340   -7.9480 C.ar      1 D44         0.0494
     22 N15       -11.9180   20.0130   -7.8120 N.2       1 D44        -0.2989
     23 H1        -13.6247   22.4125   -8.8945 H         1 D44         0.2235
     24 H2        -14.8020   20.4870  -11.5687 H         1 D44         0.0480
     25 H3        -15.4996   21.3458  -13.7823 H         1 D44         0.0520
     26 H4        -16.0634   23.7493  -14.0008 H         1 D44         0.0470
     27 H5        -15.8718   25.2503  -12.0594 H         1 D44         0.0513
     28 H6        -15.4862   24.0949   -8.6510 H         1 D44         0.0394
     29 H7        -15.5176   25.5592   -9.6910 H         1 D44         0.0394
     30 H8        -13.6090   25.5862   -8.1592 H         1 D44         0.0249
     31 H9        -13.0638   25.4862   -9.8678 H         1 D44         0.0249
     32 H10       -13.0324   24.0220   -8.8278 H         1 D44         0.0249
     33 H11       -14.3289   19.6897   -7.4216 H         1 D44         0.0657
     34 H12       -15.6842   20.6669   -6.7620 H         1 D44         0.0657
     35 H13       -10.7067   22.5595   -6.1553 H         1 D44         0.2367
     36 H14        -6.7444   20.1688   -7.7452 H         1 D44         0.0741
     37 H15        -7.7305   18.2960   -9.0153 H         1 D44         0.0602
     38 H16       -10.2225   18.0833   -9.1774 H         1 D44         0.0663
@<TRIPOS>BOND
     1    1    2 2  
     2    2    3 am 
     3    2   12 1  
     4    3    4 1  
     5    4    5 ar 
     6    4    9 ar 
     7    5    6 ar 
     8    6    7 ar 
     9    7    8 ar 
    10    8    9 ar 
    11    9   10 1  
    12   10   11 1  
    13   12   13 1  
    14   13   14 1  
    15   14   15 1  
    16   14   22 2  
    17   15   16 1  
    18   16   17 ar 
    19   16   21 ar 
    20   17   18 ar 
    21   18   19 ar 
    22   19   20 ar 
    23   20   21 ar 
    24   21   22 1  
    25    3   23 1  
    26    5   24 1  
    27    6   25 1  
    28    7   26 1  
    29    8   27 1  
    30   10   28 1  
    31   10   29 1  
    32   11   30 1  
    33   11   31 1  
    34   11   32 1  
    35   12   33 1  
    36   12   34 1  
    37   15   35 1  
    38   18   36 1  
    39   19   37 1  
    40   20   38 1  
@<TRIPOS>SUBSTRUCTURE
     1 D44         1

