### 
### Created by X-TOOL on Mon Sep 10 21:13:15 2018
### 

@<TRIPOS>MOLECULE
4j4v_ligand
   46    48     1     0     0
SMALL
GAST_HUCK


@<TRIPOS>ATOM
      1 N53        30.7180   32.3400   20.8580 N.pl3     1 SVR        -0.3392
      2 C55        31.8310   31.4640   20.4990 C.ar      1 SVR         0.0432
      3 C56        33.0680   32.0230   20.1930 C.ar      1 SVR        -0.0309
      4 C57        31.6570   30.0860   20.4620 C.ar      1 SVR        -0.0230
      5 C59        30.3370   29.4720   20.7870 C.3       1 SVR        -0.0324
      6 C60        32.7190   29.2610   20.1190 C.ar      1 SVR        -0.0658
      7 C62        33.9570   29.8060   19.8120 C.ar      1 SVR        -0.0612
      8 C58        34.1490   31.1880   19.8430 C.ar      1 SVR         0.0381
      9 C61        35.4940   31.7940   19.5100 C.2       1 SVR         0.2283
     10 O64        35.6170   33.0080   19.5930 O.2       1 SVR        -0.3740
     11 N63        36.5920   30.9160   19.1010 N.am      1 SVR        -0.2285
     12 C65        37.9400   31.3310   18.7560 C.ar      1 SVR         0.0824
     13 C67        38.5950   32.2010   19.6020 C.ar      1 SVR        -0.0414
     14 C70        39.8720   32.6350   19.3540 C.ar      1 SVR        -0.0595
     15 C71        40.5660   32.1990   18.2470 C.ar      1 SVR         0.0386
     16 S75        42.2190   32.8080   17.9930 S.o2      1 SVR        -0.1723
     17 O80        42.3060   33.5470   16.7590 O.co2     1 SVR        -0.4823
     18 O81        42.6610   33.7950   18.9510 O.co2     1 SVR        -0.4823
     19 O82        43.1570   31.6760   17.9870 O.co2     1 SVR        -0.4823
     20 C66        38.6200   30.8550   17.5970 C.ar      1 SVR         0.0350
     21 C68        39.9530   31.3170   17.3570 C.ar      1 SVR        -0.0062
     22 C72        40.6420   30.8700   16.2210 C.ar      1 SVR        -0.0371
     23 C69        38.0520   29.9550   16.6670 C.ar      1 SVR         0.0599
     24 S73        36.4170   29.2920   16.8160 S.o2      1 SVR        -0.1625
     25 O77        36.0890   28.3860   15.7450 O.co2     1 SVR        -0.4795
     26 O78        35.4170   30.3240   16.6630 O.co2     1 SVR        -0.4795
     27 O79        36.2700   28.6140   18.1060 O.co2     1 SVR        -0.4795
     28 C74        38.7810   29.5480   15.5680 C.ar      1 SVR        -0.0210
     29 C76        40.0510   30.0000   15.3470 C.ar      1 SVR         0.0494
     30 S83        40.9610   29.4620   13.9370 S.o2      1 SVR        -0.1636
     31 O85        40.0510   28.9680   12.8880 O.co2     1 SVR        -0.4797
     32 O86        41.8350   30.4930   13.4320 O.co2     1 SVR        -0.4797
     33 O84        41.9200   28.4510   14.3180 O.co2     1 SVR        -0.4797
     34 H1         30.8535   33.3607   20.8836 H         1 SVR         0.1697
     35 H2         29.7979   31.9368   21.0855 H         1 SVR         0.1697
     36 H3         33.2004   33.0985   20.2236 H         1 SVR         0.0542
     37 H4         30.4101   28.3779   20.6996 H         1 SVR         0.0374
     38 H5         29.5762   29.8458   20.0860 H         1 SVR         0.0374
     39 H6         30.0514   29.7394   21.8151 H         1 SVR         0.0374
     40 H7         32.5804   28.1863   20.0909 H         1 SVR         0.0533
     41 H8         34.7811   29.1539   19.5461 H         1 SVR         0.0542
     42 H9         36.3947   29.9367   19.0548 H         1 SVR         0.2306
     43 H10        38.0844   32.5529   20.4911 H         1 SVR         0.0443
     44 H11        40.3420   33.3313   20.0391 H         1 SVR         0.0583
     45 H12        41.6518   31.2169   16.0338 H         1 SVR         0.0606
     46 H13        38.3357   28.8540   14.8643 H         1 SVR         0.0614
@<TRIPOS>BOND
     1    1    2 1  
     2    2    3 ar 
     3    2    4 ar 
     4    3    8 ar 
     5    4    5 1  
     6    4    6 ar 
     7    6    7 ar 
     8    7    8 ar 
     9    8    9 1  
    10    9   10 2  
    11    9   11 am 
    12   11   12 1  
    13   12   13 ar 
    14   12   20 ar 
    15   13   14 ar 
    16   14   15 ar 
    17   15   16 1  
    18   15   21 ar 
    19   16   17 ar 
    20   16   18 ar 
    21   16   19 ar 
    22   20   21 ar 
    23   20   23 ar 
    24   21   22 ar 
    25   22   29 ar 
    26   23   24 1  
    27   23   28 ar 
    28   24   25 ar 
    29   24   26 ar 
    30   24   27 ar 
    31   28   29 ar 
    32   29   30 1  
    33   30   31 ar 
    34   30   32 ar 
    35   30   33 ar 
    36    1   34 1  
    37    1   35 1  
    38    3   36 1  
    39    5   37 1  
    40    5   38 1  
    41    5   39 1  
    42    6   40 1  
    43    7   41 1  
    44   11   42 1  
    45   13   43 1  
    46   14   44 1  
    47   22   45 1  
    48   28   46 1  
@<TRIPOS>SUBSTRUCTURE
     1 SVR         1

