### 
### Created by X-TOOL on Mon Sep 10 21:13:14 2018
### 

@<TRIPOS>MOLECULE
4j51_ligand
   55    59     1     0     0
SMALL
GAST_HUCK


@<TRIPOS>ATOM
      1 C1         31.6580   -5.3800   35.1020 C.ar      1 N75         0.0009
      2 C2         31.5460   -4.0430   35.4700 C.ar      1 N75         0.0929
      3 C3         32.5200   -3.4850   36.3140 C.ar      1 N75         0.0277
      4 C4         33.5780   -4.2730   36.7580 C.ar      1 N75        -0.0582
      5 C5         33.6590   -5.6040   36.3720 C.ar      1 N75         0.0050
      6 C6         32.7130   -6.1530   35.5510 C.ar      1 N75         0.1213
      7 C7         34.5290   -6.6310   36.6040 C.2       1 N75         0.0471
      8 C8         34.0040   -7.7000   35.9020 C.2       1 N75         0.1369
      9 O1         32.9560   -7.3480   35.3190 O.3       1 N75        -0.2520
     10 C9         34.4720   -8.9890   35.7850 C.ar      1 N75         0.0091
     11 C10        34.1400   -9.9460   36.7400 C.ar      1 N75        -0.0579
     12 C11        34.5900  -11.2450   36.6660 C.ar      1 N75        -0.0303
     13 C12        35.4060  -11.6880   35.6350 C.ar      1 N75         0.0969
     14 C13        35.7390  -10.7310   34.6750 C.ar      1 N75        -0.0303
     15 C14        35.2870   -9.4290   34.7500 C.ar      1 N75        -0.0579
     16 O2         35.8230  -13.0140   35.6350 O.3       1 N75        -0.2958
     17 C15        35.1570  -13.9710   34.8240 C.3       1 N75         0.1597
     18 C16        34.3140  -14.9250   35.6640 C.2       1 N75         0.2073
     19 N1         35.0560  -15.9260   36.2700 N.am      1 N75        -0.2817
     20 O3         33.1120  -14.8080   35.7900 O.2       1 N75        -0.3941
     21 C17        34.4780  -16.9440   37.1360 C.3       1 N75         0.0422
     22 C18        35.3920  -18.1470   37.0300 C.3       1 N75        -0.0278
     23 C19        35.0810  -17.4760   38.3670 C.3       1 N75        -0.0278
     24 C20        35.6220   -6.5110   37.3690 C.1       1 N75        -0.0849
     25 C21        36.6620   -6.4150   38.0130 C.1       1 N75        -0.0799
     26 C22        37.8210   -6.3150   38.6450 C.ar      1 N75         0.0161
     27 C23        38.9900   -6.2040   37.9020 C.ar      1 N75        -0.0497
     28 C24        40.2090   -6.0950   38.5320 C.ar      1 N75        -0.0624
     29 C25        40.2820   -6.0960   39.9050 C.ar      1 N75        -0.0497
     30 C26        39.1280   -6.2070   40.6550 C.ar      1 N75         0.0394
     31 CL         39.2410   -6.2090   42.3790 Cl        1 N75        -0.0712
     32 C27        37.8880   -6.3170   40.0300 C.ar      1 N75        -0.0358
     33 C28        32.4660   -2.1710   36.7190 C.2       1 N75         0.0534
     34 O4         33.2760   -1.3480   36.3810 O.co2     1 N75        -0.5659
     35 O5         31.4990   -1.6690   37.5270 O.co2     1 N75        -0.5659
     36 O6         30.4650   -3.3570   34.9730 O.3       1 N75        -0.3347
     37 H1         30.9086   -5.8214   34.4550 H         1 N75         0.0476
     38 H2         34.3375   -3.8480   37.4042 H         1 N75         0.0577
     39 H3         33.5053   -9.6585   37.5704 H         1 N75         0.0603
     40 H4         34.2968  -11.9455   37.4395 H         1 N75         0.0551
     41 H5         36.3727  -11.0195   33.8442 H         1 N75         0.0551
     42 H6         35.5774   -8.7274   33.9764 H         1 N75         0.0603
     43 H7         35.9071  -14.5522   34.2676 H         1 N75         0.0861
     44 H8         34.5013  -13.4444   34.1149 H         1 N75         0.0861
     45 H9         36.0418  -15.9507   36.1037 H         1 N75         0.1855
     46 H10        33.3831  -16.9791   37.0361 H         1 N75         0.0556
     47 H11        36.3898  -18.0490   36.5776 H         1 N75         0.0288
     48 H12        34.9796  -19.1398   36.7970 H         1 N75         0.0288
     49 H13        34.4519  -17.9930   39.1066 H         1 N75         0.0288
     50 H14        35.8621  -16.9022   38.8872 H         1 N75         0.0288
     51 H15        38.9416   -6.2032   36.8191 H         1 N75         0.0612
     52 H16        41.1151   -6.0080   37.9433 H         1 N75         0.0612
     53 H17        41.2437   -6.0098   40.3977 H         1 N75         0.0607
     54 H18        36.9835   -6.4034   40.6211 H         1 N75         0.0617
     55 H19        29.9342   -3.0392   35.6940 H         1 N75         0.2482
@<TRIPOS>BOND
     1    1    2 ar 
     2    1    6 ar 
     3    2    3 ar 
     4    2   36 1  
     5    3    4 ar 
     6    3   33 1  
     7    4    5 ar 
     8    5    6 ar 
     9    5    7 1  
    10    6    9 1  
    11    7    8 2  
    12    7   24 1  
    13    8    9 1  
    14    8   10 1  
    15   10   11 ar 
    16   10   15 ar 
    17   11   12 ar 
    18   12   13 ar 
    19   13   14 ar 
    20   13   16 1  
    21   14   15 ar 
    22   16   17 1  
    23   17   18 1  
    24   18   19 am 
    25   18   20 2  
    26   19   21 1  
    27   21   22 1  
    28   21   23 1  
    29   22   23 1  
    30   24   25 3  
    31   25   26 1  
    32   26   27 ar 
    33   26   32 ar 
    34   27   28 ar 
    35   28   29 ar 
    36   29   30 ar 
    37   30   31 1  
    38   30   32 ar 
    39   33   34 ar 
    40   33   35 ar 
    41    1   37 1  
    42    4   38 1  
    43   11   39 1  
    44   12   40 1  
    45   14   41 1  
    46   15   42 1  
    47   17   43 1  
    48   17   44 1  
    49   19   45 1  
    50   21   46 1  
    51   22   47 1  
    52   22   48 1  
    53   23   49 1  
    54   23   50 1  
    55   27   51 1  
    56   28   52 1  
    57   29   53 1  
    58   32   54 1  
    59   36   55 1  
@<TRIPOS>SUBSTRUCTURE
     1 N75         1

