### 
### Created by X-TOOL on Mon Sep 10 21:13:14 2018
### 

@<TRIPOS>MOLECULE
4j52_ligand
   79    83     1     0     0
SMALL
GAST_HUCK


@<TRIPOS>ATOM
      1 C1         30.8930  -36.2540  -20.9970 C.3       1 1J3         0.0570
      2 O2         31.6400  -35.2380  -20.3010 O.3       1 1J3        -0.3243
      3 C3         32.7110  -35.5950  -19.5290 C.ar      1 1J3         0.1200
      4 C4         33.3410  -36.8310  -19.6730 C.ar      1 1J3        -0.0227
      5 C5         34.4360  -37.1550  -18.8520 C.ar      1 1J3         0.0330
      6 C6         34.8660  -36.2230  -17.8880 C.ar      1 1J3        -0.0626
      7 C7         34.2400  -34.9910  -17.7460 C.ar      1 1J3        -0.0405
      8 C8         33.1490  -34.6760  -18.5680 C.ar      1 1J3         0.0982
      9 N9         32.4240  -33.4750  -18.4990 N.pl3     1 1J3        -0.2523
     10 C10        32.5130  -32.4540  -17.5680 C.ar      1 1J3         0.1787
     11 N11        31.6980  -31.4220  -17.7160 N.ar      1 1J3        -0.2867
     12 C12        31.7510  -30.3830  -16.8770 C.ar      1 1J3         0.0212
     13 C13        32.6580  -30.3940  -15.8350 C.ar      1 1J3         0.1283
     14 N14        32.7200  -29.2580  -14.9970 N.am      1 1J3        -0.2286
     15 C15        32.6870  -27.9330  -15.6350 C.3       1 1J3         0.0420
     16 C16        32.8720  -29.3010  -13.6470 C.2       1 1J3         0.2148
     17 O17        32.9350  -28.2430  -13.0110 O.2       1 1J3        -0.3609
     18 C18        32.9240  -30.6140  -12.9190 C.3       1 1J3         0.1888
     19 F19        33.1210  -30.3230  -11.5820 F         1 1J3        -0.2882
     20 C20        34.1100  -31.4860  -13.2840 C.3       1 1J3         0.0442
     21 N21        34.4760  -31.6510  -14.6920 N.pl3     1 1J3        -0.2970
     22 C22        35.3710  -32.8260  -14.8190 C.3       1 1J3         0.0402
     23 C23        36.7380  -32.5670  -14.1100 C.3       1 1J3        -0.0298
     24 C24        37.1130  -33.9350  -13.4900 C.3       1 1J3        -0.0509
     25 C25        35.7670  -34.5370  -13.0760 C.3       1 1J3        -0.0509
     26 C26        34.7790  -34.0920  -14.1610 C.3       1 1J3        -0.0298
     27 C27        33.5130  -31.5240  -15.6960 C.ar      1 1J3         0.1440
     28 N28        33.3930  -32.5000  -16.5790 N.ar      1 1J3        -0.2506
     29 C29        31.6280  -31.3880  -13.0370 C.2       1 1J3        -0.0334
     30 C30        30.9830  -31.8270  -11.9800 C.2       1 1J3        -0.0386
     31 C31        35.0900  -38.4880  -18.9920 C.2       1 1J3         0.2304
     32 O32        35.2990  -38.9730  -20.0770 O.2       1 1J3        -0.3856
     33 N33        35.4090  -39.1820  -17.8830 N.am      1 1J3        -0.2539
     34 N34        35.9800  -40.4260  -17.8780 N.4       1 1J3         0.3775
     35 C35        37.3320  -40.3750  -17.2860 C.3       1 1J3         0.0335
     36 C36        37.9700  -41.7600  -17.3910 C.3       1 1J3         0.0099
     37 N37        37.1180  -42.7090  -16.6570 N.4       1 1J3         0.2405
     38 C38        37.7540  -44.0260  -16.5430 C.3       1 1J3        -0.0427
     39 C39        35.7560  -42.7750  -17.2250 C.3       1 1J3         0.0099
     40 C40        35.1160  -41.3820  -17.1540 C.3       1 1J3         0.0335
     41 H1         30.0745  -35.7846  -21.5625 H         1 1J3         0.0573
     42 H2         30.4751  -36.9651  -20.2693 H         1 1J3         0.0573
     43 H3         31.5588  -36.7881  -21.6908 H         1 1J3         0.0573
     44 H4         32.9882  -37.5388  -20.4144 H         1 1J3         0.0553
     45 H5         35.7018  -36.4717  -17.2441 H         1 1J3         0.0549
     46 H6         34.5917  -34.2803  -17.0069 H         1 1J3         0.0514
     47 H7         31.7286  -33.3340  -19.2457 H         1 1J3         0.2128
     48 H8         31.0867  -29.5373  -17.0132 H         1 1J3         0.0710
     49 H9         32.5601  -28.0521  -16.7211 H         1 1J3         0.0548
     50 H10        33.6301  -27.4046  -15.4318 H         1 1J3         0.0548
     51 H11        31.8461  -27.3515  -15.2293 H         1 1J3         0.0548
     52 H12        33.9028  -32.4908  -12.8872 H         1 1J3         0.0428
     53 H13        34.9875  -31.0636  -12.7725 H         1 1J3         0.0428
     54 H14        35.5408  -33.0179  -15.8887 H         1 1J3         0.0557
     55 H15        36.6323  -31.8007  -13.3279 H         1 1J3         0.0288
     56 H16        37.4993  -32.2468  -14.8366 H         1 1J3         0.0288
     57 H17        37.7669  -33.8017  -12.6156 H         1 1J3         0.0266
     58 H18        37.6161  -34.5747  -14.2300 H         1 1J3         0.0266
     59 H19        35.4587  -34.1533  -12.0923 H         1 1J3         0.0266
     60 H20        35.8302  -35.6345  -13.0381 H         1 1J3         0.0266
     61 H21        34.6590  -34.8870  -14.9117 H         1 1J3         0.0288
     62 H22        33.8020  -33.8622  -13.7109 H         1 1J3         0.0288
     63 H23        31.2188  -31.5865  -14.0265 H         1 1J3         0.0629
     64 H24        30.0530  -32.3807  -12.1007 H         1 1J3         0.1378
     65 H25        31.3783  -31.6372  -10.9832 H         1 1J3         0.1378
     66 H26        35.2146  -38.7576  -16.9986 H         1 1J3         0.2372
     67 H27        36.0665  -40.7392  -18.8322 H         1 1J3         0.2302
     68 H28        37.2614  -40.0800  -16.2286 H         1 1J3         0.0875
     69 H29        37.9464  -39.6430  -17.8307 H         1 1J3         0.0875
     70 H30        38.9766  -41.7421  -16.9479 H         1 1J3         0.0868
     71 H31        38.0395  -42.0601  -18.4470 H         1 1J3         0.0868
     72 H32        37.0222  -42.3520  -15.7192 H         1 1J3         0.2035
     73 H33        37.0902  -44.7071  -15.9902 H         1 1J3         0.0778
     74 H34        38.7082  -43.9271  -16.0048 H         1 1J3         0.0778
     75 H35        37.9403  -44.4315  -17.5484 H         1 1J3         0.0778
     76 H36        35.1500  -43.4889  -16.6478 H         1 1J3         0.0868
     77 H37        35.8094  -43.1031  -18.2736 H         1 1J3         0.0868
     78 H38        34.1203  -41.4080  -17.6208 H         1 1J3         0.0875
     79 H39        35.0203  -41.0718  -16.1030 H         1 1J3         0.0875
@<TRIPOS>BOND
     1    1    2 1  
     2    2    3 1  
     3    3    4 ar 
     4    3    8 ar 
     5    4    5 ar 
     6    5    6 ar 
     7    5   31 1  
     8    6    7 ar 
     9    7    8 ar 
    10    8    9 1  
    11    9   10 1  
    12   10   11 ar 
    13   10   28 ar 
    14   11   12 ar 
    15   12   13 ar 
    16   13   14 1  
    17   13   27 ar 
    18   14   15 1  
    19   14   16 am 
    20   16   17 2  
    21   16   18 1  
    22   18   19 1  
    23   18   20 1  
    24   18   29 1  
    25   20   21 1  
    26   21   22 1  
    27   21   27 1  
    28   22   23 1  
    29   22   26 1  
    30   23   24 1  
    31   24   25 1  
    32   25   26 1  
    33   27   28 ar 
    34   29   30 2  
    35   31   32 2  
    36   31   33 am 
    37   33   34 1  
    38   34   35 1  
    39   34   40 1  
    40   35   36 1  
    41   36   37 1  
    42   37   38 1  
    43   37   39 1  
    44   39   40 1  
    45    1   41 1  
    46    1   42 1  
    47    1   43 1  
    48    4   44 1  
    49    6   45 1  
    50    7   46 1  
    51    9   47 1  
    52   12   48 1  
    53   15   49 1  
    54   15   50 1  
    55   15   51 1  
    56   20   52 1  
    57   20   53 1  
    58   22   54 1  
    59   23   55 1  
    60   23   56 1  
    61   24   57 1  
    62   24   58 1  
    63   25   59 1  
    64   25   60 1  
    65   26   61 1  
    66   26   62 1  
    67   29   63 1  
    68   30   64 1  
    69   30   65 1  
    70   33   66 1  
    71   34   67 1  
    72   35   68 1  
    73   35   69 1  
    74   36   70 1  
    75   36   71 1  
    76   37   72 1  
    77   38   73 1  
    78   38   74 1  
    79   38   75 1  
    80   39   76 1  
    81   39   77 1  
    82   40   78 1  
    83   40   79 1  
@<TRIPOS>SUBSTRUCTURE
     1 1J3         1

