### 
### Created by X-TOOL on Mon Sep 10 21:13:13 2018
### 

@<TRIPOS>MOLECULE
4j53_ligand
   75    79     1     0     0
SMALL
GAST_HUCK


@<TRIPOS>ATOM
      1 O7         51.0580   11.3520   31.0740 O.2       1 1J4        -0.3926
      2 C6         50.5810   11.2080   32.1790 C.2       1 1J4         0.1931
      3 N8         51.3450   10.9450   33.2460 N.am      1 1J4        -0.2853
      4 C9         52.8080   10.8340   33.2340 C.3       1 1J4         0.0508
      5 C10        53.3570   12.0100   34.0400 C.3       1 1J4         0.0106
      6 C11        54.8580   11.8870   34.2810 C.3       1 1J4        -0.0300
      7 N12        55.1960   10.6100   34.9330 N.4       1 1J4         0.2332
      8 C13        56.6620   10.5090   35.1010 C.3       1 1J4        -0.0431
      9 C14        54.7010    9.4710   34.1330 C.3       1 1J4        -0.0300
     10 C15        53.1860    9.5450   33.9560 C.3       1 1J4         0.0106
     11 C5         49.0810   11.2980   32.3360 C.ar      1 1J4         0.0620
     12 C4         48.2710   10.5160   31.5070 C.ar      1 1J4        -0.0243
     13 C3         46.8740   10.5570   31.6280 C.ar      1 1J4         0.1161
     14 O2         46.0670    9.7880   30.8160 O.3       1 1J4        -0.3268
     15 C1         46.3230    8.4080   30.5410 C.3       1 1J4         0.0561
     16 C16        48.4700   12.1330   33.2810 C.ar      1 1J4         0.1321
     17 F17        49.1810   12.9220   34.1120 F         1 1J4        -0.1895
     18 C18        47.0830   12.1710   33.3910 C.ar      1 1J4        -0.0068
     19 C19        46.2700   11.3880   32.5680 C.ar      1 1J4         0.0968
     20 N20        44.9100   11.3330   32.6530 N.pl3     1 1J4        -0.2527
     21 C21        44.1140   11.8970   33.6060 C.ar      1 1J4         0.1791
     22 N22        42.7820   11.7280   33.4670 N.ar      1 1J4        -0.2862
     23 C23        41.9170   12.2540   34.3240 C.ar      1 1J4         0.0218
     24 C24        42.3690   12.9840   35.4180 C.ar      1 1J4         0.1301
     25 N25        41.4050   13.5860   36.2650 N.am      1 1J4        -0.2165
     26 C26        40.2360   14.1190   35.5470 C.3       1 1J4         0.0434
     27 C27        41.4980   13.7860   37.5920 C.2       1 1J4         0.2902
     28 O28        40.5760   14.3630   38.1640 O.2       1 1J4        -0.3340
     29 N40        44.5830   12.6080   34.6520 N.ar      1 1J4        -0.2501
     30 C39        43.7490   13.1800   35.5530 C.ar      1 1J4         0.1454
     31 N33        44.2670   13.9240   36.6490 N.pl3     1 1J4        -0.2850
     32 C32        44.0210   13.1510   37.8750 C.3       1 1J4         0.1010
     33 C29        42.6290   13.3160   38.4840 C.3       1 1J4         0.3461
     34 F30        42.7160   14.1890   39.4740 F         1 1J4        -0.1995
     35 F31        42.3060   12.1350   38.9790 F         1 1J4        -0.1995
     36 C34        45.7070   14.3130   36.5210 C.3       1 1J4         0.0413
     37 C35        46.0100   15.5460   37.3760 C.3       1 1J4        -0.0298
     38 C36        47.3040   15.3080   38.1360 C.3       1 1J4        -0.0509
     39 C37        47.6230   13.8280   38.0240 C.3       1 1J4        -0.0509
     40 C38        46.7380   13.2490   36.9280 C.3       1 1J4        -0.0298
     41 H1         50.8813   10.8135   34.1222 H         1 1J4         0.1842
     42 H2         53.1994   10.8399   32.2060 H         1 1J4         0.0558
     43 H3         52.8431   12.0450   35.0119 H         1 1J4         0.0339
     44 H4         53.1612   12.9410   33.4879 H         1 1J4         0.0339
     45 H5         55.1858   12.7156   34.9259 H         1 1J4         0.0815
     46 H6         55.3813   11.9449   33.3152 H         1 1J4         0.0815
     47 H7         54.7595   10.5827   35.8412 H         1 1J4         0.2030
     48 H8         56.9103    9.5545   35.5880 H         1 1J4         0.0777
     49 H9         57.0179   11.3423   35.7247 H         1 1J4         0.0777
     50 H10        57.1481   10.5550   34.1153 H         1 1J4         0.0777
     51 H11        54.9579    8.5324   34.6458 H         1 1J4         0.0815
     52 H12        55.1803    9.4912   33.1431 H         1 1J4         0.0815
     53 H13        52.8458    8.6826   33.3640 H         1 1J4         0.0339
     54 H14        52.7024    9.5254   34.9438 H         1 1J4         0.0339
     55 H15        48.7268    9.8719   30.7637 H         1 1J4         0.0544
     56 H16        45.5428    8.0167   29.8715 H         1 1J4         0.0571
     57 H17        46.3172    7.8393   31.4825 H         1 1J4         0.0571
     58 H18        47.3058    8.3066   30.0574 H         1 1J4         0.0571
     59 H19        46.6253   12.8201   34.1288 H         1 1J4         0.0501
     60 H20        44.4283   10.8044   31.9117 H         1 1J4         0.2129
     61 H21        40.8530   12.1142   34.1710 H         1 1J4         0.0713
     62 H22        40.3165   13.8690   34.4788 H         1 1J4         0.0550
     63 H23        40.1996   15.2119   35.6660 H         1 1J4         0.0550
     64 H24        39.3183   13.6744   35.9595 H         1 1J4         0.0550
     65 H25        44.7601   13.4633   38.6275 H         1 1J4         0.0565
     66 H26        44.1647   12.0861   37.6397 H         1 1J4         0.0565
     67 H27        45.8792   14.5606   35.4632 H         1 1J4         0.0558
     68 H28        45.1884   15.7133   38.0880 H         1 1J4         0.0288
     69 H29        46.1188   16.4280   36.7277 H         1 1J4         0.0288
     70 H30        47.1779   15.5877   39.1923 H         1 1J4         0.0266
     71 H31        48.1162   15.9033   37.6935 H         1 1J4         0.0266
     72 H32        47.4137   13.3256   38.9799 H         1 1J4         0.0266
     73 H33        48.6826   13.6912   37.7621 H         1 1J4         0.0266
     74 H34        47.3543   12.9776   36.0582 H         1 1J4         0.0288
     75 H35        46.2196   12.3545   37.3036 H         1 1J4         0.0288
@<TRIPOS>BOND
     1    1    2 2  
     2    2    3 am 
     3    2   11 1  
     4    3    4 1  
     5    4    5 1  
     6    4   10 1  
     7    5    6 1  
     8    6    7 1  
     9    7    8 1  
    10    7    9 1  
    11    9   10 1  
    12   11   12 ar 
    13   11   16 ar 
    14   12   13 ar 
    15   13   14 1  
    16   13   19 ar 
    17   14   15 1  
    18   16   17 1  
    19   16   18 ar 
    20   18   19 ar 
    21   19   20 1  
    22   20   21 1  
    23   21   22 ar 
    24   21   29 ar 
    25   22   23 ar 
    26   23   24 ar 
    27   24   25 1  
    28   24   30 ar 
    29   25   26 1  
    30   25   27 am 
    31   27   28 2  
    32   27   33 1  
    33   29   30 ar 
    34   30   31 1  
    35   31   32 1  
    36   31   36 1  
    37   32   33 1  
    38   33   34 1  
    39   33   35 1  
    40   36   37 1  
    41   36   40 1  
    42   37   38 1  
    43   38   39 1  
    44   39   40 1  
    45    3   41 1  
    46    4   42 1  
    47    5   43 1  
    48    5   44 1  
    49    6   45 1  
    50    6   46 1  
    51    7   47 1  
    52    8   48 1  
    53    8   49 1  
    54    8   50 1  
    55    9   51 1  
    56    9   52 1  
    57   10   53 1  
    58   10   54 1  
    59   12   55 1  
    60   15   56 1  
    61   15   57 1  
    62   15   58 1  
    63   18   59 1  
    64   20   60 1  
    65   23   61 1  
    66   26   62 1  
    67   26   63 1  
    68   26   64 1  
    69   32   65 1  
    70   32   66 1  
    71   36   67 1  
    72   37   68 1  
    73   37   69 1  
    74   38   70 1  
    75   38   71 1  
    76   39   72 1  
    77   39   73 1  
    78   40   74 1  
    79   40   75 1  
@<TRIPOS>SUBSTRUCTURE
     1 1J4         1

