### 
### Created by X-TOOL on Mon Sep 10 21:13:16 2018
### 

@<TRIPOS>MOLECULE
4j58_ligand
   40    41     1     0     0
SMALL
GAST_HUCK


@<TRIPOS>ATOM
      1 CAJ         7.8420   21.3730   19.2820 C.3       1 53Z         0.0340
      2 CAH         9.1360   21.1710   18.4970 C.3       1 53Z        -0.0307
      3 CAI         8.5450   22.2270   17.4440 C.3       1 53Z        -0.0307
      4 CAK         7.4110   21.2340   17.2060 C.3       1 53Z         0.0340
      5 NAT         6.7430   21.0190   18.4510 N.am      1 53Z        -0.2716
      6 C           5.5310   20.6240   18.7220 C.2       1 53Z         0.2007
      7 O           5.1900   20.4740   19.9050 O.2       1 53Z        -0.3947
      8 CA          4.6230   20.3350   17.5310 C.3       1 53Z         0.1205
      9 N           3.4080   19.7430   18.0470 N.am      1 53Z        -0.2545
     10 CAP         3.0870   18.5200   17.7160 C.2       1 53Z         0.2611
     11 OAB         3.7320   17.8830   16.8750 O.2       1 53Z        -0.4006
     12 NAO         1.9420   18.1510   18.2780 N.am      1 53Z        -0.2637
     13 CAM         1.2610   16.8680   18.1530 C.3       1 53Z         0.0590
     14 CAS         1.1440   16.3580   19.6120 C.ar      1 53Z        -0.0341
     15 CAF         2.1230   16.6270   20.5670 C.ar      1 53Z        -0.0698
     16 CAD         1.9930   16.1550   21.8740 C.ar      1 53Z        -0.0509
     17 CAR         0.8820   15.4100   22.2540 C.ar      1 53Z         0.0284
     18 NAA         0.7580   14.9530   23.5160 N.pl3     1 53Z        -0.3406
     19 CAE        -0.0980   15.1430   21.3000 C.ar      1 53Z        -0.0509
     20 CAG         0.0290   15.6140   19.9950 C.ar      1 53Z        -0.0698
     21 H1          7.7531   22.4270   19.5837 H         1 53Z         0.0522
     22 H2          7.8492   20.7345   20.1777 H         1 53Z         0.0522
     23 H3          9.2832   20.1554   18.1008 H         1 53Z         0.0285
     24 H4         10.0486   21.4975   19.0171 H         1 53Z         0.0285
     25 H5          9.1855   22.4130   16.5693 H         1 53Z         0.0285
     26 H6          8.2325   23.1871   17.8805 H         1 53Z         0.0285
     27 H7          7.8196   20.2834   16.8327 H         1 53Z         0.0522
     28 H8          6.7044   21.6439   16.4693 H         1 53Z         0.0522
     29 H9          5.1185   19.6358   16.8414 H         1 53Z         0.0760
     30 H10         4.3898   21.2699   17.0004 H         1 53Z         0.0760
     31 H11         2.8144   20.2689   18.6562 H         1 53Z         0.1874
     32 H12         1.4939   18.8337   18.8551 H         1 53Z         0.1869
     33 H13         1.8521   16.1702   17.5417 H         1 53Z         0.0655
     34 H14         0.2654   16.9966   17.7034 H         1 53Z         0.0655
     35 H15         2.9949   17.2092   20.2916 H         1 53Z         0.0525
     36 H16         2.7670   16.3717   22.6013 H         1 53Z         0.0499
     37 H17        -0.0697   14.4022   23.7853 H         1 53Z         0.1698
     38 H18         1.4909   15.1546   24.2111 H         1 53Z         0.1698
     39 H19        -0.9700   14.5616   21.5767 H         1 53Z         0.0499
     40 H20        -0.7475   15.3997   19.2696 H         1 53Z         0.0525
@<TRIPOS>BOND
     1    1    2 1  
     2    1    5 1  
     3    2    3 1  
     4    3    4 1  
     5    4    5 1  
     6    5    6 am 
     7    6    7 2  
     8    6    8 1  
     9    8    9 1  
    10    9   10 am 
    11   10   11 2  
    12   10   12 am 
    13   12   13 1  
    14   13   14 1  
    15   14   15 ar 
    16   14   20 ar 
    17   15   16 ar 
    18   16   17 ar 
    19   17   18 1  
    20   17   19 ar 
    21   19   20 ar 
    22    1   21 1  
    23    1   22 1  
    24    2   23 1  
    25    2   24 1  
    26    3   25 1  
    27    3   26 1  
    28    4   27 1  
    29    4   28 1  
    30    8   29 1  
    31    8   30 1  
    32    9   31 1  
    33   12   32 1  
    34   13   33 1  
    35   13   34 1  
    36   15   35 1  
    37   16   36 1  
    38   18   37 1  
    39   18   38 1  
    40   19   39 1  
    41   20   40 1  
@<TRIPOS>SUBSTRUCTURE
     1 53Z         1

