### 
### Created by X-TOOL on Mon Sep 10 21:13:16 2018
### 

@<TRIPOS>MOLECULE
4j59_ligand
   56    59     1     0     0
SMALL
GAST_HUCK


@<TRIPOS>ATOM
      1 CAJ         1.9430   16.6910   20.5920 C.ar      1 671        -0.0698
      2 CAH         1.7720   16.2290   21.8930 C.ar      1 671        -0.0509
      3 CAX         0.6950   15.4120   22.2060 C.ar      1 671         0.0284
      4 NAA         0.5400   14.9780   23.4580 N.pl3     1 671        -0.3406
      5 CAI        -0.2150   15.0590   21.2130 C.ar      1 671        -0.0509
      6 CAK        -0.0440   15.5220   19.9100 C.ar      1 671        -0.0698
      7 CAY         1.0410   16.3360   19.5940 C.ar      1 671        -0.0341
      8 CAR         1.2360   16.8190   18.2870 C.3       1 671         0.0590
      9 NAU         1.6590   18.2190   18.3820 N.am      1 671        -0.2637
     10 CAV         2.7940   18.7230   17.8550 C.2       1 671         0.2611
     11 OAB         3.5660   18.0360   17.1840 O.2       1 671        -0.4006
     12 N           3.0040   20.0430   18.0530 N.am      1 671        -0.2545
     13 CA          4.1810   20.7730   17.5540 C.3       1 671         0.1207
     14 C           5.2770   20.7090   18.6220 C.2       1 671         0.2029
     15 O           5.0110   20.3160   19.7550 O.2       1 671        -0.3945
     16 NBD         6.5240   20.9950   18.1920 N.am      1 671        -0.2564
     17 CAS         7.7690   20.8800   18.9380 C.3       1 671         0.0368
     18 CAO         8.8020   21.8290   18.3030 C.3       1 671        -0.0283
     19 CAQ         8.6030   21.0830   17.0460 C.3       1 671        -0.0171
     20 CBC         7.0270   21.3700   16.8400 C.3       1 671         0.0808
     21 CAZ         6.7760   22.7760   16.7040 C.ar      1 671        -0.0071
     22 CBB         6.8650   23.3060   15.3970 C.ar      1 671        -0.0100
     23 CAN         7.1870   22.4840   14.3090 C.ar      1 671        -0.0547
     24 CAE         7.2860   22.9920   13.0110 C.ar      1 671        -0.0625
     25 CAD         7.0670   24.3440   12.7760 C.ar      1 671        -0.0629
     26 CAL         6.7410   25.1670   13.8500 C.ar      1 671        -0.0569
     27 CBA         6.6430   24.6570   15.1450 C.ar      1 671        -0.0242
     28 CAM         6.3160   25.5160   16.1910 C.ar      1 671        -0.0631
     29 CAF         6.2030   25.0180   17.4820 C.ar      1 671        -0.0706
     30 CAG         6.4170   23.6660   17.7260 C.ar      1 671        -0.0585
     31 H1          2.7845   17.3317   20.3543 H         1 671         0.0525
     32 H2          2.4815   16.5078   22.6637 H         1 671         0.0499
     33 H3         -0.2570   14.3712   23.6978 H         1 671         0.1698
     34 H4          1.2174   15.2497   24.1848 H         1 671         0.1698
     35 H5         -1.0586   14.4224   21.4542 H         1 671         0.0499
     36 H6         -0.7569   15.2481   19.1407 H         1 671         0.0525
     37 H7          0.2964   16.7503   17.7192 H         1 671         0.0655
     38 H8          2.0137   16.2272   17.7821 H         1 671         0.0655
     39 H9          1.0599   18.8494   18.8757 H         1 671         0.1869
     40 H10         2.3182   20.5552   18.5700 H         1 671         0.1874
     41 H11         3.9128   21.8218   17.3592 H         1 671         0.0760
     42 H12         4.5404   20.3076   16.6244 H         1 671         0.0760
     43 H13         8.1368   19.8444   18.8906 H         1 671         0.0524
     44 H14         7.6010   21.1618   19.9879 H         1 671         0.0524
     45 H15         9.8148   21.7564   18.7259 H         1 671         0.0287
     46 H16         8.4952   22.8847   18.2652 H         1 671         0.0287
     47 H17         8.8165   20.0103   17.1630 H         1 671         0.0312
     48 H18         9.2088   21.4898   16.2229 H         1 671         0.0312
     49 H19         6.5850   20.7909   16.0158 H         1 671         0.0734
     50 H20         7.3637   21.4280   14.4783 H         1 671         0.0628
     51 H21         7.5335   22.3317   12.1877 H         1 671         0.0601
     52 H22         7.1486   24.7503   11.7743 H         1 671         0.0616
     53 H23         6.5602   26.2218   13.6775 H         1 671         0.0609
     54 H24         6.1503   26.5697   15.9980 H         1 671         0.0542
     55 H25         5.9481   25.6829   18.2993 H         1 671         0.0595
     56 H26         6.3029   23.2891   18.7359 H         1 671         0.0530
@<TRIPOS>BOND
     1    1    2 ar 
     2    1    7 ar 
     3    2    3 ar 
     4    3    4 1  
     5    3    5 ar 
     6    5    6 ar 
     7    6    7 ar 
     8    7    8 1  
     9    8    9 1  
    10    9   10 am 
    11   10   11 2  
    12   10   12 am 
    13   12   13 1  
    14   13   14 1  
    15   14   15 2  
    16   14   16 am 
    17   16   17 1  
    18   16   20 1  
    19   17   18 1  
    20   18   19 1  
    21   19   20 1  
    22   20   21 1  
    23   21   22 ar 
    24   21   30 ar 
    25   22   23 ar 
    26   22   27 ar 
    27   23   24 ar 
    28   24   25 ar 
    29   25   26 ar 
    30   26   27 ar 
    31   27   28 ar 
    32   28   29 ar 
    33   29   30 ar 
    34    1   31 1  
    35    2   32 1  
    36    4   33 1  
    37    4   34 1  
    38    5   35 1  
    39    6   36 1  
    40    8   37 1  
    41    8   38 1  
    42    9   39 1  
    43   12   40 1  
    44   13   41 1  
    45   13   42 1  
    46   17   43 1  
    47   17   44 1  
    48   18   45 1  
    49   18   46 1  
    50   19   47 1  
    51   19   48 1  
    52   20   49 1  
    53   23   50 1  
    54   24   51 1  
    55   25   52 1  
    56   26   53 1  
    57   28   54 1  
    58   29   55 1  
    59   30   56 1  
@<TRIPOS>SUBSTRUCTURE
     1 671         1

