### 
### Created by X-TOOL on Mon Sep 10 21:13:16 2018
### 

@<TRIPOS>MOLECULE
4j5b_ligand
   54    56     1     0     0
SMALL
GAST_HUCK


@<TRIPOS>ATOM
      1 CAA         6.4710   22.5120   12.9680 C.3       1 6B4        -0.0059
      2 SAT         6.8820   21.7390   14.5180 S.3       1 6B4        -0.1098
      3 CAY         6.5810   23.0880   15.6570 C.ar      1 6B4         0.0190
      4 CAG         6.2390   24.3420   15.1580 C.ar      1 6B4        -0.0563
      5 CAE         6.0020   25.4020   16.0170 C.ar      1 6B4        -0.0747
      6 CAF         6.1220   25.1940   17.3790 C.ar      1 6B4        -0.0754
      7 CAH         6.4440   23.9350   17.8770 C.ar      1 6B4        -0.0639
      8 CAZ         6.7290   22.8570   17.0280 C.ar      1 6B4        -0.0053
      9 CBA         7.0690   21.4960   17.3270 C.3       1 6B4         0.0770
     10 CAP         8.5920   21.2870   17.7770 C.3       1 6B4        -0.0189
     11 CAM         8.6040   22.1280   18.9830 C.3       1 6B4        -0.0286
     12 CAQ         7.5150   21.1970   19.5380 C.3       1 6B4         0.0365
     13 N1          6.4080   21.2350   18.6250 N.am      1 6B4        -0.2584
     14 C           5.1490   20.9650   18.9980 C.2       1 6B4         0.2026
     15 O           4.8370   20.6650   20.1480 O.2       1 6B4        -0.3945
     16 CA          4.1140   20.9060   17.8830 C.3       1 6B4         0.1206
     17 N           2.9360   20.1850   18.3780 N.am      1 6B4        -0.2545
     18 CAU         2.7600   18.8720   18.1960 C.2       1 6B4         0.2611
     19 OAC         3.5580   18.1760   17.5620 O.2       1 6B4        -0.4006
     20 N2          1.6400   18.3580   18.7040 N.am      1 6B4        -0.2637
     21 CAO         1.2800   16.9390   18.5990 C.3       1 6B4         0.0590
     22 CAX         1.0590   16.5030   19.8990 C.ar      1 6B4        -0.0341
     23 CAK         2.0180   16.7770   20.8680 C.ar      1 6B4        -0.0698
     24 CAI         1.8230   16.3700   22.1790 C.ar      1 6B4        -0.0509
     25 CAW         0.6630   15.6900   22.5240 C.ar      1 6B4         0.0284
     26 N3          0.4900   15.3080   23.7870 N.pl3     1 6B4        -0.3406
     27 CAJ        -0.3020   15.4120   21.5560 C.ar      1 6B4        -0.0509
     28 CAL        -0.1050   15.8230   20.2410 C.ar      1 6B4        -0.0698
     29 H1          6.6096   21.7898   12.1500 H         1 6B4         0.0364
     30 H2          7.1270   23.3800   12.8058 H         1 6B4         0.0364
     31 H3          5.4225   22.8438   12.9904 H         1 6B4         0.0364
     32 H4          6.1575   24.4899   14.0872 H         1 6B4         0.0545
     33 H5          5.7276   26.3764   15.6292 H         1 6B4         0.0542
     34 H6          5.9639   26.0187   18.0645 H         1 6B4         0.0541
     35 H7          6.4752   23.7842   18.9500 H         1 6B4         0.0538
     36 H8          6.7718   20.8169   16.5143 H         1 6B4         0.0707
     37 H9          9.2986   21.6500   17.0161 H         1 6B4         0.0309
     38 H10         8.8111   20.2342   18.0083 H         1 6B4         0.0309
     39 H11         8.2843   23.1683   18.8234 H         1 6B4         0.0287
     40 H12         9.5502   22.1171   19.5438 H         1 6B4         0.0287
     41 H13         7.1945   21.5443   20.5313 H         1 6B4         0.0524
     42 H14         7.9024   20.1704   19.6158 H         1 6B4         0.0524
     43 H15         4.5342   20.3778   17.0144 H         1 6B4         0.0760
     44 H16         3.8276   21.9264   17.5884 H         1 6B4         0.0760
     45 H17         2.2344   20.6976   18.8729 H         1 6B4         0.1874
     46 H18         1.0117   18.9718   19.1820 H         1 6B4         0.1869
     47 H19         2.1010   16.3694   18.1392 H         1 6B4         0.0655
     48 H20         0.3680   16.8196   17.9956 H         1 6B4         0.0655
     49 H21         2.9217   17.3110   20.5973 H         1 6B4         0.0525
     50 H22         2.5736   16.5820   22.9318 H         1 6B4         0.0499
     51 H23        -0.3650   14.8025   24.0596 H         1 6B4         0.1698
     52 H24         1.2111   15.5178   24.4919 H         1 6B4         0.1698
     53 H25        -1.2044   14.8764   21.8276 H         1 6B4         0.0499
     54 H26        -0.8552   15.6141   19.4869 H         1 6B4         0.0525
@<TRIPOS>BOND
     1    1    2 1  
     2    2    3 1  
     3    3    4 ar 
     4    3    8 ar 
     5    4    5 ar 
     6    5    6 ar 
     7    6    7 ar 
     8    7    8 ar 
     9    8    9 1  
    10    9   10 1  
    11    9   13 1  
    12   10   11 1  
    13   11   12 1  
    14   12   13 1  
    15   13   14 am 
    16   14   15 2  
    17   14   16 1  
    18   16   17 1  
    19   17   18 am 
    20   18   19 2  
    21   18   20 am 
    22   20   21 1  
    23   21   22 1  
    24   22   23 ar 
    25   22   28 ar 
    26   23   24 ar 
    27   24   25 ar 
    28   25   26 1  
    29   25   27 ar 
    30   27   28 ar 
    31    1   29 1  
    32    1   30 1  
    33    1   31 1  
    34    4   32 1  
    35    5   33 1  
    36    6   34 1  
    37    7   35 1  
    38    9   36 1  
    39   10   37 1  
    40   10   38 1  
    41   11   39 1  
    42   11   40 1  
    43   12   41 1  
    44   12   42 1  
    45   16   43 1  
    46   16   44 1  
    47   17   45 1  
    48   20   46 1  
    49   21   47 1  
    50   21   48 1  
    51   23   49 1  
    52   24   50 1  
    53   26   51 1  
    54   26   52 1  
    55   27   53 1  
    56   28   54 1  
@<TRIPOS>SUBSTRUCTURE
     1 6B4         1

