### 
### Created by X-TOOL on Mon Sep 10 21:13:16 2018
### 

@<TRIPOS>MOLECULE
4j5c_ligand
   64    66     1     0     0
SMALL
GAST_HUCK


@<TRIPOS>ATOM
      1 CAB         6.7870   22.6370   12.5220 C.3       1 7I6        -0.0059
      2 SAW         6.8800   21.8190   14.0460 S.3       1 7I6        -0.1098
      3 CBB         6.7320   23.0650   15.2560 C.ar      1 7I6         0.0190
      4 CAH         6.5980   24.3960   14.9170 C.ar      1 7I6        -0.0563
      5 CAF         6.4460   25.3330   15.9070 C.ar      1 7I6        -0.0747
      6 CAG         6.4180   24.9610   17.2240 C.ar      1 7I6        -0.0754
      7 CAI         6.5150   23.6590   17.5460 C.ar      1 7I6        -0.0639
      8 CBC         6.6740   22.6660   16.6030 C.ar      1 7I6        -0.0053
      9 CBE         6.8260   21.2760   16.9850 C.3       1 7I6         0.0770
     10 CAQ         8.3180   20.8700   17.0660 C.3       1 7I6        -0.0189
     11 CAN         8.7640   21.2740   18.4660 C.3       1 7I6        -0.0286
     12 CAS         7.5450   20.8040   19.3140 C.3       1 7I6         0.0365
     13 NBF         6.4040   20.9340   18.4030 N.am      1 7I6        -0.2582
     14 C           5.1730   20.5920   18.8150 C.2       1 7I6         0.2058
     15 O           4.9760   20.2270   19.9560 O.2       1 7I6        -0.3942
     16 CA          4.0330   20.7310   17.8100 C.3       1 7I6         0.1322
     17 CB          3.3920   22.1070   18.0680 C.3       1 7I6        -0.0036
     18 CG          2.0780   22.1070   17.2980 C.3       1 7I6        -0.0024
     19 SD          1.7940   23.6680   16.4880 S.3       1 7I6        -0.1639
     20 CE          1.7010   24.3380   18.0150 C.3       1 7I6        -0.0181
     21 N           3.0300   19.7860   18.1320 N.am      1 7I6        -0.2517
     22 CAX         2.9610   18.6220   17.7910 C.2       1 7I6         0.2613
     23 OAD         3.7410   18.0670   17.0600 O.2       1 7I6        -0.4006
     24 NAT         1.8090   18.2030   18.3740 N.am      1 7I6        -0.2637
     25 CAP         1.1840   16.9860   18.4010 C.3       1 7I6         0.0590
     26 CBA         1.0760   16.4890   19.7570 C.ar      1 7I6        -0.0341
     27 CAL         2.0920   16.6710   20.6850 C.ar      1 7I6        -0.0698
     28 CAJ         1.9740   16.1380   21.9300 C.ar      1 7I6        -0.0509
     29 CAZ         0.8610   15.4610   22.3380 C.ar      1 7I6         0.0284
     30 NAC         0.7650   14.9630   23.5920 N.pl3     1 7I6        -0.3406
     31 CAK        -0.1650   15.2560   21.4000 C.ar      1 7I6        -0.0509
     32 CAM        -0.0120   15.7500   20.1300 C.ar      1 7I6        -0.0698
     33 H1          6.8743   21.9040   11.7065 H         1 7I6         0.0364
     34 H2          7.6059   23.3676   12.4474 H         1 7I6         0.0364
     35 H3          5.8218   23.1588   12.4442 H         1 7I6         0.0364
     36 H4          6.6128   24.6986   13.8762 H         1 7I6         0.0545
     37 H5          6.3469   26.3798   15.6435 H         1 7I6         0.0542
     38 H6          6.3184   25.7100   18.0012 H         1 7I6         0.0541
     39 H7          6.4661   23.3782   18.5919 H         1 7I6         0.0538
     40 H8          6.2788   20.6572   16.2586 H         1 7I6         0.0707
     41 H9          8.9054   21.4039   16.3045 H         1 7I6         0.0309
     42 H10         8.4314   19.7853   16.9226 H         1 7I6         0.0309
     43 H11         8.9151   22.3608   18.5439 H         1 7I6         0.0287
     44 H12         9.6866   20.7533   18.7620 H         1 7I6         0.0287
     45 H13         7.4138   21.4453   20.1980 H         1 7I6         0.0524
     46 H14         7.6717   19.7594   19.6344 H         1 7I6         0.0524
     47 H15         4.3864   20.6198   16.7743 H         1 7I6         0.0797
     48 H16         4.0493   22.9098   17.7027 H         1 7I6         0.0320
     49 H17         3.2053   22.2465   19.1430 H         1 7I6         0.0320
     50 H18         1.2530   21.9133   17.9993 H         1 7I6         0.0378
     51 H19         2.1087   21.3113   16.5392 H         1 7I6         0.0378
     52 H20         1.5118   25.4183   17.9305 H         1 7I6         0.0340
     53 H21         2.6497   24.1724   18.5465 H         1 7I6         0.0340
     54 H22         0.8802   23.8647   18.5738 H         1 7I6         0.0340
     55 H23         2.2859   20.1174   18.7121 H         1 7I6         0.1877
     56 H24         1.3261   18.9185   18.8789 H         1 7I6         0.1869
     57 H25         1.7643   16.2700   17.8005 H         1 7I6         0.0655
     58 H26         0.1754   17.0898   17.9744 H         1 7I6         0.0655
     59 H27         2.9772   17.2367   20.4177 H         1 7I6         0.0525
     60 H28         2.7964   16.2552   22.6264 H         1 7I6         0.0499
     61 H29        -0.0832   14.4550   23.8809 H         1 7I6         0.1698
     62 H30         1.5401   15.0918   24.2580 H         1 7I6         0.1698
     63 H31        -1.0634   14.7158   21.6760 H         1 7I6         0.0499
     64 H32        -0.7822   15.5471   19.3947 H         1 7I6         0.0525
@<TRIPOS>BOND
     1    1    2 1  
     2    2    3 1  
     3    3    4 ar 
     4    3    8 ar 
     5    4    5 ar 
     6    5    6 ar 
     7    6    7 ar 
     8    7    8 ar 
     9    8    9 1  
    10    9   10 1  
    11    9   13 1  
    12   10   11 1  
    13   11   12 1  
    14   12   13 1  
    15   13   14 am 
    16   14   15 2  
    17   14   16 1  
    18   16   17 1  
    19   16   21 1  
    20   17   18 1  
    21   18   19 1  
    22   19   20 1  
    23   21   22 am 
    24   22   23 2  
    25   22   24 am 
    26   24   25 1  
    27   25   26 1  
    28   26   27 ar 
    29   26   32 ar 
    30   27   28 ar 
    31   28   29 ar 
    32   29   30 1  
    33   29   31 ar 
    34   31   32 ar 
    35    1   33 1  
    36    1   34 1  
    37    1   35 1  
    38    4   36 1  
    39    5   37 1  
    40    6   38 1  
    41    7   39 1  
    42    9   40 1  
    43   10   41 1  
    44   10   42 1  
    45   11   43 1  
    46   11   44 1  
    47   12   45 1  
    48   12   46 1  
    49   16   47 1  
    50   17   48 1  
    51   17   49 1  
    52   18   50 1  
    53   18   51 1  
    54   20   52 1  
    55   20   53 1  
    56   20   54 1  
    57   21   55 1  
    58   24   56 1  
    59   25   57 1  
    60   25   58 1  
    61   27   59 1  
    62   28   60 1  
    63   30   61 1  
    64   30   62 1  
    65   31   63 1  
    66   32   64 1  
@<TRIPOS>SUBSTRUCTURE
     1 7I6         1

