### 
### Created by X-TOOL on Mon Sep 10 21:13:16 2018
### 

@<TRIPOS>MOLECULE
4j5d_ligand
   50    52     1     0     0
SMALL
GAST_HUCK


@<TRIPOS>ATOM
      1 CAA         1.7840   16.5360   20.7500 C.ar      1 728        -0.0698
      2 CAB         1.5920   16.0660   22.0540 C.ar      1 728        -0.0509
      3 CAC         0.5070   15.2420   22.3560 C.ar      1 728         0.0284
      4 NAG         0.3190   14.7900   23.6030 N.pl3     1 728        -0.3406
      5 CAD        -0.3760   14.8870   21.3380 C.ar      1 728        -0.0509
      6 CAE        -0.1810   15.3540   20.0380 C.ar      1 728        -0.0698
      7 CAF         0.8970   16.1780   19.7280 C.ar      1 728        -0.0341
      8 CAH         1.0830   16.6820   18.2770 C.3       1 728         0.0590
      9 NAI         1.4320   18.1010   18.3730 N.am      1 728        -0.2637
     10 CAJ         2.5580   18.6070   17.8790 C.2       1 728         0.2611
     11 OAL         3.3450   17.9590   17.1850 O.2       1 728        -0.4006
     12 N           2.7190   19.9040   18.0490 N.am      1 728        -0.2545
     13 CA          3.9250   20.5390   17.5380 C.3       1 728         0.1207
     14 C           4.9860   20.5230   18.6530 C.2       1 728         0.2029
     15 O           4.7490   20.0870   19.7850 O.2       1 728        -0.3945
     16 NAP         6.2150   20.8190   18.2850 N.am      1 728        -0.2567
     17 CAQ         7.4100   20.6810   19.0830 C.3       1 728         0.0368
     18 CAR         8.3620   21.7430   18.5360 C.3       1 728        -0.0283
     19 CAS         8.2000   21.0060   17.1840 C.3       1 728        -0.0173
     20 CAT         6.6280   21.1510   16.9290 C.3       1 728         0.0798
     21 CAU         6.3550   22.6840   16.8320 C.ar      1 728        -0.0081
     22 CAX         5.9710   23.5720   17.8530 C.ar      1 728        -0.0553
     23 CAW         5.6920   24.9060   17.5630 C.ar      1 728        -0.0657
     24 CAV         5.7000   25.3730   16.2570 C.ar      1 728        -0.0659
     25 CAY         6.0090   24.5020   15.2250 C.ar      1 728        -0.0589
     26 CAZ         6.3070   23.1690   15.5050 C.ar      1 728         0.0160
     27 BR          6.7050   22.0650   13.9970 Br        1 728        -0.0563
     28 H1          2.6260   17.1822   20.5296 H         1 728         0.0525
     29 H2          2.2908   16.3438   22.8348 H         1 728         0.0499
     30 H3         -0.4852   14.1823   23.8148 H         1 728         0.1698
     31 H4          0.9787   15.0501   24.3500 H         1 728         0.1698
     32 H5         -1.2202   14.2435   21.5578 H         1 728         0.0499
     33 H6         -0.8789   15.0711   19.2583 H         1 728         0.0525
     34 H7          0.1495   16.5576   17.7086 H         1 728         0.0655
     35 H8          1.8913   16.1243   17.7813 H         1 728         0.0655
     36 H9          0.7932   18.7187   18.8318 H         1 728         0.1869
     37 H10         2.0228   20.4439   18.5221 H         1 728         0.1874
     38 H11         3.7051   21.5771   17.2481 H         1 728         0.0760
     39 H12         4.2957   19.9847   16.6632 H         1 728         0.0760
     40 H13         7.8411   19.6757   18.9664 H         1 728         0.0524
     41 H14         7.1914   20.8653   20.1452 H         1 728         0.0524
     42 H15         9.3768   21.7240   18.9600 H         1 728         0.0287
     43 H16         7.9752   22.7726   18.5564 H         1 728         0.0287
     44 H17         8.4986   19.9503   17.2634 H         1 728         0.0311
     45 H18         8.7828   21.4931   16.3883 H         1 728         0.0311
     46 H19         6.2032   20.5478   16.1131 H         1 728         0.0730
     47 H20         5.8915   23.2157   18.8737 H         1 728         0.0565
     48 H21         5.4648   25.5907   18.3721 H         1 728         0.0623
     49 H22         5.4665   26.4103   16.0457 H         1 728         0.0566
     50 H23         6.0191   24.8565   14.2006 H         1 728         0.0626
@<TRIPOS>BOND
     1    1    2 ar 
     2    1    7 ar 
     3    2    3 ar 
     4    3    4 1  
     5    3    5 ar 
     6    5    6 ar 
     7    6    7 ar 
     8    7    8 1  
     9    8    9 1  
    10    9   10 am 
    11   10   11 2  
    12   10   12 am 
    13   12   13 1  
    14   13   14 1  
    15   14   15 2  
    16   14   16 am 
    17   16   17 1  
    18   16   20 1  
    19   17   18 1  
    20   18   19 1  
    21   19   20 1  
    22   20   21 1  
    23   21   22 ar 
    24   21   26 ar 
    25   22   23 ar 
    26   23   24 ar 
    27   24   25 ar 
    28   25   26 ar 
    29   26   27 1  
    30    1   28 1  
    31    2   29 1  
    32    4   30 1  
    33    4   31 1  
    34    5   32 1  
    35    6   33 1  
    36    8   34 1  
    37    8   35 1  
    38    9   36 1  
    39   12   37 1  
    40   13   38 1  
    41   13   39 1  
    42   17   40 1  
    43   17   41 1  
    44   18   42 1  
    45   18   43 1  
    46   19   44 1  
    47   19   45 1  
    48   20   46 1  
    49   22   47 1  
    50   23   48 1  
    51   24   49 1  
    52   25   50 1  
@<TRIPOS>SUBSTRUCTURE
     1 728         1

