### 
### Created by X-TOOL on Mon Sep 10 21:13:16 2018
### 

@<TRIPOS>MOLECULE
4j5e_ligand
   54    56     1     0     0
SMALL
GAST_HUCK


@<TRIPOS>ATOM
      1 CAA         6.7160   22.3060   13.1620 C.3       1 7B7         0.0578
      2 OAT         6.8480   22.0140   14.5970 O.3       1 7B7        -0.3249
      3 CAY         6.5810   23.0120   15.5140 C.ar      1 7B7         0.0946
      4 CAG         6.3240   24.3190   15.1080 C.ar      1 7B7        -0.0396
      5 CAE         6.0370   25.2680   16.0890 C.ar      1 7B7        -0.0776
      6 CAF         6.0080   24.9430   17.4400 C.ar      1 7B7        -0.0796
      7 CAH         6.2680   23.6160   17.8060 C.ar      1 7B7        -0.0666
      8 CAZ         6.5770   22.6350   16.8340 C.ar      1 7B7         0.0116
      9 CBA         6.9010   21.2450   17.1330 C.3       1 7B7         0.0768
     10 CAP         8.4510   20.9570   17.2640 C.3       1 7B7        -0.0195
     11 CAM         8.7130   21.3680   18.6830 C.3       1 7B7        -0.0287
     12 CAQ         7.5830   20.7080   19.4630 C.3       1 7B7         0.0364
     13 NBB         6.4450   20.8650   18.5440 N.am      1 7B7        -0.2591
     14 C           5.1860   20.5270   18.8910 C.2       1 7B7         0.2026
     15 O           4.9460   20.0900   20.0420 O.2       1 7B7        -0.3945
     16 CA          4.1260   20.6440   17.8010 C.3       1 7B7         0.1206
     17 N           2.8860   20.0170   18.2140 N.am      1 7B7        -0.2545
     18 CAU         2.7300   18.7050   18.0010 C.2       1 7B7         0.2611
     19 OAC         3.5180   18.0210   17.3580 O.2       1 7B7        -0.4006
     20 NAS         1.5800   18.1870   18.4900 N.am      1 7B7        -0.2637
     21 CAO         1.1930   16.8100   18.4930 C.3       1 7B7         0.0590
     22 CAX         0.9760   16.3540   19.8680 C.ar      1 7B7        -0.0341
     23 CAK        -0.0790   15.5430   20.1920 C.ar      1 7B7        -0.0698
     24 CAI        -0.2840   15.1080   21.5000 C.ar      1 7B7        -0.0509
     25 CAW         0.6420   15.4040   22.5370 C.ar      1 7B7         0.0284
     26 NAB         0.4840   14.8990   23.7970 N.pl3     1 7B7        -0.3406
     27 CAJ         1.7820   16.1480   22.2130 C.ar      1 7B7        -0.0509
     28 CAL         1.9190   16.6130   20.8990 C.ar      1 7B7        -0.0698
     29 H1          6.9645   21.4060   12.5803 H         1 7B7         0.0574
     30 H2          7.4031   23.1204   12.8888 H         1 7B7         0.0574
     31 H3          5.6817   22.6099   12.9432 H         1 7B7         0.0574
     32 H4          6.3464   24.5912   14.0590 H         1 7B7         0.0521
     33 H5          5.8305   26.2890   15.7889 H         1 7B7         0.0531
     34 H6          5.7903   25.6953   18.1895 H         1 7B7         0.0505
     35 H7          6.2318   23.3356   18.8525 H         1 7B7         0.0526
     36 H8          6.4420   20.5999   16.3693 H         1 7B7         0.0698
     37 H9          9.0338   21.5642   16.5558 H         1 7B7         0.0308
     38 H10         8.6766   19.8920   17.1060 H         1 7B7         0.0308
     39 H11         8.6754   22.4623   18.7880 H         1 7B7         0.0287
     40 H12         9.6921   21.0003   19.0238 H         1 7B7         0.0287
     41 H13         7.4007   21.2247   20.4168 H         1 7B7         0.0524
     42 H14         7.7973   19.6465   19.6561 H         1 7B7         0.0524
     43 H15         4.4921   20.1508   16.8885 H         1 7B7         0.0760
     44 H16         3.9394   21.7079   17.5931 H         1 7B7         0.0760
     45 H17         2.1626   20.5534   18.6488 H         1 7B7         0.1874
     46 H18         0.9325   18.8347   18.8915 H         1 7B7         0.1869
     47 H19         1.9882   16.2070   18.0304 H         1 7B7         0.0655
     48 H20         0.2622   16.6919   17.9188 H         1 7B7         0.0655
     49 H21        -0.7686   15.2331   19.4152 H         1 7B7         0.0525
     50 H22        -1.1711   14.5299   21.7322 H         1 7B7         0.0499
     51 H23         1.1678   15.1271   24.5327 H         1 7B7         0.1698
     52 H24        -0.3189   14.2903   24.0109 H         1 7B7         0.1698
     53 H25         2.5392   16.3589   22.9594 H         1 7B7         0.0499
     54 H26         2.7942   17.2041   20.6546 H         1 7B7         0.0525
@<TRIPOS>BOND
     1    1    2 1  
     2    2    3 1  
     3    3    4 ar 
     4    3    8 ar 
     5    4    5 ar 
     6    5    6 ar 
     7    6    7 ar 
     8    7    8 ar 
     9    8    9 1  
    10    9   10 1  
    11    9   13 1  
    12   10   11 1  
    13   11   12 1  
    14   12   13 1  
    15   13   14 am 
    16   14   15 2  
    17   14   16 1  
    18   16   17 1  
    19   17   18 am 
    20   18   19 2  
    21   18   20 am 
    22   20   21 1  
    23   21   22 1  
    24   22   23 ar 
    25   22   28 ar 
    26   23   24 ar 
    27   24   25 ar 
    28   25   26 1  
    29   25   27 ar 
    30   27   28 ar 
    31    1   29 1  
    32    1   30 1  
    33    1   31 1  
    34    4   32 1  
    35    5   33 1  
    36    6   34 1  
    37    7   35 1  
    38    9   36 1  
    39   10   37 1  
    40   10   38 1  
    41   11   39 1  
    42   11   40 1  
    43   12   41 1  
    44   12   42 1  
    45   16   43 1  
    46   16   44 1  
    47   17   45 1  
    48   20   46 1  
    49   21   47 1  
    50   21   48 1  
    51   23   49 1  
    52   24   50 1  
    53   26   51 1  
    54   26   52 1  
    55   27   53 1  
    56   28   54 1  
@<TRIPOS>SUBSTRUCTURE
     1 7B7         1

