### 
### Created by X-TOOL on Mon Sep 10 21:13:15 2018
### 

@<TRIPOS>MOLECULE
4j5p_ligand
   52    54     1     0     0
SMALL
GAST_HUCK


@<TRIPOS>ATOM
      1 C18        50.8450  -14.4360  -35.3000 C.ar      1 BR1        -0.0358
      2 C19        50.3670  -13.1140  -35.3780 C.ar      1 BR1        -0.0443
      3 C20        51.1890  -12.1180  -34.8390 C.ar      1 BR1        -0.0221
      4 C21        50.8780  -10.6710  -34.9210 C.3       1 BR1        -0.0265
      5 C22        52.4290  -12.4410  -34.2130 C.ar      1 BR1         0.0061
      6 N2         52.8790  -13.7010  -34.1430 N.ar      1 BR1        -0.3040
      7 C17        52.0800  -14.6840  -34.6580 C.ar      1 BR1         0.0695
      8 C16        52.5930  -16.0140  -34.5780 C.2       1 BR1         0.1487
      9 O2         51.9340  -17.0900  -35.0280 O.3       1 BR1        -0.2204
     10 C15        53.8500  -16.3450  -34.1270 C.2       1 BR1         0.0002
     11 N1         53.9510  -17.7100  -34.2650 N.2       1 BR1        -0.3057
     12 C14        52.8050  -18.1340  -34.8070 C.2       1 BR1         0.2114
     13 C1         52.4560  -19.5640  -35.1400 C.3       1 BR1         0.1454
     14 O1         52.7370  -20.4150  -34.0260 O.3       1 BR1        -0.3696
     15 C2         50.9280  -19.5740  -35.5090 C.3       1 BR1        -0.0082
     16 C3         50.4190  -21.0080  -35.8660 C.3       1 BR1        -0.0481
     17 C4         48.9230  -20.8690  -36.2230 C.3       1 BR1        -0.0526
     18 C5         48.0940  -20.8860  -34.9470 C.3       1 BR1        -0.0513
     19 C6         46.6450  -20.9880  -35.4310 C.3       1 BR1        -0.0433
     20 C7         45.8550  -21.3790  -34.1740 C.3       1 BR1        -0.0192
     21 C8         44.4500  -21.0940  -34.2200 C.ar      1 BR1        -0.0430
     22 C9         43.7170  -20.7470  -35.3680 C.ar      1 BR1        -0.0603
     23 C10        42.3510  -20.4460  -35.2720 C.ar      1 BR1        -0.0686
     24 C11        41.6820  -20.4760  -34.0450 C.ar      1 BR1        -0.0687
     25 C12        42.3980  -20.8290  -32.9000 C.ar      1 BR1        -0.0686
     26 C13        43.7570  -21.1450  -32.9950 C.ar      1 BR1        -0.0603
     27 H1         50.2738  -15.2527  -35.7264 H         1 BR1         0.0667
     28 H2         49.4111  -12.8797  -35.8323 H         1 BR1         0.0665
     29 H3         51.6740  -10.0962  -34.4251 H         1 BR1         0.0401
     30 H4         49.9178  -10.4734  -34.4220 H         1 BR1         0.0401
     31 H5         50.8114  -10.3695  -35.9768 H         1 BR1         0.0401
     32 H6         53.0243  -11.6444  -33.7816 H         1 BR1         0.0755
     33 H7         54.6087  -15.6662  -33.7404 H         1 BR1         0.0554
     34 H8         53.0468  -19.9025  -36.0039 H         1 BR1         0.0867
     35 H9         53.6614  -20.3620  -33.8137 H         1 BR1         0.2142
     36 H10        50.7679  -18.9150  -36.3750 H         1 BR1         0.0321
     37 H11        50.3532  -19.1972  -34.6502 H         1 BR1         0.0321
     38 H12        50.5426  -21.6801  -35.0041 H         1 BR1         0.0268
     39 H13        50.9787  -21.4065  -36.7250 H         1 BR1         0.0268
     40 H14        48.6204  -21.7070  -36.8681 H         1 BR1         0.0265
     41 H15        48.7593  -19.9197  -36.7541 H         1 BR1         0.0265
     42 H16        48.2473  -19.9611  -34.3717 H         1 BR1         0.0267
     43 H17        48.3575  -21.7534  -34.3239 H         1 BR1         0.0267
     44 H18        46.5469  -21.7593  -36.2091 H         1 BR1         0.0287
     45 H19        46.2967  -20.0223  -35.8260 H         1 BR1         0.0287
     46 H20        46.2843  -20.8349  -33.3198 H         1 BR1         0.0426
     47 H21        45.9773  -22.4611  -34.0185 H         1 BR1         0.0426
     48 H22        44.2104  -20.7119  -36.3326 H         1 BR1         0.0557
     49 H23        41.8016  -20.1843  -36.1690 H         1 BR1         0.0599
     50 H24        40.6280  -20.2300  -33.9839 H         1 BR1         0.0559
     51 H25        41.9007  -20.8582  -31.9372 H         1 BR1         0.0599
     52 H26        44.2928  -21.4378  -32.0993 H         1 BR1         0.0557
@<TRIPOS>BOND
     1    1    2 ar 
     2    1    7 ar 
     3    2    3 ar 
     4    3    4 1  
     5    3    5 ar 
     6    5    6 ar 
     7    6    7 ar 
     8    7    8 1  
     9    8    9 1  
    10    8   10 2  
    11    9   12 1  
    12   10   11 1  
    13   11   12 2  
    14   12   13 1  
    15   13   14 1  
    16   13   15 1  
    17   15   16 1  
    18   16   17 1  
    19   17   18 1  
    20   18   19 1  
    21   19   20 1  
    22   20   21 1  
    23   21   22 ar 
    24   21   26 ar 
    25   22   23 ar 
    26   23   24 ar 
    27   24   25 ar 
    28   25   26 ar 
    29    1   27 1  
    30    2   28 1  
    31    4   29 1  
    32    4   30 1  
    33    4   31 1  
    34    5   32 1  
    35   10   33 1  
    36   13   34 1  
    37   14   35 1  
    38   15   36 1  
    39   15   37 1  
    40   16   38 1  
    41   16   39 1  
    42   17   40 1  
    43   17   41 1  
    44   18   42 1  
    45   18   43 1  
    46   19   44 1  
    47   19   45 1  
    48   20   46 1  
    49   20   47 1  
    50   22   48 1  
    51   23   49 1  
    52   24   50 1  
    53   25   51 1  
    54   26   52 1  
@<TRIPOS>SUBSTRUCTURE
     1 BR1         1

