### 
### Created by X-TOOL on Mon Sep 10 21:13:15 2018
### 

@<TRIPOS>MOLECULE
4j6i_ligand
   55    59     1     0     0
SMALL
GAST_HUCK


@<TRIPOS>ATOM
      1 C1         10.7940   62.2860   21.5360 C.3       1 1JV        -0.0335
      2 C2         11.6320   61.9160   22.7690 C.3       1 1JV         0.0901
      3 C3         12.4070   60.6420   22.4410 C.3       1 1JV        -0.0335
      4 O4         10.7410   61.5500   23.8230 O.3       1 1JV        -0.3862
      5 C5         12.4990   63.1070   23.2660 C.3       1 1JV         0.1002
      6 N6         13.8730   63.2870   22.7440 N.pl3     1 1JV        -0.2006
      7 C7         14.9430   62.5260   23.0630 C.2       1 1JV         0.0627
      8 C8         16.0320   62.9840   22.3920 C.2       1 1JV        -0.0044
      9 C9         15.6090   64.1250   21.6650 C.2       1 1JV         0.0052
     10 N10        14.3250   64.3010   21.8800 N.2       1 1JV        -0.2136
     11 C11        17.3950   62.3750   22.5060 C.ar      1 1JV        -0.0486
     12 C12        18.5210   62.9350   21.8980 C.ar      1 1JV        -0.0773
     13 C13        19.7640   62.3430   22.0460 C.ar      1 1JV        -0.0730
     14 C14        19.9430   61.1820   22.7930 C.ar      1 1JV         0.0021
     15 C15        18.8140   60.6300   23.4110 C.ar      1 1JV         0.0899
     16 O16        18.9560   59.5250   24.1560 O.3       1 1JV        -0.3175
     17 C17        19.7380   59.6980   25.3100 C.3       1 1JV         0.0833
     18 C18        21.0670   59.0320   25.0090 C.3       1 1JV         0.0292
     19 C19        21.8080   59.7540   23.9350 C.2       1 1JV         0.0533
     20 C20        21.3490   60.6300   22.9590 C.2       1 1JV         0.0351
     21 N21        22.3610   61.0520   22.2140 N.2       1 1JV        -0.3031
     22 C22        23.5530   60.5950   22.4160 C.2       1 1JV         0.1621
     23 S23        23.5230   59.4780   23.7250 S.3       1 1JV         0.0154
     24 C24        24.7730   60.9140   21.6820 C.2       1 1JV         0.1979
     25 N25        25.9350   60.3000   21.8230 N.2       1 1JV        -0.2799
     26 C26        26.8150   60.8450   20.9850 C.2       1 1JV         0.0652
     27 N27        26.2460   61.8170   20.3310 N.2       1 1JV        -0.1872
     28 N28        24.9140   61.8900   20.7580 N.pl3     1 1JV        -0.1635
     29 C29        23.8950   62.8370   20.3120 C.3       1 1JV         0.1689
     30 C30        23.5740   62.5790   18.8540 C.3       1 1JV         0.4188
     31 F31        22.8940   61.3490   18.7360 F         1 1JV        -0.1676
     32 F32        22.7900   63.6600   18.4360 F         1 1JV        -0.1676
     33 F33        24.7740   62.5680   18.1290 F         1 1JV        -0.1676
     34 C34        17.5660   61.2200   23.2700 C.ar      1 1JV        -0.0378
     35 H1         11.4626   62.5717   20.7106 H         1 1JV         0.0258
     36 H2         10.1332   63.1304   21.7816 H         1 1JV         0.0258
     37 H3         10.1861   61.4209   21.2327 H         1 1JV         0.0258
     38 H4         13.0184   60.3513   23.3080 H         1 1JV         0.0258
     39 H5         13.0611   60.8233   21.5754 H         1 1JV         0.0258
     40 H6         11.6999   59.8336   22.2034 H         1 1JV         0.0258
     41 H7         10.2243   62.3059   24.0762 H         1 1JV         0.2103
     42 H8         12.5843   63.0047   24.3579 H         1 1JV         0.0672
     43 H9         11.9445   64.0262   23.0260 H         1 1JV         0.0672
     44 H10        14.9339   61.6801   23.7488 H         1 1JV         0.1028
     45 H11        16.2410   64.7495   21.0353 H         1 1JV         0.0672
     46 H12        18.4212   63.8382   21.3069 H         1 1JV         0.0477
     47 H13        20.6233   62.7971   21.5659 H         1 1JV         0.0533
     48 H14        19.2563   59.2190   26.1751 H         1 1JV         0.0644
     49 H15        19.8838   60.7683   25.5176 H         1 1JV         0.0644
     50 H16        20.8830   57.9976   24.6832 H         1 1JV         0.0512
     51 H17        21.6788   59.0252   25.9231 H         1 1JV         0.0512
     52 H18        27.8497   60.5272   20.8652 H         1 1JV         0.0883
     53 H19        24.2716   63.8639   20.4289 H         1 1JV         0.0727
     54 H20        22.9850   62.7091   20.9166 H         1 1JV         0.0727
     55 H21        16.7085   60.7756   23.7622 H         1 1JV         0.0479
@<TRIPOS>BOND
     1    1    2 1  
     2    2    3 1  
     3    2    4 1  
     4    2    5 1  
     5    5    6 1  
     6    6    7 1  
     7    6   10 1  
     8    7    8 2  
     9    8    9 1  
    10    8   11 1  
    11    9   10 2  
    12   11   12 ar 
    13   11   34 ar 
    14   12   13 ar 
    15   13   14 ar 
    16   14   15 ar 
    17   14   20 1  
    18   15   16 1  
    19   15   34 ar 
    20   16   17 1  
    21   17   18 1  
    22   18   19 1  
    23   19   20 2  
    24   19   23 1  
    25   20   21 1  
    26   21   22 2  
    27   22   23 1  
    28   22   24 1  
    29   24   25 2  
    30   24   28 1  
    31   25   26 1  
    32   26   27 2  
    33   27   28 1  
    34   28   29 1  
    35   29   30 1  
    36   30   31 1  
    37   30   32 1  
    38   30   33 1  
    39    1   35 1  
    40    1   36 1  
    41    1   37 1  
    42    3   38 1  
    43    3   39 1  
    44    3   40 1  
    45    4   41 1  
    46    5   42 1  
    47    5   43 1  
    48    7   44 1  
    49    9   45 1  
    50   12   46 1  
    51   13   47 1  
    52   17   48 1  
    53   17   49 1  
    54   18   50 1  
    55   18   51 1  
    56   26   52 1  
    57   29   53 1  
    58   29   54 1  
    59   34   55 1  
@<TRIPOS>SUBSTRUCTURE
     1 1JV         1

