### 
### Created by X-TOOL on Mon Sep 10 21:13:13 2018
### 

@<TRIPOS>MOLECULE
4j70_ligand
   86    88     1     0     0
SMALL
GAST_HUCK


@<TRIPOS>ATOM
      1 C16        17.8480 -146.5350   12.4500 C.2       1 1KR         0.3239
      2 O17        17.1210 -147.3660   12.9860 O.2       1 1KR        -0.3773
      3 O24        18.2000 -146.6020   11.1220 O.3       1 1KR        -0.2506
      4 C41        19.4880 -146.0480   10.7410 C.3       1 1KR         0.1113
      5 C18        19.9160 -146.6370    9.4100 C.ar      1 1KR        -0.0130
      6 C19        19.7910 -145.8600    8.2530 C.ar      1 1KR        -0.0578
      7 C20        20.2650 -146.3910    7.0530 C.ar      1 1KR        -0.0685
      8 C21        20.8470 -147.6780    7.0260 C.ar      1 1KR        -0.0687
      9 C22        20.9790 -148.4460    8.1880 C.ar      1 1KR        -0.0685
     10 C23        20.5010 -147.9080    9.3840 C.ar      1 1KR        -0.0578
     11 N15        18.3430 -145.4720   13.1660 N.am      1 1KR        -0.2414
     12 C13        17.5760 -144.2200   13.3680 C.3       1 1KR         0.1299
     13 C11        18.1000 -143.0410   12.4730 C.2       1 1KR         0.2016
     14 O12        18.6120 -143.3220   11.3950 O.2       1 1KR        -0.3946
     15 C14        17.4240 -144.0060   14.9130 C.3       1 1KR        -0.0244
     16 N29        12.6670 -141.1110   12.8060 N.am      1 1KR        -0.2815
     17 C28        13.7610 -141.9010   13.3150 C.3       1 1KR         0.0454
     18 C27        14.4500 -142.8330   12.3040 C.3       1 1KR        -0.0246
     19 C26        15.2340 -141.6470   12.9270 C.3       1 1KR        -0.0138
     20 C25        15.7590 -140.5720   11.9160 C.3       1 1KR        -0.0247
     21 C9         17.3170 -140.7350   11.7490 C.3       1 1KR         0.0442
     22 C8         18.0500 -139.3800   11.8030 C.3       1 1KR        -0.0201
     23 C7         18.2830 -138.5330   10.5480 C.3       1 1KR        -0.0171
     24 C6         19.4010 -137.4480   10.6360 C.ar      1 1KR        -0.0429
     25 C1         19.6660 -136.6740   11.7840 C.ar      1 1KR        -0.0603
     26 C2         20.8570 -135.9310   11.9300 C.ar      1 1KR        -0.0686
     27 C3         21.8390 -135.8730   10.9190 C.ar      1 1KR        -0.0687
     28 C4         21.6160 -136.5820    9.7230 C.ar      1 1KR        -0.0686
     29 C5         20.4170 -137.3460    9.5420 C.ar      1 1KR        -0.0603
     30 N10        17.8910 -141.7080   12.7350 N.am      1 1KR        -0.2819
     31 O40        13.4900 -137.8060   11.5530 O.3       1 1KR        -0.3945
     32 C39        12.3380 -138.4430   11.7090 C.3       1 1KR         0.0517
     33 C34        11.4760 -138.3210   12.9820 C.3       1 1KR         0.0281
     34 C35        10.3960 -137.2070   12.8050 C.3       1 1KR        -0.0347
     35 C37        10.9440 -135.8290   12.2980 C.3       1 1KR        -0.0528
     36 C38        12.1920 -135.3040   13.0660 C.3       1 1KR        -0.0650
     37 C36         9.5610 -136.9480   14.0870 C.3       1 1KR        -0.0619
     38 C32        10.8150 -139.6600   13.4010 C.3       1 1KR         0.1487
     39 O33        10.0800 -140.2840   12.3380 O.3       1 1KR        -0.3710
     40 C30        11.8920 -140.6050   13.7840 C.2       1 1KR         0.2055
     41 O31        12.0560 -140.8180   14.9690 O.2       1 1KR        -0.3942
     42 H1         20.2356 -146.2953   11.5091 H         1 1KR         0.0776
     43 H2         19.4047 -144.9551   10.6488 H         1 1KR         0.0776
     44 H3         19.3395 -144.8751    8.2880 H         1 1KR         0.0557
     45 H4         20.1865 -145.8142    6.1385 H         1 1KR         0.0599
     46 H5         21.1995 -148.0799    6.0830 H         1 1KR         0.0559
     47 H6         21.4379 -149.4277    8.1604 H         1 1KR         0.0599
     48 H7         20.5837 -148.4800   10.3011 H         1 1KR         0.0557
     49 H8         19.2563 -145.5459   13.5664 H         1 1KR         0.1899
     50 H9         16.5572 -144.4103   12.9994 H         1 1KR         0.0796
     51 H10        16.8575 -143.0821   15.1012 H         1 1KR         0.0277
     52 H11        18.4205 -143.9249   15.3718 H         1 1KR         0.0277
     53 H12        16.8873 -144.8607   15.3505 H         1 1KR         0.0277
     54 H13        12.5019 -140.9558   11.8320 H         1 1KR         0.1855
     55 H14        13.5293 -142.2396   14.3356 H         1 1KR         0.0559
     56 H15        14.1604 -142.8042   11.2432 H         1 1KR         0.0291
     57 H16        14.6979 -143.8662   12.5886 H         1 1KR         0.0291
     58 H17        16.0030 -141.8134   13.6957 H         1 1KR         0.0324
     59 H18        15.5334 -139.5658   12.2988 H         1 1KR         0.0291
     60 H19        15.2679 -140.7124   10.9418 H         1 1KR         0.0291
     61 H20        17.4887 -141.1540   10.7465 H         1 1KR         0.0557
     62 H21        19.0448 -139.5846   12.2255 H         1 1KR         0.0309
     63 H22        17.4788 -138.7483   12.4991 H         1 1KR         0.0309
     64 H23        17.3388 -138.0210   10.3107 H         1 1KR         0.0427
     65 H24        18.5455 -139.2170    9.7275 H         1 1KR         0.0427
     66 H25        18.9311 -136.6487   12.5805 H         1 1KR         0.0557
     67 H26        21.0231 -135.3855   12.8519 H         1 1KR         0.0599
     68 H27        22.7454 -135.2953   11.0597 H         1 1KR         0.0559
     69 H28        22.3573 -136.5497    8.9327 H         1 1KR         0.0599
     70 H29        20.2440 -137.8561    8.6013 H         1 1KR         0.0557
     71 H30        18.1376 -141.3650   13.6414 H         1 1KR         0.1855
     72 H31        13.8555 -138.0187   10.7023 H         1 1KR         0.2094
     73 H32        12.5664 -139.5134   11.5993 H         1 1KR         0.0562
     74 H33        11.6967 -138.1176   10.8766 H         1 1KR         0.0562
     75 H34        12.1434 -138.0156   13.8013 H         1 1KR         0.0376
     76 H35         9.7038 -137.5789   12.0352 H         1 1KR         0.0304
     77 H36        10.1415 -135.0833   12.3976 H         1 1KR         0.0265
     78 H37        11.2147 -135.9370   11.2373 H         1 1KR         0.0265
     79 H38        12.5032 -134.3375   12.6428 H         1 1KR         0.0230
     80 H39        13.0140 -136.0285   12.9688 H         1 1KR         0.0230
     81 H40        11.9408 -135.1748   14.1291 H         1 1KR         0.0230
     82 H41         9.1636 -137.9017   14.4646 H         1 1KR         0.0233
     83 H42         8.7268 -136.2710   13.8508 H         1 1KR         0.0233
     84 H43        10.2007 -136.4878   14.8545 H         1 1KR         0.0233
     85 H44        10.1426 -139.4787   14.2525 H         1 1KR         0.0841
     86 H45        10.6668 -140.4671   11.6137 H         1 1KR         0.2133
@<TRIPOS>BOND
     1    1    2 2  
     2    1    3 1  
     3   11    1 am 
     4    3    4 1  
     5    4    5 1  
     6    5    6 ar 
     7    5   10 ar 
     8    6    7 ar 
     9    7    8 ar 
    10    9    8 ar 
    11   10    9 ar 
    12   12   11 1  
    13   13   12 1  
    14   12   15 1  
    15   13   14 2  
    16   30   13 am 
    17   16   17 1  
    18   40   16 am 
    19   17   18 1  
    20   17   19 1  
    21   19   18 1  
    22   19   20 1  
    23   20   21 1  
    24   21   22 1  
    25   21   30 1  
    26   22   23 1  
    27   23   24 1  
    28   24   25 ar 
    29   24   29 ar 
    30   25   26 ar 
    31   26   27 ar 
    32   28   27 ar 
    33   29   28 ar 
    34   32   31 1  
    35   33   32 1  
    36   33   34 1  
    37   38   33 1  
    38   34   35 1  
    39   34   37 1  
    40   35   36 1  
    41   38   39 1  
    42   38   40 1  
    43   40   41 2  
    44    4   42 1  
    45    4   43 1  
    46    6   44 1  
    47    7   45 1  
    48    8   46 1  
    49    9   47 1  
    50   10   48 1  
    51   11   49 1  
    52   12   50 1  
    53   15   51 1  
    54   15   52 1  
    55   15   53 1  
    56   16   54 1  
    57   17   55 1  
    58   18   56 1  
    59   18   57 1  
    60   19   58 1  
    61   20   59 1  
    62   20   60 1  
    63   21   61 1  
    64   22   62 1  
    65   22   63 1  
    66   23   64 1  
    67   23   65 1  
    68   25   66 1  
    69   26   67 1  
    70   27   68 1  
    71   28   69 1  
    72   29   70 1  
    73   30   71 1  
    74   31   72 1  
    75   32   73 1  
    76   32   74 1  
    77   33   75 1  
    78   34   76 1  
    79   35   77 1  
    80   35   78 1  
    81   36   79 1  
    82   36   80 1  
    83   36   81 1  
    84   37   82 1  
    85   37   83 1  
    86   37   84 1  
    87   38   85 1  
    88   39   86 1  
@<TRIPOS>SUBSTRUCTURE
     1 1KR         1

