### 
### Created by X-TOOL on Fri Sep 26 17:35:02 2014
### 

@<TRIPOS>MOLECULE
4j74_ligand
   34    36     1     0     0
SMALL
GAST_HUCK


@<TRIPOS>ATOM
      1 N1        -13.7500   -9.5080    2.6330 N.pl3     1 I18        -0.2724
      2 C5        -12.6710   -9.7260    1.6670 C.3       1 I18         0.0950
      3 C51       -13.2230  -10.3460    0.4060 C.ar      1 I18        -0.0141
      4 C4        -11.7030  -10.6570    2.4540 C.3       1 I18         0.0548
      5 C41       -11.3800  -11.9480    1.7480 C.ar      1 I18        -0.0321
      6 N3        -12.3850  -10.9090    3.7230 N.2       1 I18        -0.3540
      7 C2        -13.4820  -10.2540    3.7620 C.2       1 I18         0.0930
      8 C21       -14.4600  -10.2400    4.9030 C.3       1 I18         0.0189
      9 C56       -14.4750  -10.9650    0.4350 C.ar      1 I18        -0.0572
     10 C55       -15.0140  -11.5130   -0.7240 C.ar      1 I18        -0.0545
     11 C54       -14.2910  -11.4520   -1.9160 C.ar      1 I18         0.0330
     12 CL5       -14.9460  -12.2010   -3.3550 Cl        1 I18        -0.0771
     13 C53       -13.0440  -10.8190   -1.9610 C.ar      1 I18        -0.0545
     14 C52       -12.5080  -10.2730   -0.7950 C.ar      1 I18        -0.0572
     15 C42       -10.1830  -12.0660    1.0400 C.ar      1 I18        -0.0590
     16 C43        -9.8730  -13.2490    0.3820 C.ar      1 I18        -0.0546
     17 C44       -10.7720  -14.3140    0.4220 C.ar      1 I18         0.0330
     18 CL4       -10.4300  -15.7610   -0.4980 Cl        1 I18        -0.0771
     19 C45       -11.9520  -14.2220    1.1630 C.ar      1 I18        -0.0546
     20 C46       -12.2560  -13.0350    1.8230 C.ar      1 I18        -0.0590
     21 H1        -14.5700   -8.9006    2.4931 H         1 I18         0.1964
     22 H2        -12.1700   -8.7810    1.4101 H         1 I18         0.0762
     23 H3        -10.7579  -10.1248    2.6371 H         1 I18         0.0545
     24 H4        -14.0882  -10.8853    5.7125 H         1 I18         0.0525
     25 H5        -15.4346  -10.6129    4.5552 H         1 I18         0.0525
     26 H6        -14.5729   -9.2116    5.2766 H         1 I18         0.0525
     27 H7        -15.0290  -11.0184    1.3652 H         1 I18         0.0558
     28 H8        -15.9898  -11.9846   -0.7016 H         1 I18         0.0606
     29 H9        -12.4985  -10.7535   -2.8954 H         1 I18         0.0606
     30 H10       -11.5370   -9.7918   -0.8189 H         1 I18         0.0558
     31 H11        -9.4927  -11.2310    1.0036 H         1 I18         0.0557
     32 H12        -8.9385  -13.3438   -0.1590 H         1 I18         0.0606
     33 H13       -12.6261  -15.0687    1.2237 H         1 I18         0.0606
     34 H14       -13.1727  -12.9532    2.3957 H         1 I18         0.0557
@<TRIPOS>BOND
     1    1    2 1  
     2    1    7 1  
     3    2    3 1  
     4    2    4 1  
     5    3    9 ar 
     6    3   14 ar 
     7    4    5 1  
     8    4    6 1  
     9    5   15 ar 
    10    5   20 ar 
    11    6    7 2  
    12    7    8 1  
    13    9   10 ar 
    14   10   11 ar 
    15   11   12 1  
    16   11   13 ar 
    17   13   14 ar 
    18   15   16 ar 
    19   16   17 ar 
    20   17   18 1  
    21   17   19 ar 
    22   19   20 ar 
    23    1   21 1  
    24    2   22 1  
    25    4   23 1  
    26    8   24 1  
    27    8   25 1  
    28    8   26 1  
    29    9   27 1  
    30   10   28 1  
    31   13   29 1  
    32   14   30 1  
    33   15   31 1  
    34   16   32 1  
    35   19   33 1  
    36   20   34 1  
@<TRIPOS>SUBSTRUCTURE
     1 I18         1

