### 
### Created by X-TOOL on Mon Sep 10 21:13:14 2018
### 

@<TRIPOS>MOLECULE
4j7d_ligand
   66    69     1     0     0
SMALL
GAST_HUCK


@<TRIPOS>ATOM
      1 N1         -3.6590    5.0320   -0.0450 N.pl3     1 I31        -0.3247
      2 C5         -3.6580    3.9110   -0.9980 C.3       1 I31         0.0310
      3 C57        -3.3860    4.3980   -2.4300 C.3       1 I31        -0.0698
      4 C51        -4.9880    3.1850   -0.8960 C.ar      1 I31        -0.0332
      5 C4         -2.4760    3.0490   -0.4440 C.3       1 I31         0.0018
      6 C47        -1.1680    3.4380   -1.1490 C.3       1 I31        -0.0826
      7 C41        -2.6900    1.5520   -0.5410 C.ar      1 I31        -0.0471
      8 N3         -2.3950    3.4760    0.9400 N.2       1 I31        -0.3860
      9 C2         -2.9390    4.6290    1.0710 C.2       1 I31         0.1126
     10 C21        -2.8130    5.4880    2.2450 C.ar      1 I31         0.0936
     11 C56        -5.8050    3.4010    0.2150 C.ar      1 I31        -0.0381
     12 C55        -6.9910    2.6890    0.3690 C.ar      1 I31        -0.0182
     13 C54        -7.3620    1.7580   -0.5970 C.ar      1 I31         0.0714
     14 CL5        -8.8080    0.8030   -0.3710 Cl        1 I31        -0.0420
     15 C53        -6.5820    1.5720   -1.7410 C.ar      1 I31        -0.0182
     16 C52        -5.3940    2.2870   -1.8890 C.ar      1 I31        -0.0381
     17 C42        -2.0930    0.8250   -1.5810 C.ar      1 I31        -0.0395
     18 C43        -2.2740   -0.5550   -1.6660 C.ar      1 I31        -0.0182
     19 C44        -3.0610   -1.2050   -0.7160 C.ar      1 I31         0.0714
     20 CL4        -3.3300   -2.9320   -0.8420 Cl        1 I31        -0.0420
     21 C45        -3.6470   -0.4900    0.3280 C.ar      1 I31        -0.0182
     22 C46        -3.4610    0.8860    0.4140 C.ar      1 I31        -0.0395
     23 C22        -1.6540    5.4150    3.0170 C.ar      1 I31        -0.0206
     24 C23        -1.4880    6.2330    4.1250 C.ar      1 I31        -0.0448
     25 C24        -2.4820    7.1360    4.4860 C.ar      1 I31        -0.0548
     26 C30        -2.2720    7.9980    5.7110 C.3       1 I31        -0.0476
     27 C32        -2.1300    7.0920    6.9410 C.3       1 I31        -0.0845
     28 C31        -3.4670    8.9340    5.9050 C.3       1 I31        -0.0845
     29 C25        -3.6660    7.2240    3.7220 C.ar      1 I31        -0.0054
     30 C26        -3.8120    6.3860    2.6090 C.ar      1 I31         0.1410
     31 O27        -4.9660    6.4250    1.8320 O.3       1 I31        -0.3043
     32 C28        -5.9840    7.2990    2.2980 C.3       1 I31         0.0708
     33 C29        -7.1880    7.2400    1.3440 C.3       1 I31        -0.0367
     34 C33        -0.9920    8.8310    5.5510 C.3       1 I31        -0.0845
     35 H1         -4.1109    5.9475   -0.1811 H         1 I31         0.1766
     36 H2         -3.3917    3.5387   -3.1168 H         1 I31         0.0149
     37 H3         -2.4040    4.8920   -2.4690 H         1 I31         0.0149
     38 H4         -4.1677    5.1117   -2.7293 H         1 I31         0.0149
     39 H5         -0.3428    2.8275   -0.7537 H         1 I31         0.0134
     40 H6         -0.9562    4.5021   -0.9678 H         1 I31         0.0134
     41 H7         -1.2682    3.2629   -2.2303 H         1 I31         0.0134
     42 H8         -5.5135    4.1288    0.9636 H         1 I31         0.0848
     43 H9         -7.6210    2.8582    1.2347 H         1 I31         0.0703
     44 H10        -6.8985    0.8758   -2.5092 H         1 I31         0.0703
     45 H11        -4.7844    2.1469   -2.7744 H         1 I31         0.0848
     46 H12        -1.4890    1.3374   -2.3211 H         1 I31         0.0847
     47 H13        -1.8061   -1.1186   -2.4651 H         1 I31         0.0703
     48 H14        -4.2458   -1.0050    1.0705 H         1 I31         0.0703
     49 H15        -3.9161    1.4430    1.2250 H         1 I31         0.0847
     50 H16        -0.8743    4.7114    2.7484 H         1 I31         0.0730
     51 H17        -0.5791    6.1680    4.7122 H         1 I31         0.0769
     52 H18        -1.9768    7.7115    7.8370 H         1 I31         0.0135
     53 H19        -1.2674    6.4230    6.8060 H         1 I31         0.0135
     54 H20        -3.0440    6.4920    7.0620 H         1 I31         0.0135
     55 H21        -3.5702    9.5843    5.0238 H         1 I31         0.0135
     56 H22        -3.3068    9.5525    6.8004 H         1 I31         0.0135
     57 H23        -4.3831    8.3380    6.0301 H         1 I31         0.0135
     58 H24        -4.4467    7.9262    3.9914 H         1 I31         0.0765
     59 H25        -5.5956    8.3275    2.3346 H         1 I31         0.0616
     60 H26        -6.2994    6.9901    3.3055 H         1 I31         0.0616
     61 H27        -7.9759    7.9171    1.7056 H         1 I31         0.0256
     62 H28        -7.5768    6.2117    1.3073 H         1 I31         0.0256
     63 H29        -6.8730    7.5491    0.3364 H         1 I31         0.0256
     64 H30        -0.1323    8.1591    5.4115 H         1 I31         0.0135
     65 H31        -0.8371    9.4421    6.4524 H         1 I31         0.0135
     66 H32        -1.0895    9.4884    4.6745 H         1 I31         0.0135
@<TRIPOS>BOND
     1    1    2 1  
     2    1    9 1  
     3    2    3 1  
     4    2    4 1  
     5    2    5 1  
     6    4   11 ar 
     7    4   16 ar 
     8    5    6 1  
     9    5    7 1  
    10    5    8 1  
    11    7   17 ar 
    12    7   22 ar 
    13    8    9 2  
    14    9   10 1  
    15   10   23 ar 
    16   10   30 ar 
    17   11   12 ar 
    18   12   13 ar 
    19   13   14 1  
    20   13   15 ar 
    21   15   16 ar 
    22   17   18 ar 
    23   18   19 ar 
    24   19   20 1  
    25   19   21 ar 
    26   21   22 ar 
    27   23   24 ar 
    28   24   25 ar 
    29   25   26 1  
    30   25   29 ar 
    31   26   27 1  
    32   26   28 1  
    33   26   34 1  
    34   29   30 ar 
    35   30   31 1  
    36   31   32 1  
    37   32   33 1  
    38    1   35 1  
    39    3   36 1  
    40    3   37 1  
    41    3   38 1  
    42    6   39 1  
    43    6   40 1  
    44    6   41 1  
    45   11   42 1  
    46   12   43 1  
    47   15   44 1  
    48   16   45 1  
    49   17   46 1  
    50   18   47 1  
    51   21   48 1  
    52   22   49 1  
    53   23   50 1  
    54   24   51 1  
    55   27   52 1  
    56   27   53 1  
    57   27   54 1  
    58   28   55 1  
    59   28   56 1  
    60   28   57 1  
    61   29   58 1  
    62   32   59 1  
    63   32   60 1  
    64   33   61 1  
    65   33   62 1  
    66   33   63 1  
    67   34   64 1  
    68   34   65 1  
    69   34   66 1  
@<TRIPOS>SUBSTRUCTURE
     1 I31         1

