### 
### Created by X-TOOL on Mon Sep 10 21:13:15 2018
### 

@<TRIPOS>MOLECULE
4j7e_ligand
   72    75     1     0     0
SMALL
GAST_HUCK


@<TRIPOS>ATOM
      1 N1        -12.9310   -8.6110    2.6400 N.am      1 I29        -0.2050
      2 C5        -12.0370   -9.2260    1.6600 C.3       1 I29         0.0616
      3 C57       -10.9710   -8.2450    1.1580 C.3       1 I29        -0.0637
      4 C51       -12.8520   -9.8120    0.5040 C.ar      1 I29        -0.0268
      5 C4        -11.4070  -10.3430    2.5550 C.3       1 I29        -0.0109
      6 C47       -10.0910   -9.8370    3.1590 C.3       1 I29        -0.0864
      7 C41       -11.1660  -11.6310    1.8160 C.ar      1 I29        -0.0512
      8 N3        -12.4010  -10.5380    3.6380 N.2       1 I29        -0.4197
      9 C2        -13.2760   -9.6090    3.5950 C.2       1 I29         0.0990
     10 C21       -14.5760   -9.5710    4.3480 C.3       1 I29         0.0199
     11 C56       -14.2280  -10.0450    0.6660 C.ar      1 I29        -0.0376
     12 C55       -14.9600  -10.6800   -0.3340 C.ar      1 I29        -0.0181
     13 C54       -14.3210  -11.0940   -1.5050 C.ar      1 I29         0.0714
     14 CL5       -15.2120  -12.0490   -2.6930 Cl        1 I29        -0.0420
     15 C53       -12.9720  -10.7800   -1.7200 C.ar      1 I29        -0.0181
     16 C52       -12.2390  -10.1410   -0.7120 C.ar      1 I29        -0.0376
     17 C42        -9.9150  -11.8730    1.2350 C.ar      1 I29        -0.0399
     18 C43        -9.6870  -13.0560    0.5380 C.ar      1 I29        -0.0182
     19 C44       -10.7170  -13.9920    0.4130 C.ar      1 I29         0.0714
     20 CL4       -10.4580  -15.4410   -0.5380 Cl        1 I29        -0.0420
     21 C45       -11.9550  -13.7710    1.0190 C.ar      1 I29        -0.0182
     22 C46       -12.1750  -12.5870    1.7190 C.ar      1 I29        -0.0399
     23 C10       -13.6600   -7.3950    2.3510 C.2       1 I29         0.2984
     24 O10       -13.6410   -6.9130    1.2010 O.2       1 I29        -0.3853
     25 N10       -14.3700   -6.7620    3.3980 N.am      1 I29        -0.2421
     26 C14       -15.6670   -6.1570    3.1190 C.3       1 I29         0.0752
     27 C13       -16.5210   -6.1860    4.3670 C.3       1 I29        -0.0111
     28 N12       -15.9330   -5.3210    5.3980 N.4       1 I29         0.2381
     29 C12       -14.4720   -5.5950    5.6230 C.3       1 I29        -0.0111
     30 C11       -13.9430   -6.8180    4.8210 C.3       1 I29         0.0752
     31 C16       -16.2200   -4.4040    7.6850 C.3       1 I29         0.0068
     32 C17       -17.2530   -4.2380    8.8070 C.3       1 I29         0.0702
     33 S17       -16.5660   -4.7100   10.3830 S.o2      1 I29        -0.0336
     34 C19       -17.8950   -4.5140   11.5520 C.3       1 I29         0.0544
     35 O17       -15.4990   -3.7740   10.7290 O.2       1 I29        -0.1746
     36 O18       -16.1990   -6.1230   10.3270 O.2       1 I29        -0.1746
     37 C15       -16.7120   -5.4250    6.6550 C.3       1 I29        -0.0303
     38 H1        -10.3240   -8.7499    0.4255 H         1 I29         0.0154
     39 H2        -10.3630   -7.8983    2.0066 H         1 I29         0.0154
     40 H3        -11.4611   -7.3831    0.6816 H         1 I29         0.0154
     41 H4         -9.6497  -10.6241    3.7880 H         1 I29         0.0131
     42 H5        -10.2879   -8.9451    3.7720 H         1 I29         0.0131
     43 H6         -9.3916   -9.5789    2.3502 H         1 I29         0.0131
     44 H7        -14.6313  -10.4340    5.0278 H         1 I29         0.0517
     45 H8        -15.4135   -9.6109    3.6360 H         1 I29         0.0517
     46 H9        -14.6347   -8.6404    4.9315 H         1 I29         0.0517
     47 H10       -14.7236   -9.7280    1.5765 H         1 I29         0.0848
     48 H11       -16.0223  -10.8525   -0.2041 H         1 I29         0.0703
     49 H12       -12.4982  -11.0306   -2.6622 H         1 I29         0.0703
     50 H13       -11.1944   -9.9003   -0.8732 H         1 I29         0.0848
     51 H14        -9.1234  -11.1383    1.3282 H         1 I29         0.0847
     52 H15        -8.7168  -13.2500    0.0951 H         1 I29         0.0703
     53 H16       -12.7395  -14.5155    0.9454 H         1 I29         0.0703
     54 H17       -13.1349  -12.4087    2.1901 H         1 I29         0.0847
     55 H18       -16.1692   -6.7207    2.3190 H         1 I29         0.0574
     56 H19       -15.5231   -5.1147    2.7984 H         1 I29         0.0574
     57 H20       -16.5778   -7.2172    4.7457 H         1 I29         0.0834
     58 H21       -17.5325   -5.8281    4.1247 H         1 I29         0.0834
     59 H22       -16.0082   -4.3703    5.0716 H         1 I29         0.2035
     60 H23       -14.3139   -5.7859    6.6947 H         1 I29         0.0834
     61 H24       -13.8997   -4.7056    5.3206 H         1 I29         0.0834
     62 H25       -12.8439   -6.8256    4.8644 H         1 I29         0.0574
     63 H26       -14.3344   -7.7400    5.2757 H         1 I29         0.0574
     64 H27       -15.2696   -4.7524    8.1156 H         1 I29         0.0333
     65 H28       -16.0643   -3.4346    7.1889 H         1 I29         0.0333
     66 H29       -18.1248   -4.8727    8.5901 H         1 I29         0.0501
     67 H30       -17.5682   -3.1851    8.8529 H         1 I29         0.0501
     68 H31       -17.5429   -4.7895   12.5570 H         1 I29         0.0464
     69 H32       -18.7339   -5.1655   11.2661 H         1 I29         0.0464
     70 H33       -18.2291   -3.4660   11.5551 H         1 I29         0.0464
     71 H34       -16.5970   -6.4380    7.0679 H         1 I29         0.0815
     72 H35       -17.7737   -5.2357    6.4382 H         1 I29         0.0815
@<TRIPOS>BOND
     1    1    2 1  
     2    1    9 1  
     3   23    1 am 
     4    2    3 1  
     5    2    4 1  
     6    2    5 1  
     7    4   11 ar 
     8    4   16 ar 
     9    5    6 1  
    10    5    7 1  
    11    8    5 1  
    12    7   17 ar 
    13    7   22 ar 
    14    9    8 2  
    15    9   10 1  
    16   11   12 ar 
    17   12   13 ar 
    18   13   14 1  
    19   15   13 ar 
    20   16   15 ar 
    21   17   18 ar 
    22   18   19 ar 
    23   19   20 1  
    24   21   19 ar 
    25   22   21 ar 
    26   23   24 2  
    27   25   23 am 
    28   26   25 1  
    29   30   25 1  
    30   27   26 1  
    31   28   27 1  
    32   28   29 1  
    33   37   28 1  
    34   29   30 1  
    35   31   32 1  
    36   31   37 1  
    37   32   33 1  
    38   33   34 1  
    39   33   35 2  
    40   33   36 2  
    41    3   38 1  
    42    3   39 1  
    43    3   40 1  
    44    6   41 1  
    45    6   42 1  
    46    6   43 1  
    47   10   44 1  
    48   10   45 1  
    49   10   46 1  
    50   11   47 1  
    51   12   48 1  
    52   15   49 1  
    53   16   50 1  
    54   17   51 1  
    55   18   52 1  
    56   21   53 1  
    57   22   54 1  
    58   26   55 1  
    59   26   56 1  
    60   27   57 1  
    61   27   58 1  
    62   28   59 1  
    63   29   60 1  
    64   29   61 1  
    65   30   62 1  
    66   30   63 1  
    67   31   64 1  
    68   31   65 1  
    69   32   66 1  
    70   32   67 1  
    71   34   68 1  
    72   34   69 1  
    73   34   70 1  
    74   37   71 1  
    75   37   72 1  
@<TRIPOS>SUBSTRUCTURE
     1 I29         1

