### 
### Created by X-TOOL on Mon Sep 10 21:13:19 2018
### 

@<TRIPOS>MOLECULE
4j7i_ligand
   79    78     1     0     0
SMALL
GAST_HUCK


@<TRIPOS>ATOM
      1 N          45.9770   -4.6030  -18.8350 N.4       1 SER         0.2396
      2 CA         47.4440   -4.7590  -19.1040 C.3       1 SER         0.0885
      3 C          48.1810   -5.6270  -18.0610 C.2       1 SER         0.2290
      4 O          48.7090   -6.6820  -18.4100 O.2       1 SER        -0.3906
      5 CB         48.1380   -3.3790  -19.2660 C.3       1 SER         0.1041
      6 OG         49.4040   -3.4950  -19.9140 O.3       1 SER        -0.3870
      7 N          48.2420   -5.1850  -16.7970 N.am      1 LYS        -0.2612
      8 CA         49.1110   -5.8610  -15.8110 C.3       1 LYS         0.1283
      9 C          48.4230   -7.0190  -14.9730 C.2       1 LYS         0.2037
     10 O          48.5150   -7.0700  -13.7490 O.2       1 LYS        -0.3944
     11 CB         49.9000   -4.8270  -14.9560 C.3       1 LYS        -0.0244
     12 N          47.7680   -7.9640  -15.6660 N.am      1 SER        -0.2616
     13 CA         46.9950   -9.0460  -15.0100 C.3       1 SER         0.1539
     14 C          46.6970  -10.1660  -15.9900 C.2       1 SER         0.2062
     15 O          46.5680   -9.9040  -17.1790 O.2       1 SER        -0.3943
     16 CB         45.6690   -8.5160  -14.4820 C.3       1 SER         0.0843
     17 OG         44.9080   -7.9740  -15.5340 O.3       1 SER        -0.3903
     18 N          46.5390  -11.3940  -15.4760 N.am      1 LYS        -0.2637
     19 CA         46.4230  -12.5880  -16.2990 C.3       1 LYS         0.1310
     20 C          45.2080  -12.5650  -17.2480 C.2       1 LYS         0.2040
     21 O          44.1550  -11.9520  -16.9550 O.2       1 LYS        -0.3944
     22 CB         46.3340  -13.8260  -15.4070 C.3       1 LYS        -0.0122
     23 CG         47.5110  -14.0310  -14.4740 C.3       1 LYS        -0.0440
     24 CD         47.2000  -15.0300  -13.3540 C.3       1 LYS        -0.0124
     25 CE         48.3450  -15.0980  -12.3220 C.3       1 LYS        -0.0354
     26 NZ         48.1180  -16.0260  -11.1450 N.4       1 LYS         0.2185
     27 N          45.3590  -13.2140  -18.4040 N.am      1 ASP        -0.2622
     28 CA         44.2000  -13.7130  -19.1470 C.3       1 ASP         0.1423
     29 C          43.1740  -12.6210  -19.6440 C.2       1 ASP         0.2051
     30 O          41.9790  -12.9060  -19.7690 O.2       1 ASP        -0.3943
     31 CB         43.5440  -14.8470  -18.3000 C.3       1 ASP         0.0406
     32 CG         42.3680  -15.5140  -18.9910 C.2       1 ASP         0.0393
     33 OD1        42.5840  -16.2850  -19.9470 O.co2     1 ASP        -0.5688
     34 OD2        41.2140  -15.2800  -18.5500 O.co2     1 ASP        -0.5688
     35 N          43.6560  -11.4100  -20.0020 N.am      1 ARG        -0.2672
     36 CA         42.7900  -10.3200  -20.6110 C.3       1 ARG         0.1198
     37 C          41.9950  -10.6850  -21.9100 C.2       1 ARG         0.2147
     38 O          42.5430  -11.2060  -22.8950 O.co2     1 ARG        -0.4120
     39 CB         43.5830   -9.0110  -20.8240 C.3       1 ARG        -0.0276
     40 H          45.5633   -4.0277  -19.5519 H         1 SER         0.2016
     41 H          45.8448   -4.1666  -17.9361 H         1 SER         0.2016
     42 H          45.5368   -5.5098  -18.8363 H         1 SER         0.2016
     43 H          47.5323   -5.2816  -20.0679 H         1 SER         0.1122
     44 H          48.2871   -2.9364  -18.2701 H         1 SER         0.0640
     45 H          47.4900   -2.7228  -19.8656 H         1 SER         0.0640
     46 H          49.7971   -2.6339  -19.9951 H         1 SER         0.2099
     47 H          47.6968   -4.3939  -16.5198 H         1 LYS         0.1884
     48 H          49.8734   -6.3776  -16.4125 H         1 LYS         0.0797
     49 H          50.5364   -5.3584  -14.2331 H         1 LYS         0.0277
     50 H          49.1919   -4.1813  -14.4159 H         1 LYS         0.0277
     51 H          50.5294   -4.2106  -15.6147 H         1 LYS         0.0277
     52 H          47.8028   -7.9371  -16.6650 H         1 SER         0.1884
     53 H          47.5861   -9.4446  -14.1724 H         1 SER         0.0823
     54 H          45.8627   -7.7337  -13.7334 H         1 SER         0.0606
     55 H          45.1087   -9.3395  -14.0152 H         1 SER         0.0606
     56 H          44.7381   -8.6488  -16.1808 H         1 SER         0.2097
     57 H          46.4991  -11.4938  -14.4818 H         1 LYS         0.1883
     58 H          47.3320  -12.6616  -16.9140 H         1 LYS         0.0800
     59 H          46.2564  -14.7099  -16.0572 H         1 LYS         0.0312
     60 H          45.4243  -13.7403  -14.7945 H         1 LYS         0.0312
     61 H          47.7761  -13.0640  -14.0216 H         1 LYS         0.0269
     62 H          48.3633  -14.4086  -15.0578 H         1 LYS         0.0269
     63 H          47.0565  -16.0276  -13.7947 H         1 LYS         0.0317
     64 H          46.2769  -14.7184  -12.8434 H         1 LYS         0.0317
     65 H          48.5036  -14.0839  -11.9265 H         1 LYS         0.0813
     66 H          49.2522  -15.4333  -12.8460 H         1 LYS         0.0813
     67 H          48.9198  -15.9970  -10.5348 H         1 LYS         0.1994
     68 H          47.9847  -16.9673  -11.4801 H         1 LYS         0.1994
     69 H          47.2987  -15.7308  -10.6375 H         1 LYS         0.1994
     70 H          46.2783  -13.3620  -18.7688 H         1 ASP         0.1884
     71 H          44.5931  -14.1815  -20.0613 H         1 ASP         0.0819
     72 H          43.1915  -14.4144  -17.3521 H         1 ASP         0.0478
     73 H          44.3062  -15.6125  -18.0927 H         1 ASP         0.0478
     74 H          44.6279  -11.2227  -19.8594 H         1 ARG         0.1876
     75 H          42.0254  -10.1021  -19.8508 H         1 ARG         0.0748
     76 O1         40.7595  -10.4422  -21.9572 O.co2     1 ARG        -0.4120
     77 H          42.9226   -8.2499  -21.2650 H         1 ARG         0.0271
     78 H          44.4281   -9.2005  -21.5021 H         1 ARG         0.0271
     79 H          43.9628   -8.6508  -19.8565 H         1 ARG         0.0271
@<TRIPOS>BOND
     1    1    2 1  
     2    2    3 1  
     3    2    5 1  
     4    3    4 2  
     5    3    7 am 
     6    5    6 1  
     7    7    8 1  
     8    8    9 1  
     9    8   11 1  
    10    9   10 2  
    11    9   12 am 
    12   12   13 1  
    13   13   14 1  
    14   13   16 1  
    15   14   15 2  
    16   14   18 am 
    17   16   17 1  
    18   18   19 1  
    19   19   20 1  
    20   19   22 1  
    21   20   21 2  
    22   20   27 am 
    23   22   23 1  
    24   23   24 1  
    25   24   25 1  
    26   25   26 1  
    27   27   28 1  
    28   28   29 1  
    29   28   31 1  
    30   29   30 2  
    31   29   35 am 
    32   31   32 1  
    33   32   33 ar 
    34   32   34 ar 
    35   35   36 1  
    36   36   37 1  
    37   36   39 1  
    38   37   38 ar 
    39    1   40 1  
    40    1   41 1  
    41    1   42 1  
    42    2   43 1  
    43    5   44 1  
    44    5   45 1  
    45    6   46 1  
    46    7   47 1  
    47    8   48 1  
    48   11   49 1  
    49   11   50 1  
    50   11   51 1  
    51   12   52 1  
    52   13   53 1  
    53   16   54 1  
    54   16   55 1  
    55   17   56 1  
    56   18   57 1  
    57   19   58 1  
    58   22   59 1  
    59   22   60 1  
    60   23   61 1  
    61   23   62 1  
    62   24   63 1  
    63   24   64 1  
    64   25   65 1  
    65   25   66 1  
    66   26   67 1  
    67   26   68 1  
    68   26   69 1  
    69   27   70 1  
    70   28   71 1  
    71   31   72 1  
    72   31   73 1  
    73   35   74 1  
    74   36   75 1  
    75   37   76 ar 
    76   39   77 1  
    77   39   78 1  
    78   39   79 1  
@<TRIPOS>SUBSTRUCTURE
     1 SER         1

