### 
### Created by X-TOOL on Mon Sep 10 21:13:12 2018
### 

@<TRIPOS>MOLECULE
4j81_ligand
   79    80     1     0     0
SMALL
GAST_HUCK


@<TRIPOS>ATOM
      1 N         -91.2240   70.9320  125.4250 N.4       1 LYS         0.2379
      2 CA        -91.8970   70.7640  124.1400 C.3       1 LYS         0.0652
      3 C         -92.8520   71.9340  123.8760 C.2       1 LYS         0.2292
      4 O         -93.6870   72.2560  124.7190 O.2       1 LYS        -0.3905
      5 CB        -92.6560   69.4340  124.1170 C.3       1 LYS         0.0080
      6 CG        -93.3340   69.1120  122.7980 C.3       1 LYS        -0.0410
      7 CD        -94.2380   67.8950  122.9350 C.3       1 LYS        -0.0123
      8 CE        -93.5270   66.6010  122.5790 C.3       1 LYS        -0.0354
      9 NZ        -93.2630   66.5160  121.1190 N.4       1 LYS         0.2185
     10 N         -92.7410   72.5510  122.7050 N.am      1 PRO        -0.2471
     11 CA        -93.6580   73.6320  122.3320 C.3       1 PRO         0.1339
     12 C         -95.0950   73.1310  122.2790 C.2       1 PRO         0.2042
     13 O         -95.3340   71.9890  121.9080 O.2       1 PRO        -0.3944
     14 CB        -93.1970   74.0120  120.9270 C.3       1 PRO        -0.0104
     15 CG        -91.7650   73.6110  120.8760 C.3       1 PRO        -0.0281
     16 CD        -91.6610   72.3770  121.7190 C.3       1 PRO         0.0371
     17 N         -96.0350   73.9940  122.6450 N.am      1 HIS        -0.2625
     18 CA        -97.4440   73.6720  122.5740 C.3       1 HIS         0.1369
     19 C         -97.7830   72.4080  123.2990 C.2       1 HIS         0.2054
     20 O         -98.4920   71.5380  122.7640 O.2       1 HIS        -0.3942
     21 CB        -97.8930   73.5980  121.1230 C.3       1 HIS         0.0145
     22 CG        -98.0610   74.9470  120.4810 C.2       1 HIS        -0.0027
     23 ND1       -99.2630   75.4660  120.1940 N.2       1 HIS        -0.3252
     24 CD2       -97.1230   75.8960  120.0970 C.2       1 HIS         0.0291
     25 CE1       -99.1070   76.6800  119.6450 C.2       1 HIS         0.0907
     26 NE2       -97.7970   76.9440  119.5880 N.pl3     1 HIS        -0.2752
     27 N         -97.2970   72.2940  124.5300 N.am      1 SER        -0.2615
     28 CA        -97.5750   71.1310  125.3570 C.3       1 SER         0.1539
     29 C         -98.9950   71.1480  125.9140 C.2       1 SER         0.2057
     30 O         -99.5750   70.1000  126.1670 O.2       1 SER        -0.3943
     31 CB        -96.5600   71.0350  126.4970 C.3       1 SER         0.0843
     32 OG        -95.4200   70.3080  126.0830 O.3       1 SER        -0.3903
     33 N         -99.5420   72.3450  126.1060 N.am      1 ASP        -0.2679
     34 CA       -100.8990   72.5030  126.6210 C.3       1 ASP         0.1057
     35 C        -101.9300   72.1570  125.5600 C.2       1 ASP         0.0618
     36 O        -103.1190   71.9850  125.8580 O.co2     1 ASP        -0.5665
     37 CB       -101.1400   73.9430  127.0960 C.3       1 ASP         0.0351
     38 CG       -100.4540   74.2560  128.4170 C.2       1 ASP         0.0387
     39 OD1       -99.8390   73.3520  129.0200 O.co2     1 ASP        -0.5688
     40 OD2      -100.5490   75.4200  128.8560 O.co2     1 ASP        -0.5688
     41 OXT      -101.5980   72.0590  124.3680 O.co2     1 ASP        -0.5665
     42 H1        -90.6011   70.1552  125.5821 H         1 LYS         0.2015
     43 H2        -91.9108   70.9663  126.1620 H         1 LYS         0.2015
     44 H3        -90.6955   71.7903  125.4179 H         1 LYS         0.2015
     45 H4        -91.1369   70.7479  123.3451 H         1 LYS         0.1098
     46 H5        -93.4281   69.4668  124.8998 H         1 LYS         0.0346
     47 H6        -91.9414   68.6281  124.3403 H         1 LYS         0.0346
     48 H7        -92.5652   68.9059  122.0387 H         1 LYS         0.0270
     49 H8        -93.9381   69.9757  122.4832 H         1 LYS         0.0270
     50 H9        -95.1013   68.0193  122.2648 H         1 LYS         0.0317
     51 H10       -94.5880   67.8306  123.9758 H         1 LYS         0.0317
     52 H11       -94.1573   65.7510  122.8795 H         1 LYS         0.0813
     53 H12       -92.5700   66.5571  123.1196 H         1 LYS         0.0813
     54 H13       -92.7916   65.6492  120.9127 H         1 LYS         0.1994
     55 H14       -92.6819   67.2898  120.8370 H         1 LYS         0.1994
     56 H15       -94.1364   66.5512  120.6170 H         1 LYS         0.1994
     57 H16       -93.5796   74.4808  123.0273 H         1 PRO         0.0802
     58 H17       -93.3023   75.0948  120.7641 H         1 PRO         0.0313
     59 H18       -93.7789   73.4687  120.1679 H         1 PRO         0.0313
     60 H19       -91.1280   74.4095  121.2843 H         1 PRO         0.0287
     61 H20       -91.4636   73.3949  119.8404 H         1 PRO         0.0287
     62 H21       -91.8207   71.4719  121.1146 H         1 PRO         0.0524
     63 H22       -90.6804   72.3191  122.2141 H         1 PRO         0.0524
     64 H23       -95.7607   74.8952  122.9804 H         1 HIS         0.1885
     65 H24       -97.9970   74.4898  123.0591 H         1 HIS         0.0817
     66 H25       -98.8572   73.0701  121.0827 H         1 HIS         0.0420
     67 H26       -97.1410   73.0320  120.5536 H         1 HIS         0.0420
     68 H27       -96.0415   75.8085  120.1904 H         1 HIS         0.0729
     69 H28       -99.9071   77.3359  119.3051 H         1 HIS         0.1199
     70 H29       -97.3740   77.8064  119.2162 H         1 HIS         0.2361
     71 H30       -96.7250   73.0273  124.8975 H         1 SER         0.1884
     72 H31       -97.4702   70.2357  124.7265 H         1 SER         0.0823
     73 H32       -97.0242   70.5240  127.3534 H         1 SER         0.0606
     74 H33       -96.2544   72.0484  126.7963 H         1 SER         0.0606
     75 H34       -95.0158   70.7485  125.3447 H         1 SER         0.2097
     76 H35       -99.0072   73.1622  125.8909 H         1 ASP         0.1876
     77 H36      -101.0273   71.8216  127.4749 H         1 ASP         0.0745
     78 H37      -102.2225   74.0951  127.2186 H         1 ASP         0.0471
     79 H38      -100.7571   74.6334  126.3301 H         1 ASP         0.0471
@<TRIPOS>BOND
     1    1    2 1  
     2    2    3 1  
     3    2    5 1  
     4    3    4 2  
     5    3   10 am 
     6    5    6 1  
     7    6    7 1  
     8    7    8 1  
     9    8    9 1  
    10   10   11 1  
    11   10   16 1  
    12   11   12 1  
    13   11   14 1  
    14   12   13 2  
    15   12   17 am 
    16   14   15 1  
    17   15   16 1  
    18   17   18 1  
    19   18   19 1  
    20   18   21 1  
    21   19   20 2  
    22   19   27 am 
    23   21   22 1  
    24   22   23 1  
    25   22   24 2  
    26   23   25 2  
    27   24   26 1  
    28   25   26 1  
    29   27   28 1  
    30   28   29 1  
    31   28   31 1  
    32   29   30 2  
    33   29   33 am 
    34   31   32 1  
    35   33   34 1  
    36   34   35 1  
    37   34   37 1  
    38   35   36 ar 
    39   35   41 ar 
    40   37   38 1  
    41   38   39 ar 
    42   38   40 ar 
    43    1   42 1  
    44    1   43 1  
    45    1   44 1  
    46    2   45 1  
    47    5   46 1  
    48    5   47 1  
    49    6   48 1  
    50    6   49 1  
    51    7   50 1  
    52    7   51 1  
    53    8   52 1  
    54    8   53 1  
    55    9   54 1  
    56    9   55 1  
    57    9   56 1  
    58   11   57 1  
    59   14   58 1  
    60   14   59 1  
    61   15   60 1  
    62   15   61 1  
    63   16   62 1  
    64   16   63 1  
    65   17   64 1  
    66   18   65 1  
    67   21   66 1  
    68   21   67 1  
    69   24   68 1  
    70   25   69 1  
    71   26   70 1  
    72   27   71 1  
    73   28   72 1  
    74   31   73 1  
    75   31   74 1  
    76   32   75 1  
    77   33   76 1  
    78   34   77 1  
    79   37   78 1  
    80   37   79 1  
@<TRIPOS>SUBSTRUCTURE
     1 LYS         1

