### 
### Created by X-TOOL on Mon Sep 10 21:13:17 2018
### 

@<TRIPOS>MOLECULE
4j8m_ligand
   63    67     1     0     0
SMALL
GAST_HUCK


@<TRIPOS>ATOM
      1 O01       117.9870  104.8070  154.4950 O.2       1 CJ5        -0.3815
      2 C02       116.9160  105.2220  154.9300 C.2       1 CJ5         0.3144
      3 N03       115.9470  105.9430  154.1460 N.am      1 CJ5        -0.2090
      4 C04       116.0190  106.2680  152.7350 C.ar      1 CJ5         0.0958
      5 C05       114.8500  106.6220  152.0720 C.ar      1 CJ5        -0.0114
      6 C06       114.8860  106.9180  150.7000 C.ar      1 CJ5        -0.0435
      7 C07       116.1060  106.8650  150.0030 C.ar      1 CJ5        -0.0452
      8 C08       117.2810  106.5010  150.6700 C.ar      1 CJ5         0.0333
      9 C09       118.5980  106.4490  149.9260 C.3       1 CJ5         0.3726
     10 F10       119.2080  105.2880  150.1520 F         1 CJ5        -0.2209
     11 F11       119.3650  107.4290  150.4000 F         1 CJ5        -0.2209
     12 F12       118.3990  106.6210  148.6140 F         1 CJ5        -0.2209
     13 C13       117.2420  106.2000  152.0300 C.ar      1 CJ5        -0.0127
     14 N14       116.5110  105.0560  156.3210 N.am      1 CJ5        -0.2205
     15 C15       117.2870  104.4120  157.3230 C.ar      1 CJ5         0.0566
     16 C16       118.6530  104.2010  157.1850 C.ar      1 CJ5        -0.0496
     17 C17       119.3530  103.5820  158.1920 C.ar      1 CJ5        -0.0505
     18 C18       116.6270  104.0040  158.4720 C.ar      1 CJ5        -0.0496
     19 C19       117.3340  103.3840  159.4830 C.ar      1 CJ5        -0.0505
     20 C20       118.6960  103.1790  159.3370 C.ar      1 CJ5         0.0511
     21 N21       119.4230  102.5200  160.3630 N.pl3     1 CJ5        -0.2526
     22 C22       119.9310  103.2290  161.4950 C.ar      1 CJ5         0.1915
     23 N23       120.6800  102.5550  162.3950 N.ar      1 CJ5        -0.2703
     24 C24       121.1720  103.1790  163.4630 C.ar      1 CJ5         0.0003
     25 C25       120.9150  104.5270  163.6710 C.ar      1 CJ5        -0.0029
     26 C26       120.1300  105.1710  162.7000 C.ar      1 CJ5         0.1310
     27 N27       119.8490  106.5560  162.9290 N.pl3     1 CJ5        -0.2582
     28 C28       119.1900  107.4200  161.9780 C.2       1 CJ5         0.0972
     29 N29       118.9210  108.6760  162.3520 N.2       1 CJ5        -0.2284
     30 N30       118.3200  109.3060  161.3020 N.pl3     1 CJ5        -0.2332
     31 C31       118.1650  108.4430  160.2980 C.2       1 CJ5         0.0620
     32 C32       117.5120  108.8870  158.9870 C.3       1 CJ5         0.0194
     33 C33       118.3130  108.7790  157.7550 C.3       1 CJ5        -0.0368
     34 C34       117.3150  108.5840  156.6390 C.3       1 CJ5        -0.0505
     35 C35       115.9970  108.2380  157.2940 C.3       1 CJ5        -0.0505
     36 C36       116.1780  108.3050  158.7620 C.3       1 CJ5        -0.0368
     37 C37       118.7130  107.2190  160.6520 C.2       1 CJ5        -0.0253
     38 N38       119.6410  104.5270  161.6320 N.ar      1 CJ5        -0.2364
     39 H         115.1301  106.2556  154.6308 H         1 CJ5         0.2264
     40 H         113.9120  106.6695  152.6132 H         1 CJ5         0.0758
     41 H         113.9744  107.1870  150.1788 H         1 CJ5         0.0663
     42 H         116.1364  107.1066  148.9467 H         1 CJ5         0.0740
     43 H         118.1503  105.9135  152.5476 H         1 CJ5         0.0709
     44 H         115.6205  105.4227  156.5903 H         1 CJ5         0.2227
     45 H         119.1650  104.5237  156.2857 H         1 CJ5         0.0477
     46 H         120.4183  103.4106  158.0877 H         1 CJ5         0.0503
     47 H         115.5610  104.1710  158.5761 H         1 CJ5         0.0477
     48 H         116.8267  103.0600  160.3845 H         1 CJ5         0.0503
     49 H         119.5884  101.5060  160.2897 H         1 CJ5         0.2139
     50 H         121.7776  102.6304  164.1753 H         1 CJ5         0.0846
     51 H         121.2994  105.0547  164.5364 H         1 CJ5         0.0578
     52 H         120.1356  106.9627  163.8309 H         1 CJ5         0.2126
     53 H         118.0310  110.2945  161.2872 H         1 CJ5         0.2454
     54 H         117.3459  109.9659  159.1223 H         1 CJ5         0.0507
     55 H         118.9955  107.9184  157.8147 H         1 CJ5         0.0293
     56 H         118.8952  109.6982  157.5934 H         1 CJ5         0.0293
     57 H         117.6379  107.7647  155.9799 H         1 CJ5         0.0267
     58 H         117.2159  109.5092  156.0524 H         1 CJ5         0.0267
     59 H         115.6917  107.2222  157.0025 H         1 CJ5         0.0267
     60 H         115.2255  108.9568  156.9808 H         1 CJ5         0.0267
     61 H         115.4032  108.9426  159.2127 H         1 CJ5         0.0293
     62 H         116.1234  107.2970  159.1990 H         1 CJ5         0.0293
     63 H         118.7662  106.3115  160.0524 H         1 CJ5         0.0219
@<TRIPOS>BOND
     1    1    2 2  
     2    2    3 am 
     3    2   14 am 
     4    3    4 1  
     5    4    5 ar 
     6    4   13 ar 
     7    5    6 ar 
     8    6    7 ar 
     9    7    8 ar 
    10    8    9 1  
    11    8   13 ar 
    12    9   10 1  
    13    9   11 1  
    14    9   12 1  
    15   14   15 1  
    16   15   16 ar 
    17   15   18 ar 
    18   16   17 ar 
    19   17   20 ar 
    20   18   19 ar 
    21   19   20 ar 
    22   20   21 1  
    23   21   22 1  
    24   22   23 ar 
    25   22   38 ar 
    26   23   24 ar 
    27   24   25 ar 
    28   25   26 ar 
    29   26   27 1  
    30   26   38 ar 
    31   27   28 1  
    32   28   29 2  
    33   28   37 1  
    34   29   30 1  
    35   30   31 1  
    36   31   32 1  
    37   31   37 2  
    38   32   33 1  
    39   32   36 1  
    40   33   34 1  
    41   34   35 1  
    42   35   36 1  
    43    3   39 1  
    44    5   40 1  
    45    6   41 1  
    46    7   42 1  
    47   13   43 1  
    48   14   44 1  
    49   16   45 1  
    50   17   46 1  
    51   18   47 1  
    52   19   48 1  
    53   21   49 1  
    54   24   50 1  
    55   25   51 1  
    56   27   52 1  
    57   30   53 1  
    58   32   54 1  
    59   33   55 1  
    60   33   56 1  
    61   34   57 1  
    62   34   58 1  
    63   35   59 1  
    64   35   60 1  
    65   36   61 1  
    66   36   62 1  
    67   37   63 1  
@<TRIPOS>SUBSTRUCTURE
     1 CJ5         1

