### 
### Created by X-TOOL on Mon Sep 10 21:13:15 2018
### 

@<TRIPOS>MOLECULE
4j8t_ligand
   62    66     1     0     0
SMALL
GAST_HUCK


@<TRIPOS>ATOM
      1 O23       -12.0240  -30.5510    9.6190 O.2       1 DOG        -0.3870
      2 C23       -11.7260  -31.7090    9.5270 C.2       1 DOG         0.2187
      3 C22       -12.2980  -32.8330   10.1970 C.2       1 DOG         0.0017
      4 O21       -11.0270  -32.0860    8.5490 O.3       1 DOG        -0.2665
      5 C21       -10.8140  -33.3650    8.6670 C.3       1 DOG         0.1204
      6 C20       -11.7170  -33.8530    9.7140 C.2       1 DOG        -0.0063
      7 C17       -12.1320  -35.2140   10.0060 C.3       1 DOG         0.0177
      8 C16       -12.5580  -35.8950    8.7840 C.3       1 DOG        -0.0318
      9 C13       -10.9820  -36.0770   10.6050 C.3       1 DOG         0.0405
     10 C18        -9.8220  -35.2870   11.1960 C.3       1 DOG        -0.0516
     11 C12       -11.5850  -37.0110   11.7050 C.3       1 DOG         0.0664
     12 O12       -11.8980  -36.2560   12.7560 O.3       1 DOG        -0.3909
     13 C14       -10.5890  -36.9240    9.4150 C.3       1 DOG         0.0799
     14 C15       -11.8930  -37.2280    8.8070 C.3       1 DOG        -0.0200
     15 O14        -9.9290  -36.1990    8.5660 O.3       1 DOG        -0.3874
     16 C8         -9.6960  -38.1450    9.8230 C.3       1 DOG        -0.0079
     17 C7         -9.4280  -39.0140    8.6310 C.3       1 DOG        -0.0470
     18 C9        -10.2710  -38.9420   10.9730 C.3       1 DOG        -0.0276
     19 C11       -10.6020  -38.0500   12.1280 C.3       1 DOG        -0.0223
     20 C10        -9.3330  -40.1010   11.3670 C.3       1 DOG        -0.0258
     21 C19        -8.1010  -39.5980   11.9090 C.3       1 DOG        -0.0590
     22 C5         -8.9940  -40.9490   10.1440 C.3       1 DOG        -0.0330
     23 C6         -8.5060  -40.0950    8.9640 C.3       1 DOG        -0.0493
     24 C4        -10.1610  -41.7800    9.6960 C.3       1 DOG        -0.0235
     25 C3        -10.8250  -42.5600   10.8190 C.3       1 DOG         0.0555
     26 O32        -9.9820  -43.5840   11.2700 O.3       1 DOG        -0.3918
     27 C2        -11.1910  -41.6090   11.8930 C.3       1 DOG        -0.0263
     28 C1         -9.9930  -40.9760   12.4060 C.3       1 DOG        -0.0448
     29 H1        -13.0718  -32.8181   10.9631 H         1 DOG         0.0295
     30 H2         -9.7681  -33.5493    8.9536 H         1 DOG         0.0859
     31 H3        -11.0285  -33.8735    7.7155 H         1 DOG         0.0859
     32 H4        -12.9677  -35.1767   10.7203 H         1 DOG         0.0550
     33 H5        -12.2418  -35.3249    7.8980 H         1 DOG         0.0301
     34 H6        -13.6516  -36.0131    8.7730 H         1 DOG         0.0301
     35 H7        -10.1791  -34.6971   12.0531 H         1 DOG         0.0239
     36 H8         -9.4113  -34.6112   10.4314 H         1 DOG         0.0239
     37 H9         -9.0377  -35.9820   11.5305 H         1 DOG         0.0239
     38 H10       -12.4879  -37.5031   11.3144 H         1 DOG         0.0602
     39 H11       -12.5343  -35.6005   12.4954 H         1 DOG         0.2098
     40 H12       -11.7732  -37.6299    7.7901 H         1 DOG         0.0295
     41 H13       -12.4598  -37.9443    9.4199 H         1 DOG         0.0295
     42 H14        -9.0780  -35.9840    8.9292 H         1 DOG         0.2102
     43 H15        -8.7303  -37.7426   10.1629 H         1 DOG         0.0332
     44 H16        -8.9879  -38.4005    7.8311 H         1 DOG         0.0269
     45 H17       -10.3770  -39.4466    8.2814 H         1 DOG         0.0269
     46 H18       -11.2140  -39.3903   10.6270 H         1 DOG         0.0310
     47 H19       -11.0351  -38.6518   12.9405 H         1 DOG         0.0293
     48 H20        -9.6841  -37.5595   12.4841 H         1 DOG         0.0293
     49 H21        -7.4494  -40.4411   12.1822 H         1 DOG         0.0235
     50 H22        -8.3134  -38.9939   12.8034 H         1 DOG         0.0235
     51 H23        -7.5969  -38.9740   11.1563 H         1 DOG         0.0235
     52 H24        -8.1797  -41.6307   10.4307 H         1 DOG         0.0307
     53 H25        -7.5311  -39.6578    9.2257 H         1 DOG         0.0268
     54 H26        -8.3923  -40.7442    8.0833 H         1 DOG         0.0268
     55 H27        -9.8073  -42.4953    8.9389 H         1 DOG         0.0293
     56 H28       -10.9108  -41.1118    9.2473 H         1 DOG         0.0293
     57 H29       -11.7463  -43.0222   10.4348 H         1 DOG         0.0593
     58 H30       -10.4115  -44.0607   11.9705 H         1 DOG         0.2098
     59 H31       -11.6964  -42.1508   12.7061 H         1 DOG         0.0290
     60 H32       -11.8669  -40.8412   11.4884 H         1 DOG         0.0290
     61 H33       -10.2614  -40.3569   13.2747 H         1 DOG         0.0271
     62 H34        -9.2832  -41.7565   12.7173 H         1 DOG         0.0271
@<TRIPOS>BOND
     1    1    2 2  
     2    2    3 1  
     3    2    4 1  
     4    3    6 2  
     5    4    5 1  
     6    5    6 1  
     7    6    7 1  
     8    7    8 1  
     9    7    9 1  
    10    8   14 1  
    11    9   10 1  
    12    9   11 1  
    13    9   13 1  
    14   11   12 1  
    15   11   19 1  
    16   13   14 1  
    17   13   15 1  
    18   13   16 1  
    19   16   17 1  
    20   16   18 1  
    21   17   23 1  
    22   18   19 1  
    23   18   20 1  
    24   20   21 1  
    25   20   22 1  
    26   20   28 1  
    27   22   23 1  
    28   22   24 1  
    29   24   25 1  
    30   25   26 1  
    31   25   27 1  
    32   27   28 1  
    33    3   29 1  
    34    5   30 1  
    35    5   31 1  
    36    7   32 1  
    37    8   33 1  
    38    8   34 1  
    39   10   35 1  
    40   10   36 1  
    41   10   37 1  
    42   11   38 1  
    43   12   39 1  
    44   14   40 1  
    45   14   41 1  
    46   15   42 1  
    47   16   43 1  
    48   17   44 1  
    49   17   45 1  
    50   18   46 1  
    51   19   47 1  
    52   19   48 1  
    53   21   49 1  
    54   21   50 1  
    55   21   51 1  
    56   22   52 1  
    57   23   53 1  
    58   23   54 1  
    59   24   55 1  
    60   24   56 1  
    61   25   57 1  
    62   26   58 1  
    63   27   59 1  
    64   27   60 1  
    65   28   61 1  
    66   28   62 1  
@<TRIPOS>SUBSTRUCTURE
     1 DOG         1

