### 
### Created by X-TOOL on Mon Sep 10 21:13:14 2018
### 

@<TRIPOS>MOLECULE
4j93_ligand
   33    36     1     0     0
SMALL
GAST_HUCK


@<TRIPOS>ATOM
      1 C1         -3.1110    8.1750   10.4200 C.ar      1 1JR        -0.0643
      2 C2         -3.6170    7.5050   11.5330 C.ar      1 1JR        -0.0639
      3 C3         -2.6190    7.4470    9.3350 C.ar      1 1JR        -0.0639
      4 C4         -3.9550    5.1760    5.4670 C.ar      1 1JR        -0.0403
      5 C5         -3.6330    6.1060   11.5540 C.ar      1 1JR        -0.0552
      6 C6         -2.6290    6.0490    9.3570 C.ar      1 1JR        -0.0552
      7 C7         -3.0810    4.5250    6.3330 C.ar      1 1JR        -0.0369
      8 C8         -5.2710    4.7500    5.4150 C.ar      1 1JR         0.0042
      9 C9         -4.8840    3.1180    6.9870 C.ar      1 1JR         0.0161
     10 C10        -3.1440    5.3640   10.4680 C.ar      1 1JR         0.0034
     11 C11        -3.5430    3.4730    7.1350 C.ar      1 1JR         0.0173
     12 C12        -2.9420    2.9530    9.4910 C.2       1 1JR         0.0383
     13 C13        -3.1640    3.9040   10.5110 C.2       1 1JR         0.0972
     14 C14        -3.0790    1.7350   10.1030 C.2       1 1JR         0.1218
     15 C15        -2.8870    0.6500    9.2130 C.2       1 1JR         0.2132
     16 C16        -2.6010    2.7510    8.0580 C.3       1 1JR         0.1069
     17 N17        -5.7590    3.7350    6.1580 N.ar      1 1JR        -0.3042
     18 N18        -3.4260    3.2700   11.6800 N.pl3     1 1JR        -0.2136
     19 N19        -3.3710    1.9470   11.3960 N.2       1 1JR        -0.1928
     20 N20        -2.7510    1.2810    7.9760 N.am      1 1JR        -0.2636
     21 O21        -2.8730   -0.5450    9.4450 O.2       1 1JR        -0.3868
     22 H1         -3.0996    9.2587   10.3971 H         1 1JR         0.0596
     23 H2         -3.9968    8.0660   12.3793 H         1 1JR         0.0611
     24 H3         -2.2267    7.9691    8.4698 H         1 1JR         0.0611
     25 H4         -3.6130    5.9974    4.8478 H         1 1JR         0.0693
     26 H5         -4.0284    5.5886   12.4206 H         1 1JR         0.0602
     27 H6         -2.2376    5.4926    8.5130 H         1 1JR         0.0602
     28 H7         -2.0428    4.8320    6.3870 H         1 1JR         0.0680
     29 H8         -5.9476    5.2606    4.7393 H         1 1JR         0.0766
     30 H9         -5.2523    2.2878    7.5787 H         1 1JR         0.0768
     31 H10        -1.5702    3.0663    7.8388 H         1 1JR         0.0848
     32 H11        -3.6252    3.7035   12.5929 H         1 1JR         0.2550
     33 H12        -2.7546    0.7829    7.1089 H         1 1JR         0.1897
@<TRIPOS>BOND
     1    2    1 ar 
     2    3    1 ar 
     3    5    2 ar 
     4    6    3 ar 
     5    7    4 ar 
     6    4    8 ar 
     7   10    5 ar 
     8   10    6 ar 
     9   11    7 ar 
    10   17    8 ar 
    11   11    9 ar 
    12    9   17 ar 
    13   13   10 1  
    14   16   11 1  
    15   12   13 2  
    16   12   14 1  
    17   12   16 1  
    18   13   18 1  
    19   14   15 1  
    20   14   19 2  
    21   15   20 am 
    22   15   21 2  
    23   16   20 1  
    24   18   19 1  
    25    1   22 1  
    26    2   23 1  
    27    3   24 1  
    28    4   25 1  
    29    5   26 1  
    30    6   27 1  
    31    7   28 1  
    32    8   29 1  
    33    9   30 1  
    34   16   31 1  
    35   18   32 1  
    36   20   33 1  
@<TRIPOS>SUBSTRUCTURE
     1 1JR         1

