### 
### Created by X-TOOL on Mon Sep 10 21:13:16 2018
### 

@<TRIPOS>MOLECULE
4j9a_ligand
   62    66     1     0     0
SMALL
GAST_HUCK


@<TRIPOS>ATOM
      1 O23        -4.8120    3.6040   12.3870 O.2       1 DOG        -0.3870
      2 C23        -5.2660    2.4810   12.3410 C.2       1 DOG         0.2187
      3 C22        -4.6420    1.2110   12.7380 C.2       1 DOG         0.0017
      4 O21        -6.6060    2.2090   11.9050 O.3       1 DOG        -0.2665
      5 C21        -6.8860    0.8260   12.1890 C.3       1 DOG         0.1204
      6 C20        -5.5630    0.2400   12.6490 C.2       1 DOG        -0.0063
      7 C17        -5.2890   -1.2040   12.9830 C.3       1 DOG         0.0177
      8 C16        -6.1970   -1.6430   14.1220 C.3       1 DOG        -0.0318
      9 C13        -5.4480   -2.2660   11.8990 C.3       1 DOG         0.0405
     10 C18        -5.4650   -1.7570   10.4690 C.3       1 DOG        -0.0516
     11 C12        -4.3230   -3.2820   12.0520 C.3       1 DOG         0.0664
     12 O12        -3.1160   -2.6960   11.5400 O.3       1 DOG        -0.3909
     13 C14        -6.7370   -2.9330   12.2540 C.3       1 DOG         0.0799
     14 C15        -6.7720   -2.9900   13.7410 C.3       1 DOG        -0.0200
     15 O14        -7.7250   -1.9760   11.9810 O.3       1 DOG        -0.3874
     16 C8         -7.0120   -4.2530   11.5080 C.3       1 DOG        -0.0079
     17 C7         -8.3250   -4.8960   11.9430 C.3       1 DOG        -0.0470
     18 C9         -5.8960   -5.2670   11.6430 C.3       1 DOG        -0.0276
     19 C11        -4.5580   -4.6150   11.3210 C.3       1 DOG        -0.0223
     20 C10        -6.1740   -6.5320   10.8180 C.3       1 DOG        -0.0258
     21 C19        -6.3090   -6.3180    9.3280 C.3       1 DOG        -0.0590
     22 C5         -7.4470   -7.1790   11.3320 C.3       1 DOG        -0.0330
     23 C6         -8.6220   -6.2340   11.2640 C.3       1 DOG        -0.0493
     24 C4         -7.3470   -7.6550   12.7730 C.3       1 DOG        -0.0235
     25 C3         -6.1230   -8.5450   13.0120 C.3       1 DOG         0.0555
     26 O32        -6.4060   -9.8760   12.5050 O.3       1 DOG        -0.3918
     27 C2         -4.8460   -7.9660   12.3730 C.3       1 DOG        -0.0263
     28 C1         -5.0680   -7.5510   10.9230 C.3       1 DOG        -0.0448
     29 H1         -3.6072    1.0804   13.0513 H         1 DOG         0.0295
     30 H2         -7.2428    0.3108   11.2850 H         1 DOG         0.0859
     31 H3         -7.6428    0.7404   12.9827 H         1 DOG         0.0859
     32 H4         -4.2437   -1.2473   13.3226 H         1 DOG         0.0550
     33 H5         -7.0077   -0.9126   14.2608 H         1 DOG         0.0301
     34 H6         -5.6183   -1.7299   15.0534 H         1 DOG         0.0301
     35 H7         -4.5040   -1.2729   10.2407 H         1 DOG         0.0239
     36 H8         -6.2803   -1.0284   10.3488 H         1 DOG         0.0239
     37 H9         -5.6229   -2.6008    9.7813 H         1 DOG         0.0239
     38 H10        -4.1993   -3.4967   13.1237 H         1 DOG         0.0602
     39 H11        -2.9144   -1.9085   12.0316 H         1 DOG         0.2098
     40 H12        -7.8011   -3.1046   14.1123 H         1 DOG         0.0295
     41 H13        -6.1502   -3.8126   14.1240 H         1 DOG         0.0295
     42 H14        -7.7942   -1.8531   11.0415 H         1 DOG         0.2102
     43 H15        -7.1007   -4.0022   10.4407 H         1 DOG         0.0332
     44 H16        -9.1443   -4.2006   11.7083 H         1 DOG         0.0269
     45 H17        -8.2847   -5.0619   13.0297 H         1 DOG         0.0269
     46 H18        -5.8588   -5.5779   12.6975 H         1 DOG         0.0310
     47 H19        -3.7558   -5.3120   11.6049 H         1 DOG         0.0293
     48 H20        -4.5153   -4.4284   10.2378 H         1 DOG         0.0293
     49 H21        -6.5056   -7.2817    8.8355 H         1 DOG         0.0235
     50 H22        -5.3766   -5.8881    8.9333 H         1 DOG         0.0235
     51 H23        -7.1431   -5.6285    9.1306 H         1 DOG         0.0235
     52 H24        -7.6558   -8.0494   10.6927 H         1 DOG         0.0307
     53 H25        -8.8675   -6.0489   10.2078 H         1 DOG         0.0268
     54 H26        -9.4828   -6.7020   11.7640 H         1 DOG         0.0268
     55 H27        -8.2533   -8.2277   13.0193 H         1 DOG         0.0293
     56 H28        -7.2783   -6.7763   13.4311 H         1 DOG         0.0293
     57 H29        -5.9540   -8.6141   14.0967 H         1 DOG         0.0593
     58 H30        -6.5919   -9.8264   11.5746 H         1 DOG         0.2098
     59 H31        -4.0551   -8.7297   12.4062 H         1 DOG         0.0290
     60 H32        -4.5291   -7.0845   12.9497 H         1 DOG         0.0290
     61 H33        -4.1387   -7.1159   10.5267 H         1 DOG         0.0271
     62 H34        -5.3386   -8.4384   10.3320 H         1 DOG         0.0271
@<TRIPOS>BOND
     1    1    2 2  
     2    2    3 1  
     3    2    4 1  
     4    3    6 2  
     5    4    5 1  
     6    5    6 1  
     7    6    7 1  
     8    7    8 1  
     9    7    9 1  
    10    8   14 1  
    11    9   10 1  
    12    9   11 1  
    13    9   13 1  
    14   11   12 1  
    15   11   19 1  
    16   13   14 1  
    17   13   15 1  
    18   13   16 1  
    19   16   17 1  
    20   16   18 1  
    21   17   23 1  
    22   18   19 1  
    23   18   20 1  
    24   20   21 1  
    25   20   22 1  
    26   20   28 1  
    27   22   23 1  
    28   22   24 1  
    29   24   25 1  
    30   25   26 1  
    31   25   27 1  
    32   27   28 1  
    33    3   29 1  
    34    5   30 1  
    35    5   31 1  
    36    7   32 1  
    37    8   33 1  
    38    8   34 1  
    39   10   35 1  
    40   10   36 1  
    41   10   37 1  
    42   11   38 1  
    43   12   39 1  
    44   14   40 1  
    45   14   41 1  
    46   15   42 1  
    47   16   43 1  
    48   17   44 1  
    49   17   45 1  
    50   18   46 1  
    51   19   47 1  
    52   19   48 1  
    53   21   49 1  
    54   21   50 1  
    55   21   51 1  
    56   22   52 1  
    57   23   53 1  
    58   23   54 1  
    59   24   55 1  
    60   24   56 1  
    61   25   57 1  
    62   26   58 1  
    63   27   59 1  
    64   27   60 1  
    65   28   61 1  
    66   28   62 1  
@<TRIPOS>SUBSTRUCTURE
     1 DOG         1

