### 
### Created by X-TOOL on Mon Sep 10 21:13:15 2018
### 

@<TRIPOS>MOLECULE
4jai_ligand
   49    53     1     0     0
SMALL
GAST_HUCK


@<TRIPOS>ATOM
      1 O12        -3.9670  -34.2600    4.6070 O.2       1 XU2        -0.3837
      2 C8         -4.3490  -33.2850    5.1070 C.2       1 XU2         0.2298
      3 C7         -4.8950  -32.1210    4.4420 C.ar      1 XU2         0.0574
      4 C6         -5.0150  -32.0340    3.0820 C.ar      1 XU2        -0.0453
      5 C5         -5.5670  -30.9480    2.4370 C.ar      1 XU2        -0.0600
      6 C1         -6.0160  -29.9210    3.2160 C.ar      1 XU2        -0.0613
      7 C2         -5.8480  -30.0220    4.5940 C.ar      1 XU2        -0.0544
      8 C3         -5.3230  -31.1340    5.2110 C.ar      1 XU2        -0.0032
      9 C4         -5.1650  -31.2920    6.6150 C.ar      1 XU2         0.0583
     10 N1         -4.2160  -33.3880    6.3750 N.am      1 XU2        -0.2176
     11 C9         -4.6090  -32.3870    7.1780 C.ar      1 XU2         0.1405
     12 N2         -4.3850  -32.6160    8.4760 N.ar      1 XU2        -0.2989
     13 C10        -4.6790  -31.6400    9.2750 C.ar      1 XU2        -0.0180
     14 C11        -5.2230  -30.4930    8.8310 C.ar      1 XU2        -0.0262
     15 C12        -5.4490  -30.3320    7.4930 C.ar      1 XU2         0.0742
     16 N3         -6.0590  -29.2090    7.0100 N.pl3     1 XU2        -0.2755
     17 C13        -7.1550  -28.6290    7.7030 C.ar      1 XU2         0.0478
     18 C14        -8.3450  -29.2220    8.1340 C.ar      1 XU2        -0.0507
     19 C15        -9.2700  -28.4380    8.8480 C.ar      1 XU2        -0.0495
     20 C18        -6.9540  -27.2920    8.0110 C.ar      1 XU2        -0.0507
     21 C17        -7.8330  -26.5270    8.7230 C.ar      1 XU2        -0.0495
     22 C16        -9.0010  -27.1070    9.1640 C.ar      1 XU2         0.0554
     23 N4         -9.8200  -26.1810    9.8750 N.am      1 XU2        -0.2394
     24 C19        -9.6610  -24.7700   10.1670 C.2       1 XU2         0.2295
     25 O38        -9.1640  -23.7580    9.5590 O.2       1 XU2        -0.3745
     26 C20       -10.4340  -24.5710   11.4360 C.ar      1 XU2         0.0554
     27 C21       -11.0630  -23.3260   11.7190 C.ar      1 XU2        -0.0416
     28 C22       -11.8630  -23.1550   12.8440 C.ar      1 XU2        -0.0562
     29 C23       -12.0090  -24.2610   13.6730 C.ar      1 XU2        -0.0576
     30 C24       -11.3980  -25.4900   13.4150 C.ar      1 XU2        -0.0562
     31 C25       -10.6330  -25.6870   12.2720 C.ar      1 XU2        -0.0416
     32 H1         -4.6575  -32.8619    2.4805 H         1 XU2         0.0658
     33 H2         -5.6414  -30.9111    1.3562 H         1 XU2         0.0598
     34 H3         -6.4897  -29.0518    2.7742 H         1 XU2         0.0641
     35 H4         -6.1457  -29.1826    5.2119 H         1 XU2         0.0600
     36 H5         -3.8182  -34.2165    6.7690 H         1 XU2         0.2364
     37 H6         -4.4804  -31.7511   10.3348 H         1 XU2         0.0746
     38 H7         -5.4798  -29.7036    9.5281 H         1 XU2         0.0501
     39 H8         -5.7216  -28.7796    6.1367 H         1 XU2         0.2098
     40 H9         -8.5512  -30.2650    7.9225 H         1 XU2         0.0501
     41 H10       -10.2108  -28.8778    9.1586 H         1 XU2         0.0479
     42 H11        -6.0399  -26.8238    7.6641 H         1 XU2         0.0501
     43 H12        -7.6159  -25.4866    8.9361 H         1 XU2         0.0479
     44 H13       -10.6612  -26.5795   10.2404 H         1 XU2         0.2218
     45 H14       -10.9153  -22.4921   11.0424 H         1 XU2         0.0669
     46 H15       -12.3467  -22.2098   13.0625 H         1 XU2         0.0629
     47 H16       -12.6249  -24.1653   14.5599 H         1 XU2         0.0652
     48 H17       -11.5228  -26.3048   14.1190 H         1 XU2         0.0629
     49 H18       -10.2085  -26.6557   12.0344 H         1 XU2         0.0669
@<TRIPOS>BOND
     1    1    2 2  
     2    2    3 1  
     3    2   10 am 
     4    3    4 ar 
     5    3    8 ar 
     6    4    5 ar 
     7    5    6 ar 
     8    6    7 ar 
     9    7    8 ar 
    10    8    9 1  
    11    9   11 ar 
    12    9   15 ar 
    13   10   11 1  
    14   11   12 ar 
    15   12   13 ar 
    16   13   14 ar 
    17   14   15 ar 
    18   15   16 1  
    19   16   17 1  
    20   17   18 ar 
    21   17   20 ar 
    22   18   19 ar 
    23   19   22 ar 
    24   20   21 ar 
    25   21   22 ar 
    26   22   23 1  
    27   23   24 am 
    28   24   25 2  
    29   24   26 1  
    30   26   27 ar 
    31   26   31 ar 
    32   27   28 ar 
    33   28   29 ar 
    34   29   30 ar 
    35   30   31 ar 
    36    4   32 1  
    37    5   33 1  
    38    6   34 1  
    39    7   35 1  
    40   10   36 1  
    41   13   37 1  
    42   14   38 1  
    43   16   39 1  
    44   18   40 1  
    45   19   41 1  
    46   20   42 1  
    47   21   43 1  
    48   23   44 1  
    49   27   45 1  
    50   28   46 1  
    51   29   47 1  
    52   30   48 1  
    53   31   49 1  
@<TRIPOS>SUBSTRUCTURE
     1 XU2         1

