### 
### Created by X-TOOL on Mon Sep 10 21:13:15 2018
### 

@<TRIPOS>MOLECULE
4jaj_ligand
   23    25     1     0     0
SMALL
GAST_HUCK


@<TRIPOS>ATOM
      1 C11        -5.7120  -30.1240    3.4730 C.ar      1 XU1        -0.0589
      2 C12        -5.6200  -30.0330    4.8690 C.ar      1 XU1        -0.0509
      3 C8         -4.9410  -31.0610    5.4390 C.ar      1 XU1         0.0029
      4 C1         -4.8580  -31.0160    6.8830 C.ar      1 XU1         0.0374
      5 C10        -5.1240  -31.1930    2.7480 C.ar      1 XU1        -0.0579
      6 C9         -4.4300  -32.2100    3.4070 C.ar      1 XU1        -0.0429
      7 C7         -4.3530  -32.1030    4.7670 C.ar      1 XU1         0.0611
      8 C6         -3.6480  -33.0940    5.6190 C.2       1 XU1         0.2323
      9 O1         -3.0290  -34.0860    5.2040 O.2       1 XU1        -0.3820
     10 N2         -3.6260  -32.9770    6.9320 N.am      1 XU1        -0.2140
     11 C5         -4.1970  -31.9900    7.5850 C.ar      1 XU1         0.1538
     12 N1         -4.0920  -31.9490    8.9170 N.ar      1 XU1        -0.2811
     13 C4         -4.6730  -30.9450    9.5720 C.ar      1 XU1        -0.0052
     14 C3         -5.3490  -29.9520    8.8780 C.ar      1 XU1        -0.0481
     15 C2         -5.4440  -29.9720    7.5290 C.ar      1 XU1        -0.0458
     16 H1         -6.2488  -29.3541    2.9307 H         1 XU1         0.0647
     17 H2         -6.0507  -29.2182    5.4397 H         1 XU1         0.0621
     18 H3         -5.2148  -31.2205    1.6682 H         1 XU1         0.0616
     19 H4         -3.9784  -33.0366    2.8705 H         1 XU1         0.0664
     20 H5         -3.1480  -33.6786    7.4605 H         1 XU1         0.2369
     21 H6         -4.6172  -30.9037   10.6538 H         1 XU1         0.0784
     22 H7         -5.8116  -29.1416    9.4295 H         1 XU1         0.0586
     23 H8         -5.9641  -29.1907    6.9866 H         1 XU1         0.0705
@<TRIPOS>BOND
     1    1    2 ar 
     2    1    5 ar 
     3    2    3 ar 
     4    3    4 1  
     5    3    7 ar 
     6    4   11 ar 
     7    4   15 ar 
     8    5    6 ar 
     9    6    7 ar 
    10    7    8 1  
    11    8    9 2  
    12    8   10 am 
    13   10   11 1  
    14   11   12 ar 
    15   12   13 ar 
    16   13   14 ar 
    17   14   15 ar 
    18    1   16 1  
    19    2   17 1  
    20    5   18 1  
    21    6   19 1  
    22   10   20 1  
    23   13   21 1  
    24   14   22 1  
    25   15   23 1  
@<TRIPOS>SUBSTRUCTURE
     1 XU1         1

