### 
### Created by X-TOOL on Mon Sep 10 21:13:15 2018
### 

@<TRIPOS>MOLECULE
4jal_ligand
   46    48     1     0     0
SMALL
GAST_HUCK


@<TRIPOS>ATOM
      1 N           2.1330   13.6740   16.4560 N.4       1 SAH         0.2327
      2 CA          1.8710   12.5410   17.3370 C.3       1 SAH         0.0291
      3 CB          3.0730   12.3290   18.2290 C.3       1 SAH         0.0114
      4 CG          3.7110   11.0060   17.8650 C.3       1 SAH         0.0005
      5 SD          5.4810   11.0610   18.1350 S.3       1 SAH        -0.1578
      6 C           0.6270   12.7290   18.1920 C.2       1 SAH         0.0844
      7 O           0.0510   11.7590   18.6840 O.co2     1 SAH        -0.5643
      8 OXT         0.1750   13.8530   18.4130 O.co2     1 SAH        -0.5643
      9 C5'         5.1730   10.0030   19.5670 C.3       1 SAH         0.0226
     10 C4'         5.7480    8.6020   19.4340 C.3       1 SAH         0.0995
     11 O4'         5.1320    7.8950   18.3740 O.3       1 SAH        -0.3383
     12 C3'         7.2360    8.6130   19.1060 C.3       1 SAH         0.1132
     13 O3'         8.0040    8.7940   20.2610 O.3       1 SAH        -0.3864
     14 C2'         7.4290    7.2440   18.5050 C.3       1 SAH         0.1385
     15 O2'         7.6100    6.2780   19.5240 O.3       1 SAH        -0.3836
     16 C1'         6.0820    6.9880   17.8450 C.3       1 SAH         0.2009
     17 N9          6.2010    7.2030   16.3860 N.pl3     1 SAH        -0.1919
     18 C8          5.6260    8.1720   15.6150 C.2       1 SAH         0.1123
     19 N7          5.9980    7.9790   14.3300 N.2       1 SAH        -0.2958
     20 C5          6.8020    6.8940   14.2740 C.ar      1 SAH         0.1045
     21 C6          7.4620    6.2520   13.2300 C.ar      1 SAH         0.1298
     22 N6          7.3630    6.6920   11.9710 N.pl3     1 SAH        -0.3152
     23 N1          8.2310    5.1450   13.5190 N.ar      1 SAH        -0.2698
     24 C2          8.3570    4.6770   14.8090 C.ar      1 SAH         0.0533
     25 N3          7.6900    5.3190   15.8340 N.ar      1 SAH        -0.2714
     26 C4          6.9330    6.4010   15.5660 C.ar      1 SAH         0.1613
     27 H1          2.9651   13.4945   15.9162 H         1 SAH         0.2010
     28 H2          2.2644   14.5064   17.0091 H         1 SAH         0.2010
     29 H3          1.3506   13.8039   15.8339 H         1 SAH         0.2010
     30 H4          1.7260   11.6460   16.7142 H         1 SAH         0.1024
     31 H5          2.7555   12.3110   19.2820 H         1 SAH         0.0347
     32 H6          3.7961   13.1440   18.0779 H         1 SAH         0.0347
     33 H7          3.5141   10.7898   16.8046 H         1 SAH         0.0379
     34 H8          3.2752   10.2113   18.4884 H         1 SAH         0.0379
     35 H9          4.0853    9.9188   19.7077 H         1 SAH         0.0402
     36 H10         5.6214   10.4786   20.4517 H         1 SAH         0.0402
     37 H11         5.5847    8.0681   20.3818 H         1 SAH         0.0632
     38 H12         7.4799    9.4024   18.3799 H         1 SAH         0.0647
     39 H13         7.8313    8.0849   20.8691 H         1 SAH         0.2100
     40 H14         8.2626    7.2203   17.7878 H         1 SAH         0.0676
     41 H15         8.3770    6.5015   20.0381 H         1 SAH         0.2101
     42 H16         5.7611    5.9546   18.0427 H         1 SAH         0.0996
     43 H17         4.9759    8.9679   15.9754 H         1 SAH         0.1349
     44 H18         7.8599    6.2018   11.2136 H         1 SAH         0.1820
     45 H19         6.7899    7.5211   11.7588 H         1 SAH         0.1820
     46 H20         8.9751    3.8113   15.0178 H         1 SAH         0.0996
@<TRIPOS>BOND
     1    1    2 1  
     2    2    3 1  
     3    2    6 1  
     4    3    4 1  
     5    4    5 1  
     6    5    9 1  
     7    6    7 ar 
     8    6    8 ar 
     9    9   10 1  
    10   10   11 1  
    11   10   12 1  
    12   11   16 1  
    13   12   13 1  
    14   12   14 1  
    15   14   15 1  
    16   14   16 1  
    17   16   17 1  
    18   17   18 1  
    19   17   26 1  
    20   18   19 2  
    21   19   20 1  
    22   20   21 ar 
    23   20   26 ar 
    24   21   22 1  
    25   21   23 ar 
    26   23   24 ar 
    27   24   25 ar 
    28   25   26 ar 
    29    1   27 1  
    30    1   28 1  
    31    1   29 1  
    32    2   30 1  
    33    3   31 1  
    34    3   32 1  
    35    4   33 1  
    36    4   34 1  
    37    9   35 1  
    38    9   36 1  
    39   10   37 1  
    40   12   38 1  
    41   13   39 1  
    42   14   40 1  
    43   15   41 1  
    44   16   42 1  
    45   18   43 1  
    46   22   44 1  
    47   22   45 1  
    48   24   46 1  
@<TRIPOS>SUBSTRUCTURE
     1 SAH         1

