### 
### Created by X-TOOL on Mon Sep 10 21:13:20 2018
### 

@<TRIPOS>MOLECULE
4jaz_ligand
   29    30     1     0     0
SMALL
GAST_HUCK


@<TRIPOS>ATOM
      1 C1         15.8670   19.4060    9.8370 C.ar      1 STL         0.0782
      2 C2         14.4270   19.4980    9.8600 C.ar      1 STL        -0.0066
      3 C3         13.8340   20.7400    9.4010 C.ar      1 STL         0.0782
      4 C4         14.6700   21.8450    8.9410 C.ar      1 STL        -0.0400
      5 C5         16.1150   21.7000    8.9210 C.ar      1 STL        -0.0478
      6 C6         16.7160   20.4740    9.3740 C.ar      1 STL        -0.0400
      7 C7         17.0230   22.7370    8.4410 C.2       1 STL        -0.0650
      8 C8         16.5370   23.9320    7.8390 C.2       1 STL        -0.0614
      9 C9         17.3800   24.9920    7.3160 C.ar      1 STL        -0.0332
     10 C10        18.8390   24.9170    7.3580 C.ar      1 STL        -0.0606
     11 C11        19.6290   26.0230    6.8040 C.ar      1 STL        -0.0298
     12 C12        18.9470   27.1540    6.2310 C.ar      1 STL         0.0914
     13 C13        17.4920   27.2470    6.1790 C.ar      1 STL        -0.0298
     14 C14        16.7420   26.1330    6.7380 C.ar      1 STL        -0.0606
     15 O1         19.6270   28.2120    5.6990 O.3       1 STL        -0.3305
     16 O2         12.4710   20.5070    9.4390 O.3       1 STL        -0.3363
     17 O3         16.3430   18.2240   10.2830 O.3       1 STL        -0.3363
     18 H          13.8140   18.6735   10.2058 H         1 STL         0.0461
     19 H          14.2129   22.7723    8.6149 H         1 STL         0.0441
     20 H          17.7935   20.3553    9.3671 H         1 STL         0.0441
     21 H          18.0974   22.5932    8.5458 H         1 STL         0.0564
     22 H          15.4580   24.0599    7.7657 H         1 STL         0.0617
     23 H          19.3317   24.0550    7.7930 H         1 STL         0.0608
     24 H          20.7122   25.9887    6.8260 H         1 STL         0.0554
     25 H          16.9933   28.1057    5.7443 H         1 STL         0.0554
     26 H          15.6588   26.1695    6.7154 H         1 STL         0.0608
     27 H          20.5612   28.0593    5.7794 H         1 STL         0.2500
     28 H          12.0512   21.1753    9.9679 H         1 STL         0.2476
     29 H          16.8392   17.8024    9.5913 H         1 STL         0.2476
@<TRIPOS>BOND
     1    1    2 ar 
     2    1    6 ar 
     3    1   17 1  
     4    2    3 ar 
     5    3    4 ar 
     6    3   16 1  
     7    4    5 ar 
     8    5    6 ar 
     9    5    7 1  
    10    7    8 2  
    11    8    9 1  
    12    9   10 ar 
    13    9   14 ar 
    14   10   11 ar 
    15   11   12 ar 
    16   12   13 ar 
    17   12   15 1  
    18   13   14 ar 
    19    2   18 1  
    20    4   19 1  
    21    6   20 1  
    22    7   21 1  
    23    8   22 1  
    24   10   23 1  
    25   11   24 1  
    26   13   25 1  
    27   14   26 1  
    28   15   27 1  
    29   16   28 1  
    30   17   29 1  
@<TRIPOS>SUBSTRUCTURE
     1 STL         1

