### 
### Created by X-TOOL on Mon Sep 10 21:13:13 2018
### 

@<TRIPOS>MOLECULE
4jbl_ligand
   20    19     1     0     0
SMALL
GAST_HUCK


@<TRIPOS>ATOM
      1 N         -15.1820   26.3450    0.8650 N.4       1 MET         0.2327
      2 CA        -15.4060   25.2420    1.8980 C.3       1 MET         0.0291
      3 C         -14.1190   24.4750    2.1820 C.2       1 MET         0.0844
      4 O         -14.0860   23.2800    2.4460 O.co2     1 MET        -0.5643
      5 CB        -16.5440   24.3850    1.4270 C.3       1 MET         0.0114
      6 CG        -17.7540   25.2960    1.2140 C.3       1 MET         0.0001
      7 SD        -19.0500   24.5040    0.2350 S.3       1 MET        -0.1638
      8 CE        -18.4210   24.5600   -1.4790 C.3       1 MET        -0.0181
      9 OXT       -13.0380   25.0760    2.1260 O.co2     1 MET        -0.5643
     10 H1        -16.0491   26.8318    0.6999 H         1 MET         0.2010
     11 H2        -14.8564   25.9368    0.0028 H         1 MET         0.2010
     12 H3        -14.4928   26.9942    1.2107 H         1 MET         0.2010
     13 H4        -15.7137   25.7138    2.8428 H         1 MET         0.1024
     14 H5        -16.7777   23.6227    2.1848 H         1 MET         0.0347
     15 H6        -16.2753   23.8917    0.4813 H         1 MET         0.0347
     16 H7        -17.4234   26.2059    0.6918 H         1 MET         0.0379
     17 H8        -18.1691   25.5671    2.1959 H         1 MET         0.0379
     18 H9        -19.1540   24.0939   -2.1539 H         1 MET         0.0340
     19 H10       -17.4685   24.0130   -1.5381 H         1 MET         0.0340
     20 H11       -18.2619   25.6068   -1.7772 H         1 MET         0.0340
@<TRIPOS>BOND
     1    1    2 1  
     2    2    3 1  
     3    2    5 1  
     4    3    4 ar 
     5    3    9 ar 
     6    5    6 1  
     7    6    7 1  
     8    7    8 1  
     9    1   10 1  
    10    1   11 1  
    11    1   12 1  
    12    2   13 1  
    13    5   14 1  
    14    5   15 1  
    15    6   16 1  
    16    6   17 1  
    17    8   18 1  
    18    8   19 1  
    19    8   20 1  
@<TRIPOS>SUBSTRUCTURE
     1 MET         1

