### 
### Created by X-TOOL on Mon Sep 10 21:13:15 2018
### 

@<TRIPOS>MOLECULE
4jbo_ligand
   73    77     1     0     0
SMALL
GAST_HUCK


@<TRIPOS>ATOM
      1 C35        -0.3580  -37.7430   -0.2280 C.3       1 WPH        -0.0433
      2 N36        -0.8140  -37.4240    1.1390 N.4       1 WPH         0.2328
      3 C39        -1.8140  -38.4010    1.6240 C.3       1 WPH        -0.0433
      4 C37         0.3440  -37.3860    2.0540 C.3       1 WPH        -0.0038
      5 C38         0.0170  -36.4670    3.2330 C.3       1 WPH         0.1107
      6 O34        -0.6120  -35.2720    2.7170 O.3       1 WPH        -0.3114
      7 C9         -1.2470  -34.4650    3.6170 C.ar      1 WPH         0.0933
      8 C10        -1.0630  -34.6130    4.9890 C.ar      1 WPH        -0.0312
      9 C11        -1.7230  -33.7600    5.8700 C.ar      1 WPH        -0.0588
     10 C8         -2.0910  -33.4580    3.1430 C.ar      1 WPH        -0.0312
     11 C7         -2.7570  -32.6020    4.0250 C.ar      1 WPH        -0.0588
     12 C6         -2.5690  -32.7480    5.4030 C.ar      1 WPH         0.0059
     13 C2         -3.2200  -31.9410    6.3390 C.2       1 WPH         0.1227
     14 O3         -2.9480  -32.1060    7.6650 O.3       1 WPH        -0.2357
     15 C1         -4.1580  -30.9880    6.1990 C.2       1 WPH        -0.0314
     16 C5         -4.4770  -30.5270    7.4180 C.ar      1 WPH         0.0614
     17 C4         -3.7150  -31.2300    8.3490 C.ar      1 WPH         0.1962
     18 N12        -3.8280  -30.9780    9.6600 N.ar      1 WPH        -0.2647
     19 C13        -4.6730  -30.0520   10.0850 C.ar      1 WPH         0.0534
     20 N14        -5.4180  -29.3560    9.2400 N.ar      1 WPH        -0.2705
     21 C15        -5.3570  -29.5580    7.9120 C.ar      1 WPH         0.1234
     22 N40        -6.1470  -28.8320    7.1210 N.pl3     1 WPH        -0.2994
     23 C16        -6.9990  -27.7540    7.6680 C.3       1 WPH         0.0377
     24 C17        -8.4130  -28.2390    8.0190 C.3       1 WPH        -0.0053
     25 C18        -9.2530  -27.0500    8.5060 C.ar      1 WPH        -0.0557
     26 C23       -10.2150  -26.4720    7.6810 C.ar      1 WPH        -0.0733
     27 C22       -10.9610  -25.3800    8.1220 C.ar      1 WPH        -0.0476
     28 C19        -9.0390  -26.5220    9.7760 C.ar      1 WPH        -0.0733
     29 C20        -9.7860  -25.4350   10.2220 C.ar      1 WPH        -0.0476
     30 C21       -10.7390  -24.8430    9.3950 C.ar      1 WPH         0.0605
     31 N24       -11.4570  -23.8120    9.8750 N.am      1 WPH        -0.2181
     32 C25       -11.7590  -22.6860    9.2090 C.2       1 WPH         0.3152
     33 O33       -11.3650  -22.4670    8.0640 O.2       1 WPH        -0.3810
     34 N26       -12.5210  -21.8190    9.8960 N.am      1 WPH        -0.2146
     35 C27       -12.9760  -20.6320    9.4570 C.ar      1 WPH         0.0671
     36 C28       -13.6420  -19.8140   10.3710 C.ar      1 WPH        -0.0415
     37 C29       -14.1560  -18.5760    9.9960 C.ar      1 WPH        -0.0757
     38 C30       -14.0110  -18.1450    8.6830 C.ar      1 WPH        -0.0773
     39 C31       -13.3570  -18.9530    7.7570 C.ar      1 WPH        -0.0757
     40 C32       -12.8450  -20.1930    8.1390 C.ar      1 WPH        -0.0415
     41 H1         -1.2236  -37.7703   -0.9062 H         1 WPH         0.0777
     42 H2          0.1396  -38.7240   -0.2290 H         1 WPH         0.0777
     43 H3          0.3497  -36.9725   -0.5676 H         1 WPH         0.0777
     44 H4         -1.2440  -36.5124    1.1253 H         1 WPH         0.2029
     45 H5         -2.1278  -38.1294    2.6427 H         1 WPH         0.0777
     46 H6         -1.3692  -39.4070    1.6333 H         1 WPH         0.0777
     47 H7         -2.6884  -38.3928    0.9566 H         1 WPH         0.0777
     48 H8          1.2244  -37.0004    1.5190 H         1 WPH         0.0841
     49 H9          0.5550  -38.4001    2.4243 H         1 WPH         0.0841
     50 H10         0.9425  -36.2002    3.7643 H         1 WPH         0.0669
     51 H11        -0.6683  -36.9789    3.9246 H         1 WPH         0.0669
     52 H12        -0.4088  -35.3889    5.3699 H         1 WPH         0.0549
     53 H13        -1.5787  -33.8823    6.9374 H         1 WPH         0.0598
     54 H14        -2.2317  -33.3384    2.0748 H         1 WPH         0.0549
     55 H15        -3.4151  -31.8299    3.6431 H         1 WPH         0.0598
     56 H16        -4.5858  -30.6482    5.2570 H         1 WPH         0.0374
     57 H17        -4.7570  -29.8591   11.1484 H         1 WPH         0.0984
     58 H18        -6.1644  -29.0255    6.1095 H         1 WPH         0.1865
     59 H19        -7.0775  -26.9525    6.9187 H         1 WPH         0.0546
     60 H20        -6.5258  -27.3591    8.5791 H         1 WPH         0.0546
     61 H21        -8.3543  -28.9970    8.8139 H         1 WPH         0.0418
     62 H22        -8.8823  -28.6789    7.1267 H         1 WPH         0.0418
     63 H23       -10.3848  -26.8742    6.6888 H         1 WPH         0.0520
     64 H24       -11.7157  -24.9454    7.4765 H         1 WPH         0.0486
     65 H25        -8.2863  -26.9597   10.4216 H         1 WPH         0.0520
     66 H26        -9.6250  -25.0458   11.2209 H         1 WPH         0.0486
     67 H27       -11.7965  -23.8912   10.8123 H         1 WPH         0.2239
     68 H28       -12.7753  -22.0824   10.8266 H         1 WPH         0.2262
     69 H29       -13.7615  -20.1500   11.3947 H         1 WPH         0.0501
     70 H30       -14.6653  -17.9531   10.7224 H         1 WPH         0.0577
     71 H31       -14.4061  -17.1820    8.3805 H         1 WPH         0.0486
     72 H32       -13.2449  -18.6164    6.7327 H         1 WPH         0.0577
     73 H33       -12.3434  -20.8180    7.4091 H         1 WPH         0.0501
@<TRIPOS>BOND
     1    1    2 1  
     2    2    3 1  
     3    2    4 1  
     4    4    5 1  
     5    5    6 1  
     6    6    7 1  
     7    7    8 ar 
     8    7   10 ar 
     9    8    9 ar 
    10    9   12 ar 
    11   10   11 ar 
    12   11   12 ar 
    13   12   13 1  
    14   13   14 1  
    15   13   15 2  
    16   14   17 1  
    17   15   16 1  
    18   16   17 ar 
    19   16   21 ar 
    20   17   18 ar 
    21   18   19 ar 
    22   19   20 ar 
    23   20   21 ar 
    24   21   22 1  
    25   22   23 1  
    26   23   24 1  
    27   24   25 1  
    28   25   26 ar 
    29   25   28 ar 
    30   26   27 ar 
    31   27   30 ar 
    32   28   29 ar 
    33   29   30 ar 
    34   30   31 1  
    35   31   32 am 
    36   32   33 2  
    37   32   34 am 
    38   34   35 1  
    39   35   36 ar 
    40   35   40 ar 
    41   36   37 ar 
    42   37   38 ar 
    43   38   39 ar 
    44   39   40 ar 
    45    1   41 1  
    46    1   42 1  
    47    1   43 1  
    48    2   44 1  
    49    3   45 1  
    50    3   46 1  
    51    3   47 1  
    52    4   48 1  
    53    4   49 1  
    54    5   50 1  
    55    5   51 1  
    56    8   52 1  
    57    9   53 1  
    58   10   54 1  
    59   11   55 1  
    60   15   56 1  
    61   19   57 1  
    62   22   58 1  
    63   23   59 1  
    64   23   60 1  
    65   24   61 1  
    66   24   62 1  
    67   26   63 1  
    68   27   64 1  
    69   28   65 1  
    70   29   66 1  
    71   31   67 1  
    72   34   68 1  
    73   36   69 1  
    74   37   70 1  
    75   38   71 1  
    76   39   72 1  
    77   40   73 1  
@<TRIPOS>SUBSTRUCTURE
     1 WPH         1

