### 
### Created by X-TOOL on Mon Sep 10 21:13:15 2018
### 

@<TRIPOS>MOLECULE
4jbp_ligand
   81    86     1     0     0
SMALL
GAST_HUCK


@<TRIPOS>ATOM
      1 C38         1.5620   38.5130    2.2140 C.3       1 YPH        -0.0294
      2 C39         2.7080   38.8140    1.2540 C.3       1 YPH         0.0137
      3 C40         2.2220   39.5470   -0.0120 C.3       1 YPH         0.0649
      4 O43         3.2860   39.6140   -0.9720 O.3       1 YPH        -0.3914
      5 C41         1.0180   38.8170   -0.6280 C.3       1 YPH         0.0137
      6 C42        -0.0520   38.5450    0.4350 C.3       1 YPH        -0.0294
      7 N35         0.5300   37.7310    1.5160 N.4       1 YPH         0.2373
      8 C36        -0.5220   37.3180    2.4510 C.3       1 YPH        -0.0033
      9 C37         0.0520   36.3780    3.5020 C.3       1 YPH         0.1107
     10 O34         0.8320   35.3130    2.8700 O.3       1 YPH        -0.3114
     11 C9          1.4900   34.5080    3.7430 C.ar      1 YPH         0.0933
     12 C8          2.3320   33.5130    3.2510 C.ar      1 YPH        -0.0312
     13 C7          3.0100   32.6740    4.1330 C.ar      1 YPH        -0.0588
     14 C10         1.3180   34.6620    5.1200 C.ar      1 YPH        -0.0312
     15 C11         2.0080   33.8320    5.9950 C.ar      1 YPH        -0.0588
     16 C6          2.8490   32.8260    5.5140 C.ar      1 YPH         0.0059
     17 C2          3.5070   32.0080    6.4380 C.2       1 YPH         0.1227
     18 O3          3.2800   32.2240    7.7600 O.3       1 YPH        -0.2357
     19 C1          4.3990   31.0020    6.2970 C.2       1 YPH        -0.0314
     20 C5          4.7320   30.5710    7.5300 C.ar      1 YPH         0.0614
     21 C4          4.0220   31.3440    8.4570 C.ar      1 YPH         0.1962
     22 N12         4.1360   31.1470    9.7720 N.ar      1 YPH        -0.2647
     23 C13         4.9400   30.1920   10.2170 C.ar      1 YPH         0.0534
     24 N14         5.6390   29.4330    9.3820 N.ar      1 YPH        -0.2705
     25 C15         5.5790   29.5860    8.0440 C.ar      1 YPH         0.1234
     26 N44         6.3330   28.7870    7.2760 N.pl3     1 YPH        -0.2994
     27 C16         7.1850   27.7220    7.8720 C.3       1 YPH         0.0377
     28 C17         8.5440   28.2650    8.3840 C.3       1 YPH        -0.0053
     29 C18         9.4290   27.1050    8.8600 C.ar      1 YPH        -0.0557
     30 C19         9.2820   26.6070   10.1490 C.ar      1 YPH        -0.0733
     31 C20        10.0590   25.5510   10.6120 C.ar      1 YPH        -0.0476
     32 C23        10.3720   26.5270    8.0180 C.ar      1 YPH        -0.0733
     33 C22        11.1420   25.4590    8.4760 C.ar      1 YPH        -0.0476
     34 C21        10.9880   24.9550    9.7740 C.ar      1 YPH         0.0605
     35 N24        11.7440   23.9450   10.2470 N.am      1 YPH        -0.2181
     36 C25        11.9340   22.7720    9.6150 C.2       1 YPH         0.3152
     37 O33        11.3930   22.5110    8.5460 O.2       1 YPH        -0.3810
     38 N26        12.7550   21.9000   10.2220 N.am      1 YPH        -0.2146
     39 C27        13.0860   20.6890    9.7520 C.ar      1 YPH         0.0671
     40 C28        14.0170   19.9400   10.4750 C.ar      1 YPH        -0.0415
     41 C29        14.4170   18.6750   10.0450 C.ar      1 YPH        -0.0757
     42 C30        13.8870   18.1470    8.8710 C.ar      1 YPH        -0.0773
     43 C31        12.9570   18.8880    8.1420 C.ar      1 YPH        -0.0757
     44 C32        12.5600   20.1540    8.5780 C.ar      1 YPH        -0.0415
     45 H1          1.1264   39.4573    2.5726 H         1 YPH         0.0815
     46 H2          1.9426   37.9363    3.0699 H         1 YPH         0.0815
     47 H3          3.1805   37.8663    0.9565 H         1 YPH         0.0342
     48 H4          3.4463   39.4461    1.7691 H         1 YPH         0.0342
     49 H5          1.9189   40.5684    0.2614 H         1 YPH         0.0597
     50 H6          2.9812   40.0664   -1.7498 H         1 YPH         0.2098
     51 H7          1.3549   37.8605   -1.0542 H         1 YPH         0.0342
     52 H8          0.5858   39.4412   -1.4240 H         1 YPH         0.0342
     53 H9         -0.8932   38.0024   -0.0210 H         1 YPH         0.0815
     54 H10        -0.4115   39.4995    0.8469 H         1 YPH         0.0815
     55 H11         0.9547   36.9081    1.1180 H         1 YPH         0.2034
     56 H12        -1.3190   36.8008    1.8967 H         1 YPH         0.0841
     57 H13        -0.9380   38.2075    2.9467 H         1 YPH         0.0841
     58 H14        -0.7729   35.9302    4.0756 H         1 YPH         0.0669
     59 H15         0.7030   36.9488    4.1806 H         1 YPH         0.0669
     60 H16         2.4597   33.3915    2.1814 H         1 YPH         0.0549
     61 H17         3.6646   31.9007    3.7475 H         1 YPH         0.0598
     62 H18         0.6501   35.4245    5.5041 H         1 YPH         0.0549
     63 H19         1.8921   33.9669    7.0643 H         1 YPH         0.0598
     64 H20         4.7804   30.6098    5.3554 H         1 YPH         0.0374
     65 H21         5.0286   30.0274   11.2848 H         1 YPH         0.0984
     66 H22         6.3226   28.9125    6.2537 H         1 YPH         0.1865
     67 H23         7.3773   26.9550    7.1073 H         1 YPH         0.0546
     68 H24         6.6450   27.2700    8.7170 H         1 YPH         0.0546
     69 H25         8.3677   28.9557    9.2217 H         1 YPH         0.0418
     70 H26         9.0527   28.8000    7.5685 H         1 YPH         0.0418
     71 H27         8.5452   27.0517   10.8081 H         1 YPH         0.0520
     72 H28         9.9381   25.1939   11.6283 H         1 YPH         0.0486
     73 H29        10.5078   26.9046    7.0110 H         1 YPH         0.0520
     74 H30        11.8742   25.0097    7.8149 H         1 YPH         0.0486
     75 H31        12.1956   24.0761   11.1295 H         1 YPH         0.2239
     76 H32        13.1523   22.1768   11.0969 H         1 YPH         0.2262
     77 H33        14.4363   20.3493   11.3870 H         1 YPH         0.0501
     78 H34        15.1369   18.1059   10.6220 H         1 YPH         0.0577
     79 H35        14.1950   17.1667    8.5258 H         1 YPH         0.0486
     80 H36        12.5390   18.4780    7.2297 H         1 YPH         0.0577
     81 H37        11.8399   20.7226    8.0008 H         1 YPH         0.0501
@<TRIPOS>BOND
     1    1    2 1  
     2    1    7 1  
     3    2    3 1  
     4    3    4 1  
     5    3    5 1  
     6    5    6 1  
     7    6    7 1  
     8    7    8 1  
     9    8    9 1  
    10    9   10 1  
    11   10   11 1  
    12   11   12 ar 
    13   11   14 ar 
    14   12   13 ar 
    15   13   16 ar 
    16   14   15 ar 
    17   15   16 ar 
    18   16   17 1  
    19   17   18 1  
    20   17   19 2  
    21   18   21 1  
    22   19   20 1  
    23   20   21 ar 
    24   20   25 ar 
    25   21   22 ar 
    26   22   23 ar 
    27   23   24 ar 
    28   24   25 ar 
    29   25   26 1  
    30   26   27 1  
    31   27   28 1  
    32   28   29 1  
    33   29   30 ar 
    34   29   32 ar 
    35   30   31 ar 
    36   31   34 ar 
    37   32   33 ar 
    38   33   34 ar 
    39   34   35 1  
    40   35   36 am 
    41   36   37 2  
    42   36   38 am 
    43   38   39 1  
    44   39   40 ar 
    45   39   44 ar 
    46   40   41 ar 
    47   41   42 ar 
    48   42   43 ar 
    49   43   44 ar 
    50    1   45 1  
    51    1   46 1  
    52    2   47 1  
    53    2   48 1  
    54    3   49 1  
    55    4   50 1  
    56    5   51 1  
    57    5   52 1  
    58    6   53 1  
    59    6   54 1  
    60    7   55 1  
    61    8   56 1  
    62    8   57 1  
    63    9   58 1  
    64    9   59 1  
    65   12   60 1  
    66   13   61 1  
    67   14   62 1  
    68   15   63 1  
    69   19   64 1  
    70   23   65 1  
    71   26   66 1  
    72   27   67 1  
    73   27   68 1  
    74   28   69 1  
    75   28   70 1  
    76   30   71 1  
    77   31   72 1  
    78   32   73 1  
    79   33   74 1  
    80   35   75 1  
    81   38   76 1  
    82   40   77 1  
    83   41   78 1  
    84   42   79 1  
    85   43   80 1  
    86   44   81 1  
@<TRIPOS>SUBSTRUCTURE
     1 YPH         1

