### 
### Created by X-TOOL on Fri Sep 26 17:34:58 2014
### 

@<TRIPOS>MOLECULE
4jc1_ligand
   45    46     1     0     0
SMALL
GAST_HUCK


@<TRIPOS>ATOM
      1 C1         20.3840   -9.1480   -1.2640 C.3       1 TDG         0.1353
      2 S1         21.2480  -10.5150   -0.5590 S.3       1 TDG        -0.0931
      3 C2         18.8880   -9.4560   -1.3300 C.3       1 TDG         0.1189
      4 O2         18.6590  -10.4670   -2.3230 O.3       1 TDG        -0.3857
      5 C3         18.0830   -8.2120   -1.6950 C.3       1 TDG         0.1126
      6 O3         16.6850   -8.4720   -1.5530 O.3       1 TDG        -0.3865
      7 C4         18.4710   -7.0330   -0.8120 C.3       1 TDG         0.1118
      8 O4         18.0680   -7.2750    0.5410 O.3       1 TDG        -0.3865
      9 C5         19.9750   -6.8130   -0.8540 C.3       1 TDG         0.1115
     10 O5         20.6450   -8.0100   -0.4450 O.3       1 TDG        -0.3552
     11 C6         20.3900   -5.6800    0.0840 C.3       1 TDG         0.0730
     12 O6         21.7910   -5.4540   -0.0780 O.3       1 TDG        -0.3924
     13 C1'        22.9230  -10.0070   -0.7810 C.3       1 TDG         0.1353
     14 C2'        23.7190  -10.3150    0.4840 C.3       1 TDG         0.1189
     15 O2'        23.2370   -9.5930    1.6260 O.3       1 TDG        -0.3857
     16 C3'        25.1880   -9.9630    0.2870 C.3       1 TDG         0.1126
     17 O3'        25.9330  -10.3870    1.4350 O.3       1 TDG        -0.3865
     18 C4'        25.7240  -10.6420   -0.9660 C.3       1 TDG         0.1118
     19 O4'        25.7740  -12.0620   -0.7610 O.3       1 TDG        -0.3865
     20 C5'        24.8360  -10.3230   -2.1640 C.3       1 TDG         0.1115
     21 O5'        23.4970  -10.7220   -1.8840 O.3       1 TDG        -0.3552
     22 C6'        25.3180  -11.0470   -3.4220 C.3       1 TDG         0.0730
     23 O6'        24.7140  -10.4810   -4.5920 O.3       1 TDG        -0.3924
     24 H1         20.7550   -8.9591   -2.2821 H         1 TDG         0.0740
     25 H2         18.5545   -9.8240   -0.3485 H         1 TDG         0.0655
     26 H3         17.7301  -10.6613   -2.3671 H         1 TDG         0.2100
     27 H4         18.2930   -7.9529   -2.7432 H         1 TDG         0.0647
     28 H5         16.4984   -8.7116   -0.6528 H         1 TDG         0.2100
     29 H6         17.9650   -6.1292   -1.1823 H         1 TDG         0.0647
     30 H7         17.1258   -7.3918    0.5735 H         1 TDG         0.2100
     31 H8         20.2716   -6.5587   -1.8823 H         1 TDG         0.0646
     32 H9         20.1769   -5.9625    1.1255 H         1 TDG         0.0584
     33 H10        19.8340   -4.7652   -0.1690 H         1 TDG         0.0584
     34 H11        22.2658   -6.2477    0.1390 H         1 TDG         0.2095
     35 H12        22.9562   -8.9265   -0.9842 H         1 TDG         0.0740
     36 H13        23.6332  -11.3924    0.6886 H         1 TDG         0.0655
     37 H14        23.7619   -9.8170    2.3855 H         1 TDG         0.2100
     38 H15        25.2869   -8.8733    0.1743 H         1 TDG         0.0647
     39 H16        25.8415  -11.3266    1.5412 H         1 TDG         0.2100
     40 H17        26.7402  -10.2717   -1.1665 H         1 TDG         0.0647
     41 H18        26.3462  -12.2550   -0.0276 H         1 TDG         0.2100
     42 H19        24.8613   -9.2383   -2.3452 H         1 TDG         0.0646
     43 H20        25.0464  -12.1107   -3.3535 H         1 TDG         0.0584
     44 H21        26.4113  -10.9518   -3.4975 H         1 TDG         0.0584
     45 H22        25.0246  -10.9425   -5.3621 H         1 TDG         0.2095
@<TRIPOS>BOND
     1    1    2 1  
     2    1    3 1  
     3    1   10 1  
     4    2   13 1  
     5    3    4 1  
     6    3    5 1  
     7    5    6 1  
     8    5    7 1  
     9    7    8 1  
    10    7    9 1  
    11    9   10 1  
    12    9   11 1  
    13   11   12 1  
    14   13   14 1  
    15   13   21 1  
    16   14   15 1  
    17   14   16 1  
    18   16   17 1  
    19   16   18 1  
    20   18   19 1  
    21   18   20 1  
    22   20   21 1  
    23   20   22 1  
    24   22   23 1  
    25    1   24 1  
    26    3   25 1  
    27    4   26 1  
    28    5   27 1  
    29    6   28 1  
    30    7   29 1  
    31    8   30 1  
    32    9   31 1  
    33   11   32 1  
    34   11   33 1  
    35   12   34 1  
    36   13   35 1  
    37   14   36 1  
    38   15   37 1  
    39   16   38 1  
    40   17   39 1  
    41   18   40 1  
    42   19   41 1  
    43   20   42 1  
    44   22   43 1  
    45   22   44 1  
    46   23   45 1  
@<TRIPOS>SUBSTRUCTURE
     1 TDG         1

