### 
### Created by X-TOOL on Mon Sep 10 21:13:12 2018
### 

@<TRIPOS>MOLECULE
4jck_ligand
   45    46     1     0     0
SMALL
GAST_HUCK


@<TRIPOS>ATOM
      1 C4         24.5260   39.7420   34.9920 C.3       1 1LL         0.1118
      2 C5         23.4560   38.7500   35.4500 C.3       1 1LL         0.1115
      3 C6         23.4200   38.7010   36.9750 C.3       1 1LL         0.0730
      4 O2         22.6330   41.4290   33.4270 O.3       1 1LL        -0.3857
      5 C2         23.0820   40.1350   32.9860 C.3       1 1LL         0.1189
      6 C3         24.5050   39.8780   33.4690 C.3       1 1LL         0.1126
      7 O3         25.3670   40.9580   33.0570 O.3       1 1LL        -0.3865
      8 O4         24.3050   41.0270   35.6060 O.3       1 1LL        -0.3865
      9 O6         22.3270   37.8690   37.3830 O.3       1 1LL        -0.3924
     10 O5         22.1530   39.1380   34.9620 O.3       1 1LL        -0.3552
     11 C1         22.1520   39.0760   33.5400 C.3       1 1LL         0.1353
     12 SAW        20.5170   39.4790   32.9960 S.3       1 1LL        -0.0931
     13 CAL        19.6680   37.9470   33.2890 C.3       1 1LL         0.1353
     14 OAM        20.1540   36.9400   32.3810 O.3       1 1LL        -0.3552
     15 CAN        19.5290   35.6770   32.6390 C.3       1 1LL         0.1115
     16 CAU        20.1860   34.6550   31.7200 C.3       1 1LL         0.0730
     17 OAV        21.5600   34.5020   32.0840 O.3       1 1LL        -0.3924
     18 CAO        18.0290   35.7840   32.3720 C.3       1 1LL         0.1118
     19 OAT        17.8050   36.1580   31.0170 O.3       1 1LL        -0.3865
     20 CAP        17.4300   36.8280   33.3160 C.3       1 1LL         0.1126
     21 OAS        16.0360   36.9860   33.0520 O.3       1 1LL        -0.3865
     22 CAQ        18.1540   38.1650   33.1660 C.3       1 1LL         0.1189
     23 OAR        17.8530   38.7820   31.9030 O.3       1 1LL        -0.3857
     24 H1         25.5127   39.3662   35.3006 H         1 1LL         0.0647
     25 H2         23.7037   37.7519   35.0595 H         1 1LL         0.0646
     26 H3         23.2813   39.7164   37.3747 H         1 1LL         0.0584
     27 H4         24.3644   38.2835   37.3542 H         1 1LL         0.0584
     28 H5         22.6503   41.4624   34.3762 H         1 1LL         0.2100
     29 H6         23.0625   40.0987   31.8868 H         1 1LL         0.0655
     30 H7         24.8693   38.9409   33.0227 H         1 1LL         0.0647
     31 H8         25.3641   41.0200   32.1090 H         1 1LL         0.2100
     32 H9         23.4601   41.3656   35.3339 H         1 1LL         0.2100
     33 H10        21.5137   38.2318   37.0522 H         1 1LL         0.2095
     34 H11        22.4508   38.0755   33.1940 H         1 1LL         0.0740
     35 H12        19.8839   37.6152   34.3153 H         1 1LL         0.0740
     36 H13        19.6883   35.3863   33.6878 H         1 1LL         0.0646
     37 H14        20.1190   35.0018   30.6783 H         1 1LL         0.0584
     38 H15        19.6706   33.6882   31.8185 H         1 1LL         0.0584
     39 H16        22.0040   35.3375   31.9986 H         1 1LL         0.2095
     40 H17        17.5544   34.8096   32.5598 H         1 1LL         0.0647
     41 H18        16.8707   36.2227   30.8578 H         1 1LL         0.2100
     42 H19        17.5541   36.4772   34.3511 H         1 1LL         0.0647
     43 H20        15.9153   37.2713   32.1540 H         1 1LL         0.2100
     44 H21        17.8233   38.8363   33.9722 H         1 1LL         0.0655
     45 H22        18.1278   38.2077   31.1978 H         1 1LL         0.2100
@<TRIPOS>BOND
     1    1    2 1  
     2    6    1 1  
     3    1    8 1  
     4    2    3 1  
     5    2   10 1  
     6    3    9 1  
     7    5    4 1  
     8    5    6 1  
     9    5   11 1  
    10    6    7 1  
    11   10   11 1  
    12   11   12 1  
    13   12   13 1  
    14   13   14 1  
    15   13   22 1  
    16   14   15 1  
    17   15   16 1  
    18   15   18 1  
    19   16   17 1  
    20   18   19 1  
    21   18   20 1  
    22   20   21 1  
    23   20   22 1  
    24   22   23 1  
    25    1   24 1  
    26    2   25 1  
    27    3   26 1  
    28    3   27 1  
    29    4   28 1  
    30    5   29 1  
    31    6   30 1  
    32    7   31 1  
    33    8   32 1  
    34    9   33 1  
    35   11   34 1  
    36   13   35 1  
    37   15   36 1  
    38   16   37 1  
    39   16   38 1  
    40   17   39 1  
    41   18   40 1  
    42   19   41 1  
    43   20   42 1  
    44   21   43 1  
    45   22   44 1  
    46   23   45 1  
@<TRIPOS>SUBSTRUCTURE
     1 1LL         1

