### 
### Created by X-TOOL on Mon Sep 10 21:13:14 2018
### 

@<TRIPOS>MOLECULE
4jdf_ligand
   29    28     1     0     0
SMALL
GAST_HUCK


@<TRIPOS>ATOM
      1 N1          3.5370    6.1830  -10.3300 N.pl3     1 SPD        -0.3525
      2 C2          2.6990    5.3560   -9.5050 C.2       1 SPD        -0.0227
      3 C3          2.6390    3.8990   -9.8060 C.2       1 SPD        -0.0894
      4 C4          1.7850    3.0540   -8.9200 C.3       1 SPD        -0.0051
      5 C5          1.6370    1.6100   -9.2650 C.3       1 SPD        -0.0305
      6 N6          1.3400    0.6850   -8.2100 N.4       1 SPD         0.2280
      7 C7          0.7160   -0.5010   -8.7170 C.3       1 SPD        -0.0286
      8 C8          1.5140   -1.3870   -9.6090 C.3       1 SPD         0.0275
      9 C9          0.9020   -2.6920   -9.9970 C.3       1 SPD        -0.0305
     10 N10         0.5270   -3.5710   -8.9180 N.4       1 SPD         0.2187
     11 H1          3.6008    7.1948  -10.1483 H         1 SPD         0.1692
     12 H2          4.0736    5.7637  -11.1027 H         1 SPD         0.1692
     13 H3          2.1249    5.7827   -8.6839 H         1 SPD         0.0745
     14 H4          3.1947    3.4680  -10.6375 H         1 SPD         0.0264
     15 H5          0.7774    3.4954   -8.9180 H         1 SPD         0.0394
     16 H6          2.2106    3.1070   -7.9071 H         1 SPD         0.0394
     17 H7          2.5825    1.2866   -9.7248 H         1 SPD         0.0830
     18 H8          0.8252    1.5333  -10.0032 H         1 SPD         0.0830
     19 H9          0.7182    1.1270   -7.5512 H         1 SPD         0.2015
     20 H10         2.1975    0.4314   -7.7447 H         1 SPD         0.2015
     21 H11        -0.1743   -0.1861   -9.2811 H         1 SPD         0.0816
     22 H12         0.4067   -1.1034   -7.8502 H         1 SPD         0.0816
     23 H13         2.4624   -1.6054   -9.0964 H         1 SPD         0.0369
     24 H14         1.7175   -0.8285  -10.5346 H         1 SPD         0.0369
     25 H15         1.6271   -3.2272  -10.6277 H         1 SPD         0.0815
     26 H16        -0.0038   -2.4758  -10.5824 H         1 SPD         0.0815
     27 H17         0.1274   -4.4156   -9.2961 H         1 SPD         0.1994
     28 H18        -0.1516   -3.1118   -8.3309 H         1 SPD         0.1994
     29 H19         1.3429   -3.8004   -8.3724 H         1 SPD         0.1994
@<TRIPOS>BOND
     1    1    2 1  
     2    2    3 2  
     3    3    4 1  
     4    4    5 1  
     5    5    6 1  
     6    6    7 1  
     7    7    8 1  
     8    8    9 1  
     9    9   10 1  
    10    1   11 1  
    11    1   12 1  
    12    2   13 1  
    13    3   14 1  
    14    4   15 1  
    15    4   16 1  
    16    5   17 1  
    17    5   18 1  
    18    6   19 1  
    19    6   20 1  
    20    7   21 1  
    21    7   22 1  
    22    8   23 1  
    23    8   24 1  
    24    9   25 1  
    25    9   26 1  
    26   10   27 1  
    27   10   28 1  
    28   10   29 1  
@<TRIPOS>SUBSTRUCTURE
     1 SPD         1

