### 
### Created by X-TOOL on Mon Sep 10 21:13:18 2018
### 

@<TRIPOS>MOLECULE
4je7_ligand
   62    62     1     0     0
SMALL
GAST_HUCK


@<TRIPOS>ATOM
      1 C5         10.6310   -7.9090  -15.4270 C.3       1 BB2         0.0585
      2 C3         11.1860   -9.3360  -15.2060 C.2       1 BB2         0.2013
      3 O4         12.0860   -9.8360  -15.9160 O.2       1 BB2        -0.3968
      4 N1         10.6010   -9.9840  -14.2000 N.am      1 BB2        -0.1641
      5 O2         10.9730  -11.2680  -13.8680 O.3       1 BB2        -0.2717
      6 C6          9.5180   -7.8200  -16.5150 C.3       1 BB2         0.0654
      7 C12         9.3570   -6.3460  -16.9640 C.2       1 BB2         0.1836
      8 O13         8.9970   -5.4850  -16.1580 O.2       1 BB2        -0.3965
      9 C7          8.1560   -8.3980  -16.0340 C.3       1 BB2        -0.0311
     10 C8          7.1640   -8.5060  -17.2160 C.3       1 BB2        -0.0506
     11 C9          5.9690   -9.3860  -16.8950 C.3       1 BB2        -0.0532
     12 C10         5.2200   -9.8470  -18.1860 C.3       1 BB2        -0.0559
     13 C11         4.7870   -8.6430  -19.0230 C.3       1 BB2        -0.0653
     14 N14         9.6640   -6.0480  -18.2370 N.am      1 BB2        -0.2650
     15 C15         9.5920   -4.6730  -18.7200 C.3       1 BB2         0.1332
     16 C16        10.2220   -4.5270  -20.1040 C.3       1 BB2        -0.0063
     17 C18        11.3180   -5.5360  -20.4040 C.3       1 BB2        -0.0584
     18 C17         9.1910   -4.5110  -21.2000 C.3       1 BB2        -0.0584
     19 C19         8.1230   -4.1400  -18.6870 C.2       1 BB2         0.2047
     20 O20         7.2270   -4.9630  -18.9960 O.2       1 BB2        -0.3943
     21 N21         7.8970   -2.8010  -18.3290 N.am      1 BB2        -0.2661
     22 C22         6.5850   -2.1060  -18.2280 C.3       1 BB2         0.0681
     23 C23         8.9730   -1.8330  -17.9750 C.3       1 BB2         0.0344
     24 C24         8.3180   -0.5940  -17.3520 C.3       1 BB2        -0.0303
     25 C25         6.8200   -0.7320  -17.5390 C.3       1 BB2        -0.0257
     26 C26         5.9650   -1.8520  -19.6110 C.3       1 BB2         0.0673
     27 O27         6.8780   -1.0620  -20.4310 O.3       1 BB2        -0.3927
     28 H          11.4638   -7.2577  -15.7308 H         1 BB2         0.0529
     29 H          10.2129   -7.5497  -14.4751 H         1 BB2         0.0529
     30 H           9.8794   -9.5306  -13.6768 H         1 BB2         0.2216
     31 H          10.4524  -11.5670  -13.1318 H         1 BB2         0.2490
     32 H           9.8444   -8.4127  -17.3823 H         1 BB2         0.0563
     33 H           7.7324   -7.7344  -15.2658 H         1 BB2         0.0294
     34 H           8.3184   -9.3980  -15.6056 H         1 BB2         0.0294
     35 H           7.6924   -8.9312  -18.0820 H         1 BB2         0.0267
     36 H           6.8023   -7.4977  -17.4660 H         1 BB2         0.0267
     37 H           5.2703   -8.8195  -16.2619 H         1 BB2         0.0265
     38 H           6.3187  -10.2754  -16.3503 H         1 BB2         0.0265
     39 H           4.3295  -10.4254  -17.8990 H         1 BB2         0.0263
     40 H           5.8909  -10.4800  -18.7853 H         1 BB2         0.0263
     41 H           4.2629   -8.9927  -19.9247 H         1 BB2         0.0230
     42 H           5.6740   -8.0624  -19.3165 H         1 BB2         0.0230
     43 H           4.1125   -8.0077  -18.4301 H         1 BB2         0.0230
     44 H           9.9452   -6.7769  -18.8612 H         1 BB2         0.1883
     45 H          10.1802   -4.0518  -18.0286 H         1 BB2         0.0802
     46 H          10.7049   -3.5387  -20.1128 H         1 BB2         0.0343
     47 H          11.7130   -5.3585  -21.4152 H         1 BB2         0.0234
     48 H          10.9054   -6.5540  -20.3450 H         1 BB2         0.0234
     49 H          12.1290   -5.4259  -19.6691 H         1 BB2         0.0234
     50 H           8.4108   -3.7740  -20.9587 H         1 BB2         0.0234
     51 H           8.7371   -5.5088  -21.2911 H         1 BB2         0.0234
     52 H           9.6713   -4.2384  -22.1513 H         1 BB2         0.0234
     53 H           5.8948   -2.7162  -17.6270 H         1 BB2         0.0581
     54 H           9.5275   -1.5453  -18.8804 H         1 BB2         0.0522
     55 H           9.6636   -2.2920  -17.2523 H         1 BB2         0.0522
     56 H           8.6777    0.3152  -17.8559 H         1 BB2         0.0285
     57 H           8.5598   -0.5394  -16.2803 H         1 BB2         0.0285
     58 H           6.3113   -0.7040  -16.5641 H         1 BB2         0.0289
     59 H           6.4400    0.0815  -18.1744 H         1 BB2         0.0289
     60 H           5.0181   -1.3053  -19.4907 H         1 BB2         0.0580
     61 H           5.7720   -2.8152  -20.1059 H         1 BB2         0.0580
     62 H           7.0444   -0.2293  -20.0051 H         1 BB2         0.2095
@<TRIPOS>BOND
     1    1    2 1  
     2    1    6 1  
     3    2    3 2  
     4    2    4 am 
     5    4    5 1  
     6    6    7 1  
     7    6    9 1  
     8    7    8 2  
     9    7   14 am 
    10    9   10 1  
    11   10   11 1  
    12   11   12 1  
    13   12   13 1  
    14   14   15 1  
    15   15   16 1  
    16   15   19 1  
    17   16   17 1  
    18   16   18 1  
    19   19   20 2  
    20   19   21 am 
    21   21   22 1  
    22   21   23 1  
    23   22   25 1  
    24   22   26 1  
    25   23   24 1  
    26   24   25 1  
    27   26   27 1  
    28    1   28 1  
    29    1   29 1  
    30    4   30 1  
    31    5   31 1  
    32    6   32 1  
    33    9   33 1  
    34    9   34 1  
    35   10   35 1  
    36   10   36 1  
    37   11   37 1  
    38   11   38 1  
    39   12   39 1  
    40   12   40 1  
    41   13   41 1  
    42   13   42 1  
    43   13   43 1  
    44   14   44 1  
    45   15   45 1  
    46   16   46 1  
    47   17   47 1  
    48   17   48 1  
    49   17   49 1  
    50   18   50 1  
    51   18   51 1  
    52   18   52 1  
    53   22   53 1  
    54   23   54 1  
    55   23   55 1  
    56   24   56 1  
    57   24   57 1  
    58   25   58 1  
    59   25   59 1  
    60   26   60 1  
    61   26   61 1  
    62   27   62 1  
@<TRIPOS>SUBSTRUCTURE
     1 BB2         1

