### 
### Created by X-TOOL on Mon Sep 10 21:13:17 2018
### 

@<TRIPOS>MOLECULE
4je8_ligand
   41    40     1     0     0
SMALL
GAST_HUCK


@<TRIPOS>ATOM
      1 N           9.0080   -8.1660  -14.9720 N.4       1 MET         0.2379
      2 CA          8.6800   -8.2320  -16.3920 C.3       1 MET         0.0658
      3 C           8.9440   -6.8100  -16.8490 C.2       1 MET         0.2267
      4 O           8.8030   -5.8880  -16.0550 O.2       1 MET        -0.3907
      5 CB          7.1970   -8.5950  -16.5340 C.3       1 MET         0.0168
      6 CG          6.9210   -9.2650  -17.8330 C.3       1 MET         0.0007
      7 SD          5.2560   -9.7790  -18.0990 S.3       1 MET        -0.1638
      8 CE          4.4390   -8.2250  -18.3880 C.3       1 MET        -0.0181
      9 N           9.3360   -6.6190  -18.1110 N.am      1 ALA        -0.2613
     10 CA          9.5480   -5.2750  -18.7110 C.3       1 ALA         0.1283
     11 C           8.2670   -4.4730  -18.5900 C.2       1 ALA         0.2032
     12 O           7.2140   -5.0520  -18.7770 O.2       1 ALA        -0.3944
     13 CB          9.9010   -5.4810  -20.1590 C.3       1 ALA        -0.0244
     14 N           8.3430   -3.1840  -18.2800 N.am      1 SER        -0.2648
     15 CA          7.1590   -2.3680  -18.0520 C.3       1 SER         0.1454
     16 C           6.6850   -1.6280  -19.2910 C.2       1 SER         0.2172
     17 O           7.3420   -1.6840  -20.3500 O.co2     1 SER        -0.4119
     18 CB          7.4670   -1.3090  -17.0410 C.3       1 SER         0.0812
     19 OG          8.1700   -0.2660  -17.6620 O.3       1 SER        -0.3909
     20 H           8.8680   -9.0718  -14.5524 H         1 MET         0.2015
     21 H           8.4114   -7.4907  -14.5203 H         1 MET         0.2015
     22 H           9.9712   -7.8901  -14.8621 H         1 MET         0.2015
     23 H           9.3071   -8.9566  -16.9321 H         1 MET         0.1098
     24 H           6.5965   -7.6755  -16.4716 H         1 MET         0.0354
     25 H           6.9152   -9.2733  -15.7152 H         1 MET         0.0354
     26 H           7.5623  -10.1565  -17.8948 H         1 MET         0.0380
     27 H           7.1892   -8.5639  -18.6370 H         1 MET         0.0380
     28 H           3.3691   -8.4020  -18.5724 H         1 MET         0.0340
     29 H           4.8857   -7.7333  -19.2648 H         1 MET         0.0340
     30 H           4.5570   -7.5790  -17.5055 H         1 MET         0.0340
     31 H           9.4956   -7.4232  -18.6836 H         1 ALA         0.1884
     32 H          10.3651   -4.7502  -18.1944 H         1 ALA         0.0797
     33 H          10.0659   -4.5049  -20.6386 H         1 ALA         0.0277
     34 H           9.0772   -6.0043  -20.6664 H         1 ALA         0.0277
     35 H          10.8180   -6.0843  -20.2306 H         1 ALA         0.0277
     36 H           9.2447   -2.7591  -18.2004 H         1 SER         0.1877
     37 H           6.3510   -3.0180  -17.6850 H         1 SER         0.0774
     38 O1          5.6216   -0.9534  -19.2489 O.co2     1 SER        -0.4119
     39 H           8.0812   -1.7375  -16.2354 H         1 SER         0.0600
     40 H           6.5287   -0.9196  -16.6192 H         1 SER         0.0600
     41 H           7.6383    0.1026  -18.3576 H         1 SER         0.2096
@<TRIPOS>BOND
     1    1    2 1  
     2    2    3 1  
     3    2    5 1  
     4    3    4 2  
     5    3    9 am 
     6    5    6 1  
     7    6    7 1  
     8    7    8 1  
     9    9   10 1  
    10   10   11 1  
    11   10   13 1  
    12   11   12 2  
    13   11   14 am 
    14   14   15 1  
    15   15   16 1  
    16   15   18 1  
    17   16   17 ar 
    18   18   19 1  
    19    1   20 1  
    20    1   21 1  
    21    1   22 1  
    22    2   23 1  
    23    5   24 1  
    24    5   25 1  
    25    6   26 1  
    26    6   27 1  
    27    8   28 1  
    28    8   29 1  
    29    8   30 1  
    30    9   31 1  
    31   10   32 1  
    32   13   33 1  
    33   13   34 1  
    34   13   35 1  
    35   14   36 1  
    36   15   37 1  
    37   16   38 ar 
    38   18   39 1  
    39   18   40 1  
    40   19   41 1  
@<TRIPOS>SUBSTRUCTURE
     1 MET         1

