### 
### Created by X-TOOL on Mon Sep 10 21:13:12 2018
### 

@<TRIPOS>MOLECULE
4jfi_ligand
   70    74     1     0     0
SMALL
GAST_HUCK


@<TRIPOS>ATOM
      1 O3         33.0840   13.0470  -16.9900 O.2       1 1KT        -0.3942
      2 C11        32.0100   12.5710  -17.2590 C.2       1 1KT         0.2062
      3 C12        30.8540   13.1660  -16.7030 C.3       1 1KT         0.1352
      4 N10        31.8830   11.4380  -17.9970 N.am      1 1KT        -0.2575
      5 C9         32.9930   10.9040  -18.7870 C.3       1 1KT         0.0440
      6 C8         32.6740   11.5930  -20.1930 C.3       1 1KT        -0.0057
      7 C7         31.3540   11.0640  -20.6970 C.ar      1 1KT        -0.0536
      8 C6         31.1020   10.9140  -22.0410 C.ar      1 1KT        -0.0492
      9 C5         29.8900   10.3820  -22.4720 C.ar      1 1KT         0.0689
     10 O2         29.6080   10.2390  -23.8220 O.3       1 1KT        -0.3299
     11 C27        30.5780   10.8570  -24.6730 C.3       1 1KT         0.0576
     12 C4         28.9590    9.8650  -21.5870 C.ar      1 1KT        -0.0182
     13 C3         29.2280    9.9710  -20.2340 C.ar      1 1KT         0.0801
     14 O1         28.4510    9.4330  -19.2870 O.3       1 1KT        -0.3293
     15 C26        27.2110    8.7150  -19.6970 C.3       1 1KT         0.0573
     16 C2         30.4090   10.6070  -19.7590 C.ar      1 1KT         0.0043
     17 C1         30.6300   10.7290  -18.2680 C.3       1 1KT         0.0930
     18 C16        29.4540   11.3930  -17.5040 C.3       1 1KT         0.0772
     19 C15        29.2470   10.8670  -16.1040 C.3       1 1KT        -0.0257
     20 C14        30.3620   11.2500  -15.1880 C.3       1 1KT        -0.0465
     21 C13        30.6830   12.7360  -15.2690 C.3       1 1KT        -0.0120
     22 N17        29.6570   12.8580  -17.4740 N.am      1 1KT        -0.2352
     23 C18        28.8370   13.7640  -18.0640 C.2       1 1KT         0.2706
     24 O4         29.1160   15.0100  -18.0200 O.2       1 1KT        -0.3608
     25 C19        27.5860   13.2880  -18.7420 C.2       1 1KT         0.2265
     26 O5         26.6450   13.0260  -18.0230 O.2       1 1KT        -0.3446
     27 C20        27.5690   13.1990  -20.2020 C.ar      1 1KT         0.0190
     28 C21        28.6880   13.6840  -20.9280 C.ar      1 1KT        -0.0325
     29 C25        26.4380   12.6320  -20.8260 C.ar      1 1KT        -0.0325
     30 C24        26.3970   12.5900  -22.2240 C.ar      1 1KT         0.1177
     31 O8         25.3040   12.0790  -22.8960 O.3       1 1KT        -0.3268
     32 C30        24.1430   11.6720  -22.1800 C.3       1 1KT         0.0565
     33 C23        27.4830   13.0840  -22.9650 C.ar      1 1KT         0.1534
     34 O7         27.4770   13.0680  -24.3690 O.3       1 1KT        -0.3254
     35 C29        26.9690   11.9060  -25.0510 C.3       1 1KT         0.0556
     36 C22        28.6040   13.5960  -22.3340 C.ar      1 1KT         0.1177
     37 O6         29.5990   13.9730  -23.1600 O.3       1 1KT        -0.3268
     38 C28        30.7460   14.5130  -22.5550 C.3       1 1KT         0.0565
     39 H1         30.9942   14.2569  -16.7198 H         1 1KT         0.0804
     40 H2         32.9598    9.8064  -18.8514 H         1 1KT         0.0545
     41 H3         33.9687   11.2186  -18.3883 H         1 1KT         0.0545
     42 H4         33.4696   11.3520  -20.9133 H         1 1KT         0.0427
     43 H5         32.6124   12.6839  -20.0661 H         1 1KT         0.0427
     44 H6         31.8500   11.2112  -22.7671 H         1 1KT         0.0374
     45 H7         30.2929   10.7053  -25.7245 H         1 1KT         0.0575
     46 H8         31.5649   10.4062  -24.4920 H         1 1KT         0.0575
     47 H9         30.6219   11.9347  -24.4569 H         1 1KT         0.0575
     48 H10        28.0500    9.3931  -21.9422 H         1 1KT         0.0392
     49 H11        26.6934    8.3373  -18.8029 H         1 1KT         0.0574
     50 H12        27.4752    7.8713  -20.3515 H         1 1KT         0.0574
     51 H13        26.5492    9.4064  -20.2391 H         1 1KT         0.0574
     52 H14        30.7318    9.7072  -17.8737 H         1 1KT         0.0685
     53 H15        28.5341   11.1844  -18.0699 H         1 1KT         0.0601
     54 H16        29.1820    9.7696  -16.1437 H         1 1KT         0.0290
     55 H17        28.3061   11.2760  -15.7072 H         1 1KT         0.0290
     56 H18        31.2600   10.6774  -15.4631 H         1 1KT         0.0268
     57 H19        30.0730   11.0051  -14.1553 H         1 1KT         0.0268
     58 H20        29.8602   13.3084  -14.8159 H         1 1KT         0.0313
     59 H21        31.6145   12.9348  -14.7188 H         1 1KT         0.0313
     60 H22        29.5576   14.0984  -20.4309 H         1 1KT         0.0477
     61 H23        25.6189   12.2376  -20.2356 H         1 1KT         0.0477
     62 H24        23.3890   11.2963  -22.8873 H         1 1KT         0.0572
     63 H25        23.7326   12.5306  -21.6284 H         1 1KT         0.0572
     64 H26        24.4102   10.8745  -21.4711 H         1 1KT         0.0572
     65 H27        27.0371   12.0599  -26.1380 H         1 1KT         0.0571
     66 H28        25.9181   11.7453  -24.7686 H         1 1KT         0.0571
     67 H29        27.5637   11.0252  -24.7674 H         1 1KT         0.0571
     68 H30        31.4789   14.7793  -23.3309 H         1 1KT         0.0572
     69 H31        31.1863   13.7693  -21.8746 H         1 1KT         0.0572
     70 H32        30.4711   15.4133  -21.9859 H         1 1KT         0.0572
@<TRIPOS>BOND
     1    1    2 2  
     2    2    3 1  
     3    2    4 am 
     4    3   21 1  
     5    3   22 1  
     6    4    5 1  
     7    4   17 1  
     8    5    6 1  
     9    6    7 1  
    10    7    8 ar 
    11    7   16 ar 
    12    8    9 ar 
    13    9   10 1  
    14    9   12 ar 
    15   10   11 1  
    16   12   13 ar 
    17   13   14 1  
    18   13   16 ar 
    19   14   15 1  
    20   16   17 1  
    21   17   18 1  
    22   18   19 1  
    23   18   22 1  
    24   19   20 1  
    25   20   21 1  
    26   22   23 am 
    27   23   24 2  
    28   23   25 1  
    29   25   26 2  
    30   25   27 1  
    31   27   28 ar 
    32   27   29 ar 
    33   28   36 ar 
    34   29   30 ar 
    35   30   31 1  
    36   30   33 ar 
    37   31   32 1  
    38   33   34 1  
    39   33   36 ar 
    40   34   35 1  
    41   36   37 1  
    42   37   38 1  
    43    3   39 1  
    44    5   40 1  
    45    5   41 1  
    46    6   42 1  
    47    6   43 1  
    48    8   44 1  
    49   11   45 1  
    50   11   46 1  
    51   11   47 1  
    52   12   48 1  
    53   15   49 1  
    54   15   50 1  
    55   15   51 1  
    56   17   52 1  
    57   18   53 1  
    58   19   54 1  
    59   19   55 1  
    60   20   56 1  
    61   20   57 1  
    62   21   58 1  
    63   21   59 1  
    64   28   60 1  
    65   29   61 1  
    66   32   62 1  
    67   32   63 1  
    68   32   64 1  
    69   35   65 1  
    70   35   66 1  
    71   35   67 1  
    72   38   68 1  
    73   38   69 1  
    74   38   70 1  
@<TRIPOS>SUBSTRUCTURE
     1 1KT         1

