### 
### Created by X-TOOL on Mon Sep 10 21:13:12 2018
### 

@<TRIPOS>MOLECULE
4jfj_ligand
   65    69     1     0     0
SMALL
GAST_HUCK


@<TRIPOS>ATOM
      1 C           9.7600   40.0780   17.9400 C.2       1 1KU         0.2006
      2 N          12.1960   40.3520   18.1350 N.am      1 1KU        -0.2096
      3 O           8.6780   40.3930   17.4660 O.2       1 1KU        -0.3948
      4 CA         11.0020   40.7080   17.3160 C.3       1 1KU         0.1297
      5 CB         11.1040   40.2700   15.8600 C.3       1 1KU        -0.0156
      6 CAA         5.3490   44.8200   20.3450 C.3       1 1KU         0.0567
      7 OAB         4.3270   43.9620   19.8420 O.3       1 1KU        -0.3275
      8 CAC         4.7510   42.6790   19.7080 C.ar      1 1KU         0.1114
      9 CAD         5.9430   42.2600   20.2850 C.ar      1 1KU        -0.0129
     10 CAE         3.9690   41.7840   18.9930 C.ar      1 1KU         0.1079
     11 OAF         2.8010   42.2250   18.4350 O.3       1 1KU        -0.3322
     12 CAG         1.7600   41.2570   18.5460 C.3       1 1KU         0.0545
     13 CAH         4.3990   40.4660   18.8600 C.ar      1 1KU        -0.0498
     14 CAI         5.5990   40.0450   19.4340 C.ar      1 1KU        -0.0530
     15 CAJ         6.3800   40.9460   20.1520 C.ar      1 1KU         0.0712
     16 OAK         7.5700   40.5960   20.7380 O.3       1 1KU        -0.3259
     17 CAL         7.9220   39.2020   20.7640 C.3       1 1KU         0.0881
     18 CAM         8.3930   38.6830   19.4040 C.3       1 1KU         0.0613
     19 NAN         9.7030   39.2240   18.9700 N.am      1 1KU        -0.2690
     20 CAQ        10.9180   38.7490   19.6590 C.3       1 1KU         0.0358
     21 CAR        11.8350   37.9970   18.6890 C.3       1 1KU        -0.0123
     22 CAS        12.7360   38.9760   17.9270 C.3       1 1KU         0.0455
     23 CAT        12.7780   38.5460   16.4630 C.3       1 1KU        -0.0326
     24 CAU        11.4280   38.7890   15.8060 C.3       1 1KU        -0.0475
     25 SAY        13.3740   41.5500   18.2230 S.o2      1 1KU         0.0702
     26 OAZ        12.7700   42.8460   17.8250 O.2       1 1KU        -0.1505
     27 OBA        14.5800   41.1900   17.4140 O.2       1 1KU        -0.1505
     28 CBB        13.8030   41.5760   19.9160 C.ar      1 1KU         0.1008
     29 CBC        14.9200   40.8840   20.3320 C.ar      1 1KU        -0.0206
     30 CBD        15.3030   40.8600   21.6700 C.ar      1 1KU         0.0595
     31 SBE        16.5900   40.1320   22.4830 S.3       1 1KU         0.0026
     32 CBF        16.1690   40.6970   24.0190 C.2       1 1KU         0.0809
     33 NBG        15.0530   41.4310   23.8810 N.2       1 1KU        -0.2931
     34 CBH        14.5530   41.5460   22.6310 C.ar      1 1KU         0.0375
     35 CBI        13.4220   42.2430   22.2050 C.ar      1 1KU        -0.0517
     36 CBJ        13.0490   42.2510   20.8630 C.ar      1 1KU        -0.0433
     37 H1         10.8930   41.8024   17.3340 H         1 1KU         0.0756
     38 H2         11.9010   40.8394   15.3595 H         1 1KU         0.0308
     39 H3         10.1462   40.4558   15.3520 H         1 1KU         0.0308
     40 H4          4.9568   45.8438   20.4349 H         1 1KU         0.0573
     41 H5          6.2051   44.8146   19.6543 H         1 1KU         0.0573
     42 H6          5.6733   44.4635   21.3338 H         1 1KU         0.0573
     43 H7          6.5417   42.9674   20.8473 H         1 1KU         0.0436
     44 H8          0.8420   41.6515   18.0860 H         1 1KU         0.0568
     45 H9          1.5736   41.0391   19.6080 H         1 1KU         0.0568
     46 H10         2.0613   40.3337   18.0296 H         1 1KU         0.0568
     47 H11         3.7942   39.7589   18.3039 H         1 1KU         0.0483
     48 H12         5.9229   39.0167   19.3208 H         1 1KU         0.0422
     49 H13         7.0400   38.6227   21.0747 H         1 1KU         0.0630
     50 H14         8.7316   39.0577   21.4946 H         1 1KU         0.0630
     51 H15         7.6398   38.9562   18.6503 H         1 1KU         0.0549
     52 H16         8.4737   37.5875   19.4615 H         1 1KU         0.0549
     53 H17        10.6278   38.0739   20.4775 H         1 1KU         0.0523
     54 H18        11.4600   39.6130   20.0710 H         1 1KU         0.0523
     55 H19        11.2189   37.4381   17.9692 H         1 1KU         0.0303
     56 H20        12.4633   37.2949   19.2567 H         1 1KU         0.0303
     57 H21        13.7573   38.9343   18.3333 H         1 1KU         0.0516
     58 H22        13.0226   37.4751   16.4056 H         1 1KU         0.0284
     59 H23        13.5488   39.1270   15.9355 H         1 1KU         0.0284
     60 H24        11.4649   38.4588   14.7574 H         1 1KU         0.0268
     61 H25        10.6515   38.2231   16.3415 H         1 1KU         0.0268
     62 H26        15.5133   40.3466   19.6011 H         1 1KU         0.0592
     63 H27        16.7032   40.5021   24.9477 H         1 1KU         0.1260
     64 H28        12.8250   42.7861   22.9287 H         1 1KU         0.0584
     65 H29        12.1602   42.7905   20.5562 H         1 1KU         0.0580
@<TRIPOS>BOND
     1    1    3 2  
     2    1    4 1  
     3   19    1 am 
     4    4    2 1  
     5    2   22 1  
     6    2   25 am 
     7    4    5 1  
     8    5   24 1  
     9    7    6 1  
    10    8    7 1  
    11    9    8 ar 
    12    8   10 ar 
    13   15    9 ar 
    14   10   11 1  
    15   13   10 ar 
    16   11   12 1  
    17   14   13 ar 
    18   15   14 ar 
    19   16   15 1  
    20   17   16 1  
    21   18   17 1  
    22   18   19 1  
    23   19   20 1  
    24   20   21 1  
    25   21   22 1  
    26   22   23 1  
    27   23   24 1  
    28   25   26 2  
    29   25   27 2  
    30   25   28 1  
    31   28   29 ar 
    32   28   36 ar 
    33   29   30 ar 
    34   30   31 1  
    35   30   34 ar 
    36   31   32 1  
    37   32   33 2  
    38   33   34 1  
    39   34   35 ar 
    40   35   36 ar 
    41    4   37 1  
    42    5   38 1  
    43    5   39 1  
    44    6   40 1  
    45    6   41 1  
    46    6   42 1  
    47    9   43 1  
    48   12   44 1  
    49   12   45 1  
    50   12   46 1  
    51   13   47 1  
    52   14   48 1  
    53   17   49 1  
    54   17   50 1  
    55   18   51 1  
    56   18   52 1  
    57   20   53 1  
    58   20   54 1  
    59   21   55 1  
    60   21   56 1  
    61   22   57 1  
    62   23   58 1  
    63   23   59 1  
    64   24   60 1  
    65   24   61 1  
    66   29   62 1  
    67   32   63 1  
    68   35   64 1  
    69   36   65 1  
@<TRIPOS>SUBSTRUCTURE
     1 1KU         1

