### 
### Created by X-TOOL on Mon Sep 10 21:13:12 2018
### 

@<TRIPOS>MOLECULE
4jfk_ligand
   66    70     1     0     0
SMALL
GAST_HUCK


@<TRIPOS>ATOM
      1 C          11.3330  -14.2970  -17.9040 C.2       1 JFK         0.2006
      2 N           8.9850  -14.0180  -18.1440 N.am      1 JFK        -0.2108
      3 O          12.4180  -14.0440  -17.3880 O.2       1 JFK        -0.3948
      4 CA         10.1920  -13.6970  -17.3300 C.3       1 JFK         0.1296
      5 CB         10.0560  -14.1450  -15.8830 C.3       1 JFK        -0.0156
      6 CAA        19.0940  -13.1060  -17.6740 C.3       1 JFK         0.0545
      7 CAB        15.9110   -9.6510  -20.3990 C.3       1 JFK         0.0567
      8 OAD         6.2230  -11.6080  -25.5340 O.2       1 JFK        -0.3766
      9 OAE         8.4240  -11.4810  -17.8280 O.2       1 JFK        -0.1520
     10 OAF         6.6180  -13.1830  -17.3090 O.2       1 JFK        -0.1520
     11 CAG        15.5980  -14.4320  -19.4120 C.ar      1 JFK        -0.0530
     12 CAH        16.8120  -14.0090  -18.8640 C.ar      1 JFK        -0.0498
     13 CAI         6.0940  -13.5180  -20.1110 C.ar      1 JFK        -0.0552
     14 CAJ         5.5500  -13.5410  -21.3840 C.ar      1 JFK        -0.0439
     15 CAK        15.1710  -12.1890  -20.1480 C.ar      1 JFK        -0.0129
     16 CAL         7.7040  -11.9750  -20.8470 C.ar      1 JFK        -0.0335
     17 CAM         9.7310  -15.6250  -15.8600 C.3       1 JFK        -0.0475
     18 CAN        13.2260  -15.2260  -20.7210 C.3       1 JFK         0.0881
     19 CAO         8.3830  -15.8680  -16.5170 C.3       1 JFK        -0.0326
     20 CAQ         9.2710  -16.3600  -18.8360 C.3       1 JFK        -0.0123
     21 CAR        12.6950  -15.6750  -19.3560 C.3       1 JFK         0.0613
     22 CAS        10.1690  -15.5030  -19.7340 C.3       1 JFK         0.0358
     23 NAT         5.6550  -12.7040  -23.6240 N.am      1 JFK        -0.2249
     24 OAU        18.3600  -12.1590  -18.4520 O.3       1 JFK        -0.3322
     25 OAV        16.8070  -10.4840  -19.6590 O.3       1 JFK        -0.3275
     26 OAW        13.5640  -13.8600  -20.6150 O.3       1 JFK        -0.3259
     27 SAX         7.5170  -11.2530  -23.4650 S.3       1 JFK         0.0252
     28 CAZ        14.7710  -13.5170  -20.0600 C.ar      1 JFK         0.0712
     29 CBA         7.1800  -12.7420  -19.8180 C.ar      1 JFK         0.0880
     30 CBB        17.1960  -12.6740  -18.9550 C.ar      1 JFK         0.1079
     31 CBC        16.3710  -11.7710  -19.6000 C.ar      1 JFK         0.1114
     32 CBD         6.3920  -11.8660  -24.3470 C.2       1 JFK         0.2751
     33 CBE         6.0760  -12.7940  -22.3460 C.ar      1 JFK         0.0837
     34 CBF         7.1450  -12.0180  -22.0690 C.ar      1 JFK         0.0620
     35 CBG         8.4320  -15.3950  -17.9690 C.3       1 JFK         0.0454
     36 NBI        11.3560  -15.1200  -18.9740 N.am      1 JFK        -0.2690
     37 SBK         7.7870  -12.7950  -18.1780 S.o2      1 JFK         0.0649
     38 H1         10.3274  -12.6054  -17.3383 H         1 JFK         0.0756
     39 H2          9.2471  -13.5810  -15.3955 H         1 JFK         0.0308
     40 H3         11.0012  -13.9655  -15.3497 H         1 JFK         0.0308
     41 H4         20.0151  -12.6365  -17.2984 H         1 JFK         0.0568
     42 H5         19.3531  -13.9726  -18.3000 H         1 JFK         0.0568
     43 H6         18.4790  -13.4380  -16.8246 H         1 JFK         0.0568
     44 H7         16.3007   -8.6226  -20.4216 H         1 JFK         0.0573
     45 H8         14.9219   -9.6578  -19.9176 H         1 JFK         0.0573
     46 H9         15.8211  -10.0316  -21.4271 H         1 JFK         0.0573
     47 H10        15.3000  -15.4712  -19.3329 H         1 JFK         0.0422
     48 H11        17.4574  -14.7235  -18.3660 H         1 JFK         0.0483
     49 H12         5.6500  -14.1271  -19.3320 H         1 JFK         0.0543
     50 H13         4.6930  -14.1703  -21.5950 H         1 JFK         0.0485
     51 H14        14.5346  -11.4711  -20.6526 H         1 JFK         0.0436
     52 H15         8.5643  -11.3407  -20.6664 H         1 JFK         0.0547
     53 H16         9.6972  -15.9750  -14.8177 H         1 JFK         0.0268
     54 H17        10.5086  -16.1779  -16.4074 H         1 JFK         0.0268
     55 H18        12.4508  -15.3627  -21.4893 H         1 JFK         0.0630
     56 H19        14.1162  -15.8136  -20.9897 H         1 JFK         0.0630
     57 H20         7.6051  -15.3097  -15.9755 H         1 JFK         0.0284
     58 H21         8.1498  -16.9426  -16.4891 H         1 JFK         0.0284
     59 H22         9.8877  -17.0045  -18.1923 H         1 JFK         0.0303
     60 H23         8.6081  -16.9845  -19.4529 H         1 JFK         0.0303
     61 H24        13.4217  -15.3656  -18.5904 H         1 JFK         0.0549
     62 H25        12.6175  -16.7722  -19.3659 H         1 JFK         0.0549
     63 H26         9.6245  -14.6012  -20.0506 H         1 JFK         0.0523
     64 H27        10.4672  -16.0816  -20.6207 H         1 JFK         0.0523
     65 H28         4.8742  -13.2118  -23.9880 H         1 JFK         0.2263
     66 H29         7.3992  -15.3943  -18.3475 H         1 JFK         0.0516
@<TRIPOS>BOND
     1    1    3 2  
     2    4    1 1  
     3    1   36 am 
     4    2    4 1  
     5    2   35 1  
     6   37    2 am 
     7    4    5 1  
     8    5   17 1  
     9   24    6 1  
    10   25    7 1  
    11   32    8 2  
    12   37    9 2  
    13   37   10 2  
    14   11   12 ar 
    15   28   11 ar 
    16   12   30 ar 
    17   13   14 ar 
    18   29   13 ar 
    19   14   33 ar 
    20   28   15 ar 
    21   15   31 ar 
    22   29   16 ar 
    23   16   34 ar 
    24   19   17 1  
    25   21   18 1  
    26   18   26 1  
    27   35   19 1  
    28   20   22 1  
    29   35   20 1  
    30   36   21 1  
    31   22   36 1  
    32   32   23 am 
    33   33   23 1  
    34   30   24 1  
    35   31   25 1  
    36   26   28 1  
    37   27   32 1  
    38   34   27 1  
    39   29   37 1  
    40   30   31 ar 
    41   33   34 ar 
    42    4   38 1  
    43    5   39 1  
    44    5   40 1  
    45    6   41 1  
    46    6   42 1  
    47    6   43 1  
    48    7   44 1  
    49    7   45 1  
    50    7   46 1  
    51   11   47 1  
    52   12   48 1  
    53   13   49 1  
    54   14   50 1  
    55   15   51 1  
    56   16   52 1  
    57   17   53 1  
    58   17   54 1  
    59   18   55 1  
    60   18   56 1  
    61   19   57 1  
    62   19   58 1  
    63   20   59 1  
    64   20   60 1  
    65   21   61 1  
    66   21   62 1  
    67   22   63 1  
    68   22   64 1  
    69   23   65 1  
    70   35   66 1  
@<TRIPOS>SUBSTRUCTURE
     1 JFK         1

