### 
### Created by X-TOOL on Mon Sep 10 21:13:12 2018
### 

@<TRIPOS>MOLECULE
4jfl_ligand
   63    67     1     0     0
SMALL
GAST_HUCK


@<TRIPOS>ATOM
      1 C          11.2910  -14.2790  -17.5280 C.2       1 1KY         0.2006
      2 N           9.1300  -13.8320  -18.0610 N.am      1 1KY        -0.2089
      3 O          12.4150  -13.8470  -17.2910 O.2       1 1KY        -0.3948
      4 CA         10.1720  -13.5930  -17.0540 C.3       1 1KY         0.1297
      5 CB          9.7810  -14.0850  -15.6840 C.3       1 1KY        -0.0156
      6 CAA        18.9910  -13.2400  -17.8350 C.3       1 1KY         0.0545
      7 CAB        16.9250  -10.4000  -20.9670 C.3       1 1KY         0.0567
      8 OAD         4.2210  -14.1070  -24.6980 O.2       1 1KY        -0.3766
      9 OAE         8.2450  -11.3690  -17.6210 O.2       1 1KY        -0.1520
     10 OAF         6.6000  -13.2540  -17.2770 O.2       1 1KY        -0.1520
     11 CAG        15.3920  -14.6560  -19.2740 C.ar      1 1KY        -0.0530
     12 CAH        16.6650  -14.2280  -18.8950 C.ar      1 1KY        -0.0498
     13 CAI         7.9510  -11.9860  -20.8030 C.ar      1 1KY        -0.0552
     14 CAJ         7.4960  -12.0560  -22.1140 C.ar      1 1KY        -0.0439
     15 CAK        14.8440  -12.4160  -19.9010 C.ar      1 1KY        -0.0129
     16 CAL         6.2390  -13.4870  -20.2330 C.ar      1 1KY        -0.0335
     17 CAM         9.6740  -15.5510  -15.7420 C.3       1 1KY        -0.0474
     18 CAN        12.9240  -15.5260  -20.2050 C.3       1 1KY         0.0881
     19 CAO         8.4900  -15.8060  -16.6620 C.3       1 1KY        -0.0308
     20 CAQ        12.4650  -15.9900  -18.8010 C.3       1 1KY         0.0614
     21 CAR         9.9190  -16.0130  -18.7020 C.3       1 1KY         0.0541
     22 NAS         5.9140  -12.9740  -23.6810 N.am      1 1KY        -0.2249
     23 OAT        18.2380  -12.3690  -18.6780 O.3       1 1KY        -0.3322
     24 OAU        16.5080  -10.6900  -19.6280 O.3       1 1KY        -0.3275
     25 OAV        13.2020  -14.1340  -20.1590 O.3       1 1KY        -0.3259
     26 SAW         4.5940  -14.3600  -22.2340 S.3       1 1KY         0.0252
     27 CAY        14.4670  -13.7520  -19.7820 C.ar      1 1KY         0.0712
     28 CAZ         7.3000  -12.7140  -19.8250 C.ar      1 1KY         0.0880
     29 CBA        17.0210  -12.8880  -19.0190 C.ar      1 1KY         0.1079
     30 CBB        16.1070  -11.9880  -19.5260 C.ar      1 1KY         0.1114
     31 CBC         4.8720  -13.8080  -23.6980 C.2       1 1KY         0.2751
     32 CBD         6.4550  -12.8150  -22.4540 C.ar      1 1KY         0.0837
     33 CBE         5.8330  -13.5300  -21.5030 C.ar      1 1KY         0.0620
     34 CBF         8.7700  -15.2490  -18.0580 C.3       1 1KY         0.0638
     35 NBH        11.1940  -15.3610  -18.3370 N.am      1 1KY        -0.2673
     36 SBJ         7.7840  -12.7370  -18.0890 S.o2      1 1KY         0.0650
     37 H1         10.3873  -12.5161  -16.9908 H         1 1KY         0.0756
     38 H2          8.8128  -13.6511  -15.3936 H         1 1KY         0.0308
     39 H3         10.5476  -13.7953  -14.9502 H         1 1KY         0.0308
     40 H4         19.9570  -12.7722  -17.5939 H         1 1KY         0.0568
     41 H5         19.1650  -14.1936  -18.3550 H         1 1KY         0.0568
     42 H6         18.4316  -13.4255  -16.9062 H         1 1KY         0.0568
     43 H7         17.2451   -9.3496  -21.0319 H         1 1KY         0.0573
     44 H8         16.0860  -10.5709  -21.6575 H         1 1KY         0.0573
     45 H9         17.7642  -11.0566  -21.2400 H         1 1KY         0.0573
     46 H10        15.1228  -15.7010  -19.1714 H         1 1KY         0.0422
     47 H11        17.3798  -14.9421  -18.5023 H         1 1KY         0.0483
     48 H12         8.8054  -11.3685  -20.5506 H         1 1KY         0.0543
     49 H13         8.0009  -11.4783  -22.8798 H         1 1KY         0.0485
     50 H14        14.1348  -11.6971  -20.2949 H         1 1KY         0.0436
     51 H15         5.7132  -14.0832  -19.4960 H         1 1KY         0.0547
     52 H16         9.4866  -15.9678  -14.7414 H         1 1KY         0.0268
     53 H17        10.5920  -15.9925  -16.1571 H         1 1KY         0.0268
     54 H18        12.1265  -15.7196  -20.9374 H         1 1KY         0.0630
     55 H19        13.8314  -16.0747  -20.4973 H         1 1KY         0.0630
     56 H20         7.5971  -15.3147  -16.2482 H         1 1KY         0.0284
     57 H21         8.3128  -16.8893  -16.7329 H         1 1KY         0.0284
     58 H22        13.2569  -15.7417  -18.0791 H         1 1KY         0.0549
     59 H23        12.3214  -17.0803  -18.8273 H         1 1KY         0.0549
     60 H24         9.8004  -16.0049  -19.7955 H         1 1KY         0.0541
     61 H25         9.9194  -17.0520  -18.3409 H         1 1KY         0.0541
     62 H26         6.2603  -12.5119  -24.4974 H         1 1KY         0.2263
     63 H27         7.8621  -15.3801  -18.6651 H         1 1KY         0.0536
@<TRIPOS>BOND
     1    1    3 2  
     2    4    1 1  
     3    1   35 am 
     4    2    4 1  
     5    2   34 1  
     6   36    2 am 
     7    4    5 1  
     8    5   17 1  
     9   23    6 1  
    10   24    7 1  
    11   31    8 2  
    12   36    9 2  
    13   36   10 2  
    14   11   12 ar 
    15   27   11 ar 
    16   12   29 ar 
    17   13   14 ar 
    18   28   13 ar 
    19   14   32 ar 
    20   27   15 ar 
    21   15   30 ar 
    22   28   16 ar 
    23   16   33 ar 
    24   19   17 1  
    25   20   18 1  
    26   18   25 1  
    27   34   19 1  
    28   35   20 1  
    29   34   21 1  
    30   21   35 1  
    31   31   22 am 
    32   32   22 1  
    33   29   23 1  
    34   30   24 1  
    35   25   27 1  
    36   26   31 1  
    37   33   26 1  
    38   28   36 1  
    39   29   30 ar 
    40   32   33 ar 
    41    4   37 1  
    42    5   38 1  
    43    5   39 1  
    44    6   40 1  
    45    6   41 1  
    46    6   42 1  
    47    7   43 1  
    48    7   44 1  
    49    7   45 1  
    50   11   46 1  
    51   12   47 1  
    52   13   48 1  
    53   14   49 1  
    54   15   50 1  
    55   16   51 1  
    56   17   52 1  
    57   17   53 1  
    58   18   54 1  
    59   18   55 1  
    60   19   56 1  
    61   19   57 1  
    62   20   58 1  
    63   20   59 1  
    64   21   60 1  
    65   21   61 1  
    66   22   62 1  
    67   34   63 1  
@<TRIPOS>SUBSTRUCTURE
     1 1KY         1

