### 
### Created by X-TOOL on Mon Sep 10 21:13:12 2018
### 

@<TRIPOS>MOLECULE
4jfm_ligand
   61    64     1     0     0
SMALL
GAST_HUCK


@<TRIPOS>ATOM
      1 CAB         6.1240   19.6950   20.3490 C.3       1 1KZ         0.0567
      2 OAU         6.3010   19.0420   21.6000 O.3       1 1KZ        -0.3275
      3 CBC         7.6210   18.7160   21.8160 C.ar      1 1KZ         0.1114
      4 CAK         8.4070   18.2160   20.7660 C.ar      1 1KZ        -0.0129
      5 CBB         8.1570   18.8600   23.1220 C.ar      1 1KZ         0.1079
      6 OAT         7.3640   19.3190   24.1360 O.3       1 1KZ        -0.3322
      7 CAA         7.3600   20.7680   24.2750 C.3       1 1KZ         0.0545
      8 CAH         9.4870   18.5150   23.3460 C.ar      1 1KZ        -0.0498
      9 CAG        10.2740   18.0280   22.2950 C.ar      1 1KZ        -0.0530
     10 CAZ         9.7290   17.8870   21.0040 C.ar      1 1KZ         0.0713
     11 OAW        10.4390   17.4240   19.9540 O.3       1 1KZ        -0.3252
     12 CAP        11.2320   16.3970   20.4180 C.3       1 1KZ         0.0955
     13 CAO        11.7950   15.8680   19.1660 C.3       1 1KZ         0.1041
     14 OAV        10.7830   15.0820   18.5630 O.3       1 1KZ        -0.2727
     15 C          11.0880   14.3770   17.5240 C.2       1 1KZ         0.2560
     16 O          12.2050   14.2100   17.1070 O.2       1 1KZ        -0.3683
     17 CA          9.9540   13.8030   16.8230 C.3       1 1KZ         0.1405
     18 CB         10.0200   14.1370   15.3780 C.3       1 1KZ        -0.0143
     19 CAM         9.6530   15.6150   15.1200 C.3       1 1KZ        -0.0476
     20 CAN         8.2870   15.9950   15.6630 C.3       1 1KZ        -0.0355
     21 CAR         8.1920   15.6080   17.1320 C.3       1 1KZ         0.0325
     22 N           8.5850   14.1810   17.2470 N.am      1 1KZ        -0.2125
     23 S1          7.6320   13.1760   18.0740 S.o2      1 1KZ         0.0648
     24 OAE         8.2250   11.9030   17.9950 O.2       1 1KZ        -0.1520
     25 OAF         6.3030   13.3030   17.5370 O.2       1 1KZ        -0.1520
     26 CBA         7.5340   13.7220   19.7090 C.ar      1 1KZ         0.0880
     27 CAL         6.4850   14.4870   20.1330 C.ar      1 1KZ        -0.0335
     28 CBF         6.4200   14.8530   21.4160 C.ar      1 1KZ         0.0620
     29 SAX         5.2450   15.7570   22.2800 S.3       1 1KZ         0.0252
     30 CBD         6.0680   15.6820   23.7080 C.2       1 1KZ         0.2751
     31 OAD         5.7130   16.1590   24.7820 O.2       1 1KZ        -0.3766
     32 NAS         7.2170   14.9820   23.5360 N.am      1 1KZ        -0.2249
     33 CBE         7.4330   14.5180   22.2900 C.ar      1 1KZ         0.0837
     34 CAJ         8.5190   13.8200   21.9020 C.ar      1 1KZ        -0.0439
     35 CAI         8.5610   13.4030   20.5520 C.ar      1 1KZ        -0.0552
     36 H1          5.0606   19.9399   20.2105 H         1 1KZ         0.0573
     37 H2          6.4557   19.0299   19.5380 H         1 1KZ         0.0573
     38 H3          6.7187   20.6202   20.3309 H         1 1KZ         0.0573
     39 H4          7.9815   18.0889   19.7772 H         1 1KZ         0.0436
     40 H5          6.7015   21.0546   25.1082 H         1 1KZ         0.0568
     41 H6          6.9931   21.2247   23.3440 H         1 1KZ         0.0568
     42 H7          8.3823   21.1197   24.4779 H         1 1KZ         0.0568
     43 H8          9.9144   18.6236   24.3363 H         1 1KZ         0.0483
     44 H9         11.3081   17.7581   22.4761 H         1 1KZ         0.0422
     45 H10        10.6363   15.6359   20.9431 H         1 1KZ         0.0636
     46 H11        12.0216   16.7704   21.0867 H         1 1KZ         0.0636
     47 H12        12.6786   15.2487   19.3799 H         1 1KZ         0.0640
     48 H13        12.0797   16.6953   18.4993 H         1 1KZ         0.0640
     49 H14        10.0403   12.7128   16.9411 H         1 1KZ         0.0772
     50 H15         9.3161   13.4933   14.8301 H         1 1KZ         0.0309
     51 H16        11.0423   13.9543   15.0155 H         1 1KZ         0.0309
     52 H17         9.6596   15.7926   14.0345 H         1 1KZ         0.0268
     53 H18        10.4099   16.2523   15.6005 H         1 1KZ         0.0268
     54 H19         7.5077   15.4661   15.0947 H         1 1KZ         0.0281
     55 H20         8.1422   17.0806   15.5610 H         1 1KZ         0.0281
     56 H21         7.1605   15.7428   17.4894 H         1 1KZ         0.0480
     57 H22         8.8717   16.2334   17.7293 H         1 1KZ         0.0480
     58 H23         5.7136   14.7938   19.4359 H         1 1KZ         0.0547
     59 H24         7.8607   14.8211   24.2842 H         1 1KZ         0.2263
     60 H25         9.3221   13.5894   22.5926 H         1 1KZ         0.0485
     61 H26         9.4062   12.8313   20.1862 H         1 1KZ         0.0543
@<TRIPOS>BOND
     1    1    2 1  
     2    2    3 1  
     3    3    4 ar 
     4    3    5 ar 
     5    4   10 ar 
     6    5    6 1  
     7    5    8 ar 
     8    6    7 1  
     9    8    9 ar 
    10    9   10 ar 
    11   10   11 1  
    12   11   12 1  
    13   12   13 1  
    14   13   14 1  
    15   14   15 1  
    16   15   16 2  
    17   15   17 1  
    18   17   18 1  
    19   17   22 1  
    20   18   19 1  
    21   19   20 1  
    22   20   21 1  
    23   21   22 1  
    24   22   23 am 
    25   23   24 2  
    26   23   25 2  
    27   23   26 1  
    28   26   27 ar 
    29   26   35 ar 
    30   27   28 ar 
    31   28   29 1  
    32   28   33 ar 
    33   29   30 1  
    34   30   31 2  
    35   30   32 am 
    36   32   33 1  
    37   33   34 ar 
    38   34   35 ar 
    39    1   36 1  
    40    1   37 1  
    41    1   38 1  
    42    4   39 1  
    43    7   40 1  
    44    7   41 1  
    45    7   42 1  
    46    8   43 1  
    47    9   44 1  
    48   12   45 1  
    49   12   46 1  
    50   13   47 1  
    51   13   48 1  
    52   17   49 1  
    53   18   50 1  
    54   18   51 1  
    55   19   52 1  
    56   19   53 1  
    57   20   54 1  
    58   20   55 1  
    59   21   56 1  
    60   21   57 1  
    61   27   58 1  
    62   32   59 1  
    63   34   60 1  
    64   35   61 1  
@<TRIPOS>SUBSTRUCTURE
     1 1KZ         1

