### 
### Created by X-TOOL on Mon Sep 10 21:13:12 2018
### 

@<TRIPOS>MOLECULE
4jfs_ligand
   37    38     1     0     0
SMALL
GAST_HUCK


@<TRIPOS>ATOM
      1 CAQ       -17.7470   15.0060   37.0180 C.3       1 16Z         0.0579
      2 OAP       -17.9860   15.1510   35.5640 O.3       1 16Z        -0.3257
      3 CAM       -17.5100   14.2020   34.6990 C.ar      1 16Z         0.0837
      4 CAN       -17.9980   14.2350   33.3870 C.ar      1 16Z        -0.0394
      5 CAO       -17.5790   13.3020   32.4500 C.ar      1 16Z        -0.0634
      6 CAL       -16.5700   13.2290   35.0710 C.ar      1 16Z        -0.0394
      7 CAK       -16.1510   12.2990   34.1200 C.ar      1 16Z        -0.0634
      8 CAJ       -16.6400   12.3230   32.7980 C.ar      1 16Z        -0.0037
      9 CAE       -16.2530   11.3610   31.8040 C.3       1 16Z         0.0373
     10 CAG       -14.7770   10.9660   31.7900 C.3       1 16Z         0.1367
     11 OAD       -14.0730   11.8250   30.8760 O.3       1 16Z        -0.3815
     12 CAA       -14.8950    9.4710   31.3590 C.3       1 16Z         0.1300
     13 OAC       -15.2060    9.3210   29.9080 O.3       1 16Z        -0.3833
     14 CAF       -15.9980    9.0190   32.2600 C.3       1 16Z         0.0070
     15 CAB       -16.4010    7.5930   31.9470 C.3       1 16Z        -0.0190
     16 NAH       -16.9640   10.0500   31.9300 N.4       1 16Z         0.2515
     17 CAI       -18.1550    9.9930   32.7840 C.3       1 16Z        -0.0412
     18 H1        -18.1988   15.8560   37.5504 H         1 16Z         0.0575
     19 H2        -16.6643   14.9858   37.2114 H         1 16Z         0.0575
     20 H3        -18.2004   14.0686   37.3725 H         1 16Z         0.0575
     21 H4        -18.7117   14.9988   33.1001 H         1 16Z         0.0525
     22 H5        -17.9803   13.3308   31.4434 H         1 16Z         0.0532
     23 H6        -16.1761   13.2007   36.0805 H         1 16Z         0.0525
     24 H7        -15.4319   11.5393   34.4042 H         1 16Z         0.0532
     25 H8        -16.5004   11.8062   30.8291 H         1 16Z         0.1022
     26 H9        -14.3166   11.0479   32.7857 H         1 16Z         0.0699
     27 H10       -13.1539   11.5852   30.8620 H         1 16Z         0.2104
     28 H11       -13.9659    8.9229   31.5743 H         1 16Z         0.0680
     29 H12       -14.5147    9.7215   29.3941 H         1 16Z         0.2102
     30 H13       -15.7134    9.0746   33.3211 H         1 16Z         0.0875
     31 H14       -17.2127    7.2847   32.6224 H         1 16Z         0.0285
     32 H15       -15.5357    6.9284   32.0864 H         1 16Z         0.0285
     33 H16       -16.7475    7.5302   30.9049 H         1 16Z         0.0285
     34 H17       -17.3023    9.8394   31.0041 H         1 16Z         0.2051
     35 H18       -18.8528   10.7923   32.4938 H         1 16Z         0.0778
     36 H19       -17.8595   10.1280   33.8349 H         1 16Z         0.0778
     37 H20       -18.6461    9.0161   32.6637 H         1 16Z         0.0778
@<TRIPOS>BOND
     1    1    2 1  
     2    2    3 1  
     3    3    4 ar 
     4    3    6 ar 
     5    4    5 ar 
     6    5    8 ar 
     7    6    7 ar 
     8    7    8 ar 
     9    8    9 1  
    10    9   10 1  
    11    9   16 1  
    12   10   11 1  
    13   10   12 1  
    14   12   13 1  
    15   12   14 1  
    16   14   15 1  
    17   14   16 1  
    18   16   17 1  
    19    1   18 1  
    20    1   19 1  
    21    1   20 1  
    22    4   21 1  
    23    5   22 1  
    24    6   23 1  
    25    7   24 1  
    26    9   25 1  
    27   10   26 1  
    28   11   27 1  
    29   12   28 1  
    30   13   29 1  
    31   14   30 1  
    32   15   31 1  
    33   15   32 1  
    34   15   33 1  
    35   16   34 1  
    36   17   35 1  
    37   17   36 1  
    38   17   37 1  
@<TRIPOS>SUBSTRUCTURE
     1 16Z         1

