### 
### Created by X-TOOL on Mon Sep 10 21:13:13 2018
### 

@<TRIPOS>MOLECULE
4jft_ligand
   34    35     1     0     0
SMALL
GAST_HUCK


@<TRIPOS>ATOM
      1 CAP       -18.1530   14.7740   37.0720 C.3       1 1KN         0.0579
      2 OAO       -18.1630   15.0560   35.6450 O.3       1 1KN        -0.3257
      3 CAL       -17.7670   14.0940   34.7430 C.ar      1 1KN         0.0837
      4 CAM       -17.0370   12.9660   35.0920 C.ar      1 1KN        -0.0394
      5 CAN       -16.6620   12.0460   34.1110 C.ar      1 1KN        -0.0634
      6 CAK       -18.0680   14.3010   33.4120 C.ar      1 1KN        -0.0394
      7 CAJ       -17.7040   13.3980   32.4420 C.ar      1 1KN        -0.0634
      8 CAI       -16.9870   12.2630   32.7710 C.ar      1 1KN        -0.0038
      9 CAC       -16.6610   11.3210   31.7540 C.3       1 1KN         0.0357
     10 NAD       -17.3620    9.9910   32.0650 N.4       1 1KN         0.2456
     11 CAE       -16.2650    9.0070   32.1260 C.3       1 1KN         0.0054
     12 CAF       -16.6710    7.5670   31.9020 C.3       1 1KN        -0.0191
     13 CAA       -15.2520    9.5450   31.0230 C.3       1 1KN         0.1299
     14 OAH       -15.8070    9.4100   29.7050 O.3       1 1KN        -0.3833
     15 CAB       -15.1890   10.9860   31.6330 C.3       1 1KN         0.1367
     16 OAG       -14.4300   11.9690   30.8940 O.3       1 1KN        -0.3815
     17 H1        -18.5003   15.6603   37.6233 H         1 1KN         0.0575
     18 H2        -17.1301   14.5226   37.3890 H         1 1KN         0.0575
     19 H3        -18.8211   13.9260   37.2829 H         1 1KN         0.0575
     20 H4        -16.7581   12.7995   36.1262 H         1 1KN         0.0525
     21 H5        -16.1132   11.1546   34.3927 H         1 1KN         0.0532
     22 H6        -18.6047   15.1979   33.1247 H         1 1KN         0.0525
     23 H7        -17.9817   13.5775   31.4097 H         1 1KN         0.0532
     24 H8        -17.0146   11.7190   30.7914 H         1 1KN         0.1021
     25 H9        -18.0155    9.7525   31.3355 H         1 1KN         0.2033
     26 H10       -17.8468   10.0405   32.9474 H         1 1KN         0.2033
     27 H11       -15.7913    9.0585   33.1174 H         1 1KN         0.0874
     28 H12       -15.7830    6.9212   31.9682 H         1 1KN         0.0285
     29 H13       -17.1252    7.4648   30.9054 H         1 1KN         0.0285
     30 H14       -17.3999    7.2679   32.6696 H         1 1KN         0.0285
     31 H15       -14.2728    9.0445   31.0476 H         1 1KN         0.0680
     32 H16       -15.1851    9.7371   29.0657 H         1 1KN         0.2102
     33 H17       -14.7397   10.9304   32.6355 H         1 1KN         0.0699
     34 H18       -13.5283   11.6798   30.8184 H         1 1KN         0.2104
@<TRIPOS>BOND
     1    1    2 1  
     2    2    3 1  
     3    3    4 ar 
     4    3    6 ar 
     5    4    5 ar 
     6    5    8 ar 
     7    6    7 ar 
     8    7    8 ar 
     9    8    9 1  
    10    9   10 1  
    11    9   15 1  
    12   10   11 1  
    13   11   12 1  
    14   11   13 1  
    15   13   14 1  
    16   13   15 1  
    17   15   16 1  
    18    1   17 1  
    19    1   18 1  
    20    1   19 1  
    21    4   20 1  
    22    5   21 1  
    23    6   22 1  
    24    7   23 1  
    25    9   24 1  
    26   10   25 1  
    27   10   26 1  
    28   11   27 1  
    29   12   28 1  
    30   12   29 1  
    31   12   30 1  
    32   13   31 1  
    33   14   32 1  
    34   15   33 1  
    35   16   34 1  
@<TRIPOS>SUBSTRUCTURE
     1 1KN         1

