### 
### Created by X-TOOL on Mon Sep 10 21:13:16 2018
### 

@<TRIPOS>MOLECULE
4jg6_ligand
   26    27     1     0     0
SMALL
GAST_HUCK


@<TRIPOS>ATOM
      1 C01        11.9170  -27.3320   21.1630 C.3       1 1LB         0.1791
      2 C02        12.5920  -26.7010   22.3320 C.1       1 1LB         0.1168
      3 N03        13.1130  -26.2170   23.2270 N.1       1 1LB        -0.3003
      4 C04        12.8260  -27.2810   19.9800 C.2       1 1LB         0.2046
      5 N05        12.2790  -27.1690   18.6640 N.am      1 1LB        -0.2988
      6 O06        14.0360  -27.3460   20.1330 O.2       1 1LB        -0.3945
      7 C07        11.5910  -28.7560   21.4680 C.3       1 1LB         0.0199
      8 C08        12.6250  -29.8120   21.2590 C.ar      1 1LB        -0.0491
      9 C09        12.7460  -30.4280   20.0110 C.ar      1 1LB        -0.0670
     10 C10        13.7100  -31.4160   19.8070 C.ar      1 1LB        -0.0397
     11 C11        14.5400  -31.7740   20.8620 C.ar      1 1LB         0.0820
     12 N12        15.5670  -32.7000   20.9650 N.pl3     1 1LB        -0.2160
     13 N13        16.0690  -32.6880   22.1720 N.2       1 1LB        -0.2074
     14 C14        15.4180  -31.7700   22.9270 C.2       1 1LB         0.0189
     15 C15        14.4140  -31.1540   22.1080 C.ar      1 1LB         0.0017
     16 C16        13.4620  -30.1770   22.3040 C.ar      1 1LB        -0.0641
     17 H1         10.9896  -26.7848   20.9383 H         1 1LB         0.0857
     18 H2         12.8872  -27.1348   17.8710 H         1 1LB         0.1815
     19 H3         11.2881  -27.1249   18.5365 H         1 1LB         0.1815
     20 H4         10.7276  -29.0267   20.8426 H         1 1LB         0.0455
     21 H5         11.3027  -28.7972   22.5287 H         1 1LB         0.0455
     22 H6         12.0893  -30.1377   19.1989 H         1 1LB         0.0536
     23 H7         13.8097  -31.8967   18.8405 H         1 1LB         0.0549
     24 H8         15.8884  -33.3101   20.1999 H         1 1LB         0.2440
     25 H9         15.6213  -31.5402   23.9719 H         1 1LB         0.0708
     26 H10        13.3674  -29.6955   23.2706 H         1 1LB         0.0511
@<TRIPOS>BOND
     1    1    2 1  
     2    1    4 1  
     3    1    7 1  
     4    2    3 3  
     5    4    5 am 
     6    4    6 2  
     7    7    8 1  
     8    8    9 ar 
     9    8   16 ar 
    10    9   10 ar 
    11   10   11 ar 
    12   11   12 1  
    13   11   15 ar 
    14   12   13 1  
    15   13   14 2  
    16   14   15 1  
    17   15   16 ar 
    18    1   17 1  
    19    5   18 1  
    20    5   19 1  
    21    7   20 1  
    22    7   21 1  
    23    9   22 1  
    24   10   23 1  
    25   12   24 1  
    26   14   25 1  
    27   16   26 1  
@<TRIPOS>SUBSTRUCTURE
     1 1LB         1

