### 
### Created by X-TOOL on Mon Sep 10 21:13:16 2018
### 

@<TRIPOS>MOLECULE
4jg7_ligand
   38    40     1     0     0
SMALL
GAST_HUCK


@<TRIPOS>ATOM
      1 O01         7.8240    7.5290  -22.8530 O.2       1 1LC        -0.3865
      2 C02         6.8850    8.3050  -23.0060 C.2       1 1LC         0.1343
      3 C03         6.4950    9.2520  -21.8860 C.ar      1 1LC         0.0207
      4 C04         5.4740   10.1760  -22.0590 C.ar      1 1LC        -0.0426
      5 C05         5.0960   11.1140  -20.9460 C.ar      1 1LC        -0.0330
      6 C06         3.9740   12.1180  -21.1310 C.3       1 1LC         0.0258
      7 C07         2.5660   11.6480  -20.9550 C.3       1 1LC         0.1804
      8 C08         2.3610   11.2560  -19.5210 C.1       1 1LC         0.1170
      9 N09         2.2130   10.9620  -18.4260 N.1       1 1LC        -0.3003
     10 C10         2.3010   10.4500  -21.8080 C.2       1 1LC         0.2048
     11 N11         1.9500   10.6050  -23.1960 N.am      1 1LC        -0.2987
     12 O12         2.3880    9.3350  -21.3220 O.2       1 1LC        -0.3944
     13 C13         5.7650   11.0480  -19.7530 C.ar      1 1LC        -0.0558
     14 C14         6.8730   10.0500  -19.5640 C.ar      1 1LC        -0.0629
     15 C15         7.2170    9.1930  -20.5840 C.ar      1 1LC        -0.0511
     16 C16         6.1230    8.2880  -24.3180 C.2       1 1LC         0.0432
     17 C17         4.7380    8.2800  -24.4990 C.2       1 1LC         0.0541
     18 N18         4.4900    8.2660  -25.8640 N.pl3     1 1LC        -0.2550
     19 C19         5.6920    8.2630  -26.5610 C.ar      1 1LC         0.1414
     20 N20         5.9500    8.2500  -27.8730 N.ar      1 1LC        -0.2845
     21 C21         7.2120    8.2500  -28.3200 C.ar      1 1LC        -0.0050
     22 C22         8.2960    8.2630  -27.4430 C.ar      1 1LC        -0.0501
     23 C23         8.0500    8.2760  -26.0700 C.ar      1 1LC        -0.0535
     24 C24         6.7330    8.2760  -25.6260 C.ar      1 1LC         0.0177
     25 H1          4.9448   10.2219  -23.0039 H         1 1LC         0.0606
     26 H2          4.0589   12.5166  -22.1527 H         1 1LC         0.0475
     27 H3          4.1396   12.9287  -20.4062 H         1 1LC         0.0475
     28 H4          1.8718   12.4567  -21.2270 H         1 1LC         0.0859
     29 H5          1.7741    9.7984  -23.7604 H         1 1LC         0.1815
     30 H6          1.8821   11.5192  -23.5955 H         1 1LC         0.1815
     31 H7          5.4951   11.7166  -18.9436 H         1 1LC         0.0593
     32 H8          7.4035   10.0052  -18.6197 H         1 1LC         0.0611
     33 H9          8.0149    8.4735  -20.4400 H         1 1LC         0.0610
     34 H10         3.9873    8.2840  -23.7101 H         1 1LC         0.1099
     35 H11         3.5550    8.2589  -26.2960 H         1 1LC         0.2359
     36 H12         7.3953    8.2397  -29.3883 H         1 1LC         0.0751
     37 H13         9.3118    8.2630  -27.8215 H         1 1LC         0.0604
     38 H14         8.8710    8.2859  -25.3623 H         1 1LC         0.0669
@<TRIPOS>BOND
     1    1    2 2  
     2    2    3 1  
     3    2   16 1  
     4    3    4 ar 
     5    3   15 ar 
     6    4    5 ar 
     7    5    6 1  
     8    5   13 ar 
     9    6    7 1  
    10    7    8 1  
    11    7   10 1  
    12    8    9 3  
    13   10   11 am 
    14   10   12 2  
    15   13   14 ar 
    16   14   15 ar 
    17   16   17 2  
    18   16   24 1  
    19   17   18 1  
    20   18   19 1  
    21   19   20 ar 
    22   19   24 ar 
    23   20   21 ar 
    24   21   22 ar 
    25   22   23 ar 
    26   23   24 ar 
    27    4   25 1  
    28    6   26 1  
    29    6   27 1  
    30    7   28 1  
    31   11   29 1  
    32   11   30 1  
    33   13   31 1  
    34   14   32 1  
    35   15   33 1  
    36   17   34 1  
    37   18   35 1  
    38   21   36 1  
    39   22   37 1  
    40   23   38 1  
@<TRIPOS>SUBSTRUCTURE
     1 1LC         1

