### 
### Created by X-TOOL on Mon Sep 10 21:13:15 2018
### 

@<TRIPOS>MOLECULE
4jg8_ligand
   61    63     1     0     0
SMALL
GAST_HUCK


@<TRIPOS>ATOM
      1 O01        14.6460    4.5620   21.2290 O.2       1 1LE        -0.3942
      2 C02        13.7010    4.2330   20.5260 C.2       1 1LE         0.2076
      3 N03        13.7110    2.9380   19.8620 N.am      1 1LE        -0.2771
      4 C04        14.8340    2.0260   20.0240 C.3       1 1LE         0.0704
      5 C05        16.0850    2.6650   19.5250 C.3       1 1LE        -0.0372
      6 C06        14.9970    1.6560   21.4530 C.3       1 1LE        -0.0372
      7 C07        14.5730    0.7860   19.2310 C.3       1 1LE         0.0694
      8 O08        14.1640    1.1410   17.9600 O.3       1 1LE        -0.3925
      9 C09        12.5310    5.1790   20.3490 C.3       1 1LE         0.1793
     10 C10        12.1040    5.1020   18.9330 C.1       1 1LE         0.1168
     11 N11        11.7790    5.0300   17.8360 N.1       1 1LE        -0.3003
     12 C12        12.9290    6.5940   20.7480 C.3       1 1LE         0.0200
     13 C13        11.7750    7.5820   20.6410 C.ar      1 1LE        -0.0488
     14 C14        11.3930    8.0870   19.4060 C.ar      1 1LE        -0.0668
     15 C15        10.3380    8.9990   19.3140 C.ar      1 1LE        -0.0393
     16 C16         9.6690    9.4170   20.4690 C.ar      1 1LE         0.0829
     17 N17         8.6070   10.3000   20.6680 N.pl3     1 1LE        -0.2172
     18 N18         8.3090   10.3820   21.9620 N.2       1 1LE        -0.2051
     19 C19         9.1530    9.5650   22.6620 C.2       1 1LE         0.0496
     20 C20         9.1490    9.3680   24.1720 C.ar      1 1LE        -0.0371
     21 C21         9.0630   10.4620   25.0020 C.ar      1 1LE        -0.0444
     22 C22         9.0610   10.2790   26.4960 C.ar      1 1LE         0.1122
     23 O23         8.9760   11.3800   27.3380 O.3       1 1LE        -0.3280
     24 C24         7.7450   11.8320   27.7750 C.3       1 1LE         0.0564
     25 C25         9.1490    9.0200   27.0340 C.ar      1 1LE         0.1482
     26 O26         9.1460    8.8610   28.4040 O.3       1 1LE        -0.3284
     27 C27        10.3120    9.0650   29.1190 C.3       1 1LE         0.0546
     28 C28         9.2430    7.8250   26.1360 C.ar      1 1LE         0.1122
     29 O29         9.3270    6.5630   26.6900 O.3       1 1LE        -0.3280
     30 C30         8.1890    5.9720   27.2270 C.3       1 1LE         0.0564
     31 C31         9.2430    7.9900   24.7640 C.ar      1 1LE        -0.0444
     32 C32        10.0510    8.9240   21.7110 C.ar      1 1LE         0.0083
     33 C33        11.1040    8.0080   21.8010 C.ar      1 1LE        -0.0631
     34 H1         12.9371    2.6715   19.2875 H         1 1LE         0.1858
     35 H2         16.9276    1.9693   19.6512 H         1 1LE         0.0255
     36 H3         16.2801    3.5846   20.0962 H         1 1LE         0.0255
     37 H4         15.9705    2.9126   18.4594 H         1 1LE         0.0255
     38 H5         15.8484    0.9675   21.5586 H         1 1LE         0.0255
     39 H6         14.0808    1.1638   21.8112 H         1 1LE         0.0255
     40 H7         15.1827    2.5626   22.0476 H         1 1LE         0.0255
     41 H8         13.7848    0.1949   19.7201 H         1 1LE         0.0583
     42 H9         15.4941    0.1881   19.1681 H         1 1LE         0.0583
     43 H10        13.3690    1.6580   18.0172 H         1 1LE         0.2095
     44 H11        11.6997    4.8557   20.9927 H         1 1LE         0.0857
     45 H12        13.7422    6.9301   20.0879 H         1 1LE         0.0455
     46 H13        13.2841    6.5793   21.7890 H         1 1LE         0.0455
     47 H14        11.9149    7.7729   18.5093 H         1 1LE         0.0537
     48 H15        10.0377    9.3831   18.3458 H         1 1LE         0.0550
     49 H16         8.1225   10.8153   19.9192 H         1 1LE         0.2444
     50 H17         8.9965   11.4579   24.5790 H         1 1LE         0.0423
     51 H18         7.8860   12.7062   28.4276 H         1 1LE         0.0572
     52 H19         7.2392   11.0329   28.3367 H         1 1LE         0.0572
     53 H20         7.1302   12.1167   26.9085 H         1 1LE         0.0572
     54 H21        10.1207    8.8944   30.1887 H         1 1LE         0.0569
     55 H22        10.6583   10.0982   28.9687 H         1 1LE         0.0569
     56 H23        11.0844    8.3647   28.7684 H         1 1LE         0.0569
     57 H24         8.4434    4.9765   27.6197 H         1 1LE         0.0572
     58 H25         7.4231    5.8724   26.4437 H         1 1LE         0.0572
     59 H26         7.8001    6.5994   28.0425 H         1 1LE         0.0572
     60 H27         9.3109    7.1249   24.1144 H         1 1LE         0.0423
     61 H28        11.4043    7.6246   22.7695 H         1 1LE         0.0514
@<TRIPOS>BOND
     1    1    2 2  
     2    2    3 am 
     3    2    9 1  
     4    3    4 1  
     5    4    5 1  
     6    4    6 1  
     7    4    7 1  
     8    7    8 1  
     9    9   10 1  
    10    9   12 1  
    11   10   11 3  
    12   12   13 1  
    13   13   14 ar 
    14   13   33 ar 
    15   14   15 ar 
    16   15   16 ar 
    17   16   17 1  
    18   16   32 ar 
    19   17   18 1  
    20   18   19 2  
    21   19   20 1  
    22   19   32 1  
    23   20   21 ar 
    24   20   31 ar 
    25   21   22 ar 
    26   22   23 1  
    27   22   25 ar 
    28   23   24 1  
    29   25   26 1  
    30   25   28 ar 
    31   26   27 1  
    32   28   29 1  
    33   28   31 ar 
    34   29   30 1  
    35   32   33 ar 
    36    3   34 1  
    37    5   35 1  
    38    5   36 1  
    39    5   37 1  
    40    6   38 1  
    41    6   39 1  
    42    6   40 1  
    43    7   41 1  
    44    7   42 1  
    45    8   43 1  
    46    9   44 1  
    47   12   45 1  
    48   12   46 1  
    49   14   47 1  
    50   15   48 1  
    51   17   49 1  
    52   21   50 1  
    53   24   51 1  
    54   24   52 1  
    55   24   53 1  
    56   27   54 1  
    57   27   55 1  
    58   27   56 1  
    59   30   57 1  
    60   30   58 1  
    61   30   59 1  
    62   31   60 1  
    63   33   61 1  
@<TRIPOS>SUBSTRUCTURE
     1 1LE         1

