### 
### Created by X-TOOL on Mon Sep 10 21:13:13 2018
### 

@<TRIPOS>MOLECULE
4jgv_ligand
   41    41     1     0     0
SMALL
GAST_HUCK


@<TRIPOS>ATOM
      1 C1        -16.2890   20.2170   -4.9680 C.ar      1 T94         0.1142
      2 C2        -17.2470   19.5270   -4.2280 C.ar      1 T94         0.1500
      3 C3        -16.9250   18.3430   -3.5930 C.ar      1 T94         0.1142
      4 C4        -15.6190   17.8570   -3.7240 C.ar      1 T94        -0.0336
      5 C5        -14.6960   18.5720   -4.4530 C.ar      1 T94         0.0043
      6 C6        -15.0250   19.7290   -5.0790 C.ar      1 T94        -0.0336
      7 O7        -17.8700   17.6690   -2.8570 O.3       1 T94        -0.3388
      8 O8        -18.5170   19.9930   -4.0940 O.3       1 T94        -0.3380
      9 O9        -16.5390   21.3790   -5.6090 O.3       1 T94        -0.3388
     10 C10       -13.3360   18.0940   -4.6610 C.2       1 T94         0.1199
     11 C11       -12.1620   18.7890   -4.0490 C.3       1 T94         0.0204
     12 C12       -10.9590   18.6150   -4.9760 C.3       1 T94        -0.0379
     13 C13       -10.2690   17.2610   -4.8160 C.3       1 T94        -0.0510
     14 C14        -8.7890   17.3840   -5.1820 C.3       1 T94        -0.0529
     15 C15        -7.8920   17.1700   -3.9720 C.3       1 T94        -0.0531
     16 C16        -7.9700   15.7220   -3.4850 C.3       1 T94        -0.0533
     17 C17        -6.6110   15.2000   -3.0540 C.3       1 T94        -0.0559
     18 C18        -5.6430   15.2040   -4.2160 C.3       1 T94        -0.0653
     19 O19       -13.2150   17.1500   -5.4040 O.2       1 T94        -0.3840
     20 H1        -15.3359   16.9223   -3.2537 H         1 T94         0.0477
     21 H2        -14.2844   20.2617   -5.6645 H         1 T94         0.0477
     22 H3        -18.6903   18.1474   -2.8829 H         1 T94         0.2437
     23 H4        -18.6067   20.8073   -4.5750 H         1 T94         0.2423
     24 H5        -15.9656   22.0563   -5.2697 H         1 T94         0.2437
     25 H6        -11.9402   18.3475   -3.0662 H         1 T94         0.0483
     26 H7        -12.3857   19.8592   -3.9282 H         1 T94         0.0483
     27 H8        -10.2293   19.4079   -4.7550 H         1 T94         0.0289
     28 H9        -11.3021   18.7121   -6.0166 H         1 T94         0.0289
     29 H10       -10.7488   16.5265   -5.4795 H         1 T94         0.0267
     30 H11       -10.3598   16.9265   -3.7721 H         1 T94         0.0267
     31 H12        -8.6046   18.3889   -5.5895 H         1 T94         0.0265
     32 H13        -8.5460   16.6290   -5.9442 H         1 T94         0.0265
     33 H14        -8.2141   17.8405   -3.1616 H         1 T94         0.0265
     34 H15        -6.8528   17.4016   -4.2484 H         1 T94         0.0265
     35 H16        -8.3513   15.0914   -4.3016 H         1 T94         0.0265
     36 H17        -8.6593   15.6704   -2.6293 H         1 T94         0.0265
     37 H18        -6.7214   14.1715   -2.6798 H         1 T94         0.0263
     38 H19        -6.2155   15.8413   -2.2526 H         1 T94         0.0263
     39 H20        -4.6670   14.8227   -3.8814 H         1 T94         0.0230
     40 H21        -5.5260   16.2310   -4.5923 H         1 T94         0.0230
     41 H22        -6.0319   14.5612   -5.0194 H         1 T94         0.0230
@<TRIPOS>BOND
     1    1    2 ar 
     2    1    6 ar 
     3    1    9 1  
     4    2    3 ar 
     5    2    8 1  
     6    3    4 ar 
     7    3    7 1  
     8    4    5 ar 
     9    5    6 ar 
    10    5   10 1  
    11   10   11 1  
    12   10   19 2  
    13   11   12 1  
    14   12   13 1  
    15   13   14 1  
    16   14   15 1  
    17   15   16 1  
    18   16   17 1  
    19   17   18 1  
    20    4   20 1  
    21    6   21 1  
    22    7   22 1  
    23    8   23 1  
    24    9   24 1  
    25   11   25 1  
    26   11   26 1  
    27   12   27 1  
    28   12   28 1  
    29   13   29 1  
    30   13   30 1  
    31   14   31 1  
    32   14   32 1  
    33   15   33 1  
    34   15   34 1  
    35   16   35 1  
    36   16   36 1  
    37   17   37 1  
    38   17   38 1  
    39   18   39 1  
    40   18   40 1  
    41   18   41 1  
@<TRIPOS>SUBSTRUCTURE
     1 T94         1

