### 
### Created by X-TOOL on Mon Sep 10 21:13:16 2018
### 

@<TRIPOS>MOLECULE
4jh0_ligand
   48    50     1     0     0
SMALL
GAST_HUCK


@<TRIPOS>ATOM
      1 C1         48.1730   50.1170   35.3990 C.ar      1 1MD         0.0141
      2 C2         47.1440   50.8880   34.7480 C.ar      1 1MD         0.0359
      3 C3         47.4070   51.4600   33.4580 C.ar      1 1MD         0.0280
      4 N4         48.5600   51.2460   32.7850 N.ar      1 1MD        -0.2995
      5 C4         49.3750   49.9770   34.7070 C.ar      1 1MD         0.0730
      6 C6         49.5200   50.5450   33.4480 C.ar      1 1MD         0.0547
      7 C5         50.8990   50.3260   32.9490 C.3       1 1MD         0.0828
      8 N1         51.4650   49.5310   34.0270 N.am      1 1MD        -0.2416
      9 C9         50.6310   49.3320   35.0640 C.2       1 1MD         0.2071
     10 C10        52.6410   48.6600   33.9380 C.3       1 1MD         0.1245
     11 C7         52.2580   47.4020   33.1460 C.2       1 1MD         0.2008
     12 C13        46.4890   52.3870   32.7320 C.3       1 1MD        -0.0180
     13 C14        48.0560   49.6090   36.7950 C.ar      1 1MD         0.0012
     14 C15        45.7540   51.0100   35.3220 C.3       1 1MD         0.0009
     15 N16        45.6990   51.8600   36.5090 N.4       1 1MD         0.2304
     16 C17        47.4410   48.3470   37.0770 C.ar      1 1MD        -0.0515
     17 C18        47.3590   47.9240   38.4580 C.ar      1 1MD        -0.0460
     18 C19        47.8810   48.7450   39.5120 C.ar      1 1MD         0.0422
     19 C20        48.4800   50.0440   39.2760 C.ar      1 1MD        -0.0321
     20 C21        48.5310   50.4060   37.8950 C.ar      1 1MD         0.0505
     21 CL1        49.2330   51.9130   37.6040 Cl        1 1MD        -0.0683
     22 CL2        47.8160   48.1780   41.1200 Cl        1 1MD        -0.0693
     23 N2         53.3280   46.5760   32.8840 N.am      1 1MD        -0.2777
     24 C25        53.2030   45.2730   32.1460 C.3       1 1MD         0.0223
     25 O2         51.0660   47.1990   32.8010 O.2       1 1MD        -0.3947
     26 O1         50.9730   48.7140   36.0820 O.2       1 1MD        -0.3891
     27 C8         54.6110   46.9730   33.5230 C.3       1 1MD         0.0223
     28 H1         51.4381   51.2765   32.8229 H         1 1MD         0.0715
     29 H2         50.9007   49.7744   31.9973 H         1 1MD         0.0715
     30 H3         52.9696   48.3761   34.9486 H         1 1MD         0.0766
     31 H4         53.4561   49.1889   33.4224 H         1 1MD         0.0766
     32 H5         46.9396   52.6696   31.7691 H         1 1MD         0.0412
     33 H6         46.3243   53.2896   33.3387 H         1 1MD         0.0412
     34 H7         45.5268   51.8847   32.5532 H         1 1MD         0.0412
     35 H8         45.3975   50.0054   35.5935 H         1 1MD         0.0971
     36 H9         45.0937   51.4382   34.5534 H         1 1MD         0.0971
     37 H10        44.7504   51.9042   36.8469 H         1 1MD         0.2007
     38 H11        46.0151   52.7876   36.2730 H         1 1MD         0.2007
     39 H12        46.2935   51.4747   37.2261 H         1 1MD         0.2007
     40 H13        47.0485   47.7269   36.2792 H         1 1MD         0.0633
     41 H14        46.8968   46.9737   38.6995 H         1 1MD         0.0627
     42 H15        48.8533   50.6794   40.0710 H         1 1MD         0.0632
     43 H16        54.1934   44.8014   32.0644 H         1 1MD         0.0486
     44 H17        52.8014   45.4590   31.1390 H         1 1MD         0.0486
     45 H18        52.5228   44.6047   32.6944 H         1 1MD         0.0486
     46 H19        54.4915   47.9534   34.0072 H         1 1MD         0.0486
     47 H20        55.3981   47.0359   32.7571 H         1 1MD         0.0486
     48 H21        54.8924   46.2234   34.2773 H         1 1MD         0.0486
@<TRIPOS>BOND
     1    1    2 ar 
     2    1    5 ar 
     3    1   13 1  
     4    2    3 ar 
     5    2   14 1  
     6    3    4 ar 
     7    3   12 1  
     8    4    6 ar 
     9    5    6 ar 
    10    5    9 1  
    11    6    7 1  
    12    7    8 1  
    13    8    9 am 
    14    8   10 1  
    15    9   26 2  
    16   10   11 1  
    17   11   23 am 
    18   11   25 2  
    19   13   16 ar 
    20   13   20 ar 
    21   14   15 1  
    22   16   17 ar 
    23   17   18 ar 
    24   18   19 ar 
    25   18   22 1  
    26   19   20 ar 
    27   20   21 1  
    28   23   24 1  
    29   23   27 1  
    30    7   28 1  
    31    7   29 1  
    32   10   30 1  
    33   10   31 1  
    34   12   32 1  
    35   12   33 1  
    36   12   34 1  
    37   14   35 1  
    38   14   36 1  
    39   15   37 1  
    40   15   38 1  
    41   15   39 1  
    42   16   40 1  
    43   17   41 1  
    44   19   42 1  
    45   24   43 1  
    46   24   44 1  
    47   24   45 1  
    48   27   46 1  
    49   27   47 1  
    50   27   48 1  
@<TRIPOS>SUBSTRUCTURE
     1 1MD         1

