### 
### Created by X-TOOL on Mon Sep 10 21:13:12 2018
### 

@<TRIPOS>MOLECULE
4jht_ligand
   20    21     1     0     0
SMALL
GAST_HUCK


@<TRIPOS>ATOM
      1 OAA        -4.2110    3.6990   -1.4620 O.co2     1 8XQ        -0.5646
      2 OAB        -2.6560    4.6800   -0.3180 O.co2     1 8XQ        -0.5646
      3 OAC        -4.0790   -0.6340    3.0870 O.3       1 8XQ        -0.3235
      4 CAD        -1.1070    3.2420    3.2310 C.ar      1 8XQ        -0.0338
      5 CAE        -1.3090    2.1450    4.0420 C.ar      1 8XQ         0.0097
      6 CAF        -4.6550    0.5420    1.0920 C.ar      1 8XQ        -0.0238
      7 CAG        -4.4860    1.6150    0.2540 C.ar      1 8XQ        -0.0544
      8 CAH        -1.8450    3.4310    2.0890 C.ar      1 8XQ        -0.0374
      9 NAI        -2.2570    1.2180    3.6790 N.ar      1 8XQ        -0.2924
     10 CAJ        -3.4530    3.7180   -0.4550 C.2       1 8XQ         0.0549
     11 CAK        -3.9050    0.4250    2.2410 C.ar      1 8XQ         0.1199
     12 CAL        -3.5540    2.5990    0.5300 C.ar      1 8XQ         0.0104
     13 CAM        -2.7810    2.4890    1.6960 C.ar      1 8XQ         0.0123
     14 CAN        -2.9650    1.3810    2.5390 C.ar      1 8XQ         0.0864
     15 H1         -3.9005   -1.4426    2.6213 H         1 8XQ         0.2534
     16 H2         -0.3502    3.9697    3.5008 H         1 8XQ         0.0696
     17 H3         -0.7305    2.0160    4.9496 H         1 8XQ         0.0840
     18 H4         -5.3855   -0.2206    0.8475 H         1 8XQ         0.0544
     19 H5         -5.0937    1.6930   -0.6403 H         1 8XQ         0.0649
     20 H6         -1.6942    4.3227    1.4914 H         1 8XQ         0.0747
@<TRIPOS>BOND
     1   10    1 ar 
     2   10    2 ar 
     3   11    3 1  
     4    5    4 ar 
     5    4    8 ar 
     6    9    5 ar 
     7    6    7 ar 
     8   11    6 ar 
     9    7   12 ar 
    10    8   13 ar 
    11   14    9 ar 
    12   12   10 1  
    13   11   14 ar 
    14   12   13 ar 
    15   13   14 ar 
    16    3   15 1  
    17    4   16 1  
    18    5   17 1  
    19    6   18 1  
    20    7   19 1  
    21    8   20 1  
@<TRIPOS>SUBSTRUCTURE
     1 8XQ         1

