### 
### Created by X-TOOL on Mon Sep 10 21:13:14 2018
### 

@<TRIPOS>MOLECULE
4jhz_ligand
   65    68     1     0     0
SMALL
GAST_HUCK


@<TRIPOS>ATOM
      1 CAB        83.9630  -33.7690  161.5390 C.3       1 1KV         0.0369
      2 OAS        84.7740  -33.8210  162.6950 O.3       1 1KV        -0.3775
      3 CBB        84.4510  -32.8640  163.6770 C.3       1 1KV         0.0813
      4 CAH        83.9420  -33.6420  164.9070 C.3       1 1KV        -0.0221
      5 CAG        83.7460  -32.8480  166.1950 C.3       1 1KV        -0.0241
      6 CAZ        85.0870  -32.1600  166.4720 C.3       1 1KV         0.0606
      7 OAR        84.9330  -31.2760  167.5710 O.3       1 1KV        -0.3797
      8 CAA        86.1470  -30.7110  168.0460 C.3       1 1KV         0.0368
      9 CAO        85.5190  -31.2560  165.2830 C.3       1 1KV        -0.0011
     10 CBA        85.7330  -32.0210  163.9640 C.3       1 1KV         0.0706
     11 NAQ        85.9770  -31.1930  162.7660 N.am      1 1KV        -0.2770
     12 C          86.6220  -29.9930  162.5390 C.2       1 1KV         0.2219
     13 O          87.1530  -29.3960  163.5390 O.2       1 1KV        -0.3912
     14 CA         86.7480  -29.3630  161.1980 C.3       1 1KV         0.0583
     15 N          86.3450  -30.3290  160.0230 N.4       1 1KV         0.2594
     16 CAK        87.4850  -30.6600  158.9890 C.3       1 1KV         0.0113
     17 CAM        87.0880  -31.7630  158.0730 C.3       1 1KV         0.0107
     18 CAJ        85.0660  -29.8850  159.2620 C.3       1 1KV         0.0113
     19 CAL        84.5640  -31.0320  158.4500 C.3       1 1KV         0.0107
     20 NBD        85.6580  -31.5320  157.3810 N.4       1 1KV         0.2531
     21 CAP        85.2080  -32.7260  156.4130 C.3       1 1KV        -0.0050
     22 CAW        84.8590  -34.0980  156.9960 C.ar      1 1KV        -0.0182
     23 CAF        85.6150  -35.2720  156.6960 C.ar      1 1KV        -0.0347
     24 CAY        85.2530  -36.5030  157.2410 C.ar      1 1KV         0.1171
     25 OAU        85.8270  -37.7470  157.0970 O.3       1 1KV        -0.2927
     26 CAI        85.2140  -38.6420  158.0570 C.3       1 1KV         0.1854
     27 OAT        84.0200  -37.9480  158.4810 O.3       1 1KV        -0.2956
     28 CAX        84.1520  -36.6500  158.0900 C.ar      1 1KV         0.1160
     29 CAE        83.3930  -35.5310  158.4010 C.ar      1 1KV        -0.0476
     30 CAD        83.7660  -34.2850  157.8400 C.ar      1 1KV        -0.0751
     31 H          84.2842  -34.5467  160.8305 H         1 1KV         0.0524
     32 H          84.0603  -32.7802  161.0670 H         1 1KV         0.0524
     33 H          82.9132  -33.9397  161.8196 H         1 1KV         0.0524
     34 H          83.6554  -32.1963  163.3148 H         1 1KV         0.0619
     35 H          84.6670  -34.4420  165.1173 H         1 1KV         0.0292
     36 H          82.9720  -34.0870  164.6404 H         1 1KV         0.0292
     37 H          83.4833  -33.5219  167.0238 H         1 1KV         0.0291
     38 H          82.9511  -32.0988  166.0655 H         1 1KV         0.0291
     39 H          85.8572  -32.9173  166.6797 H         1 1KV         0.0596
     40 H          85.9336  -30.0429  168.8934 H         1 1KV         0.0524
     41 H          86.6252  -30.1375  167.2383 H         1 1KV         0.0524
     42 H          86.8220  -31.5151  168.3741 H         1 1KV         0.0524
     43 H          86.4622  -30.7578  165.5514 H         1 1KV         0.0313
     44 H          84.7374  -30.4990  165.1215 H         1 1KV         0.0313
     45 H          86.5953  -32.6906  164.0984 H         1 1KV         0.0582
     46 H          85.5889  -31.5893  161.9339 H         1 1KV         0.1857
     47 H          87.7934  -29.0529  161.0535 H         1 1KV         0.1063
     48 H          86.0950  -28.4785  161.1638 H         1 1KV         0.1063
     49 H          86.1174  -31.2033  160.4700 H         1 1KV         0.2057
     50 H          88.3896  -30.9600  159.5383 H         1 1KV         0.0868
     51 H          87.6992  -29.7605  158.3932 H         1 1KV         0.0868
     52 H          87.0493  -32.6988  158.6499 H         1 1KV         0.0868
     53 H          87.8479  -31.8507  157.2826 H         1 1KV         0.0868
     54 H          85.3051  -29.0402  158.5993 H         1 1KV         0.0868
     55 H          84.2947  -29.5780  159.9837 H         1 1KV         0.0868
     56 H          83.6580  -30.7174  157.9114 H         1 1KV         0.0868
     57 H          84.3187  -31.8655  159.1247 H         1 1KV         0.0868
     58 H          85.7881  -30.7471  156.7621 H         1 1KV         0.2051
     59 H          86.0315  -32.8844  155.7011 H         1 1KV         0.0957
     60 H          84.3170  -32.3760  155.8711 H         1 1KV         0.0957
     61 H          86.4757  -35.2054  156.0404 H         1 1KV         0.0452
     62 H          85.8859  -38.8179  158.9100 H         1 1KV         0.0970
     63 H          84.9595  -39.6031  157.5864 H         1 1KV         0.0970
     64 H          82.5344  -35.6085  159.0581 H         1 1KV         0.0493
     65 H          83.1609  -33.4192  158.0834 H         1 1KV         0.0438
@<TRIPOS>BOND
     1    1    2 1  
     2    2    3 1  
     3    3    4 1  
     4    3   10 1  
     5    4    5 1  
     6    5    6 1  
     7    6    7 1  
     8    6    9 1  
     9    7    8 1  
    10    9   10 1  
    11   10   11 1  
    12   11   12 am 
    13   12   13 2  
    14   12   14 1  
    15   14   15 1  
    16   15   16 1  
    17   15   18 1  
    18   16   17 1  
    19   17   20 1  
    20   18   19 1  
    21   19   20 1  
    22   20   21 1  
    23   21   22 1  
    24   22   23 ar 
    25   22   30 ar 
    26   23   24 ar 
    27   24   25 1  
    28   24   28 ar 
    29   25   26 1  
    30   26   27 1  
    31   27   28 1  
    32   28   29 ar 
    33   29   30 ar 
    34    1   31 1  
    35    1   32 1  
    36    1   33 1  
    37    3   34 1  
    38    4   35 1  
    39    4   36 1  
    40    5   37 1  
    41    5   38 1  
    42    6   39 1  
    43    8   40 1  
    44    8   41 1  
    45    8   42 1  
    46    9   43 1  
    47    9   44 1  
    48   10   45 1  
    49   11   46 1  
    50   14   47 1  
    51   14   48 1  
    52   15   49 1  
    53   16   50 1  
    54   16   51 1  
    55   17   52 1  
    56   17   53 1  
    57   18   54 1  
    58   18   55 1  
    59   19   56 1  
    60   19   57 1  
    61   20   58 1  
    62   21   59 1  
    63   21   60 1  
    64   23   61 1  
    65   26   62 1  
    66   26   63 1  
    67   29   64 1  
    68   30   65 1  
@<TRIPOS>SUBSTRUCTURE
     1 1KV         1

