### 
### Created by X-TOOL on Mon Sep 10 21:13:13 2018
### 

@<TRIPOS>MOLECULE
4jia_ligand
   59    63     1     0     0
SMALL
GAST_HUCK


@<TRIPOS>ATOM
      1 C24        16.1070  -20.6440  -22.2030 C.3       1 1K3         0.0636
      2 O1         15.0440  -21.5420  -22.5170 O.3       1 1K3        -0.3105
      3 C10        14.9850  -22.8060  -21.9640 C.ar      1 1K3         0.1070
      4 C9         15.9480  -23.3070  -21.0710 C.ar      1 1K3        -0.0187
      5 C8         15.8270  -24.5960  -20.5450 C.ar      1 1K3        -0.0478
      6 C11        13.8990  -23.6060  -22.3090 C.ar      1 1K3        -0.0187
      7 C12        13.7820  -24.8880  -21.7900 C.ar      1 1K3        -0.0478
      8 C7         14.7250  -25.3910  -20.8850 C.ar      1 1K3         0.0019
      9 C3         14.5440  -26.7820  -20.3770 C.ar      1 1K3         0.0555
     10 C2         15.6440  -27.6260  -20.2580 C.ar      1 1K3        -0.0332
     11 N1         13.3250  -27.2530  -20.0470 N.ar      1 1K3        -0.2449
     12 N2         12.1690  -26.4910  -20.1290 N.2       1 1K3        -0.1581
     13 C6         11.2730  -27.3850  -19.7040 C.2       1 1K3         0.3164
     14 N3         11.7880  -28.5990  -19.3970 N.pl3     1 1K3        -0.1917
     15 C4         13.1180  -28.5000  -19.6260 C.ar      1 1K3         0.1603
     16 C5         14.1860  -29.3710  -19.4860 C.ar      1 1K3        -0.0042
     17 C1         15.4630  -28.9250  -19.8120 C.ar      1 1K3        -0.0469
     18 N4          9.9260  -27.1420  -19.6110 N.pl3     1 1K3        -0.1860
     19 C13         9.2210  -26.0320  -19.9770 C.ar      1 1K3         0.1165
     20 C18         9.8100  -24.8750  -20.4570 C.ar      1 1K3        -0.0068
     21 C17         9.0440  -23.7710  -20.7880 C.ar      1 1K3        -0.0144
     22 C16         7.6540  -23.7810  -20.6510 C.ar      1 1K3         0.0754
     23 C15         7.0630  -24.9520  -20.1600 C.ar      1 1K3        -0.0144
     24 C14         7.8410  -26.0580  -19.8330 C.ar      1 1K3        -0.0068
     25 N5          6.9100  -22.6710  -20.9930 N.pl3     1 1K3        -0.2796
     26 C22         7.5790  -21.4630  -21.4850 C.3       1 1K3         0.0759
     27 C21         6.7810  -20.8790  -22.6370 C.3       1 1K3        -0.0097
     28 N6          5.4620  -20.6230  -22.0870 N.4       1 1K3         0.2362
     29 C23         4.7340  -19.7480  -23.0000 C.3       1 1K3        -0.0429
     30 C20         4.7730  -21.8990  -21.9650 C.3       1 1K3        -0.0097
     31 C19         5.4500  -22.6560  -20.8240 C.3       1 1K3         0.0759
     32 H1         15.9617  -19.6993  -22.7474 H         1 1K3         0.0587
     33 H2         17.0663  -21.0937  -22.4986 H         1 1K3         0.0587
     34 H3         16.1126  -20.4465  -21.1209 H         1 1K3         0.0587
     35 H4         16.7918  -22.6881  -20.7879 H         1 1K3         0.0593
     36 H5         16.5862  -24.9808  -19.8737 H         1 1K3         0.0665
     37 H6         13.1419  -23.2262  -22.9855 H         1 1K3         0.0593
     38 H7         12.9467  -25.5103  -22.0902 H         1 1K3         0.0665
     39 H8         16.6356  -27.2695  -20.5125 H         1 1K3         0.0632
     40 H9         11.2745  -29.4256  -19.0595 H         1 1K3         0.2403
     41 H10        14.0296  -30.3824  -19.1287 H         1 1K3         0.0685
     42 H11        16.3128  -29.5913  -19.7174 H         1 1K3         0.0720
     43 H12         9.3665  -27.9067  -19.2071 H         1 1K3         0.2613
     44 H13        10.8867  -24.8331  -20.5753 H         1 1K3         0.0694
     45 H14         9.5335  -22.8789  -21.1618 H         1 1K3         0.0638
     46 H15         5.9874  -24.9970  -20.0334 H         1 1K3         0.0638
     47 H16         7.3611  -26.9553  -19.4594 H         1 1K3         0.0694
     48 H17         8.5908  -21.7192  -21.8321 H         1 1K3         0.0594
     49 H18         7.6460  -20.7239  -20.6730 H         1 1K3         0.0594
     50 H19         6.7207  -21.5963  -23.4687 H         1 1K3         0.0836
     51 H20         7.2404  -19.9444  -22.9913 H         1 1K3         0.0836
     52 H21         5.5398  -20.1850  -21.1825 H         1 1K3         0.2032
     53 H22         3.7318  -19.5465  -22.5937 H         1 1K3         0.0778
     54 H23         4.6405  -20.2375  -23.9806 H         1 1K3         0.0778
     55 H24         5.2808  -18.8004  -23.1139 H         1 1K3         0.0778
     56 H25         4.8606  -22.4683  -22.9021 H         1 1K3         0.0836
     57 H26         3.7102  -21.7354  -21.7333 H         1 1K3         0.0836
     58 H27         5.2035  -22.1651  -19.8710 H         1 1K3         0.0594
     59 H28         5.0791  -23.6915  -20.8098 H         1 1K3         0.0594
@<TRIPOS>BOND
     1    1    2 1  
     2    2    3 1  
     3    3    4 ar 
     4    3    6 ar 
     5    4    5 ar 
     6    5    8 ar 
     7    6    7 ar 
     8    7    8 ar 
     9    8    9 1  
    10    9   10 ar 
    11    9   11 ar 
    12   10   17 ar 
    13   11   12 1  
    14   11   15 ar 
    15   12   13 2  
    16   13   14 1  
    17   13   18 1  
    18   14   15 1  
    19   15   16 ar 
    20   16   17 ar 
    21   18   19 1  
    22   19   20 ar 
    23   19   24 ar 
    24   20   21 ar 
    25   21   22 ar 
    26   22   23 ar 
    27   22   25 1  
    28   23   24 ar 
    29   25   26 1  
    30   25   31 1  
    31   26   27 1  
    32   27   28 1  
    33   28   29 1  
    34   28   30 1  
    35   30   31 1  
    36    1   32 1  
    37    1   33 1  
    38    1   34 1  
    39    4   35 1  
    40    5   36 1  
    41    6   37 1  
    42    7   38 1  
    43   10   39 1  
    44   14   40 1  
    45   16   41 1  
    46   17   42 1  
    47   18   43 1  
    48   20   44 1  
    49   21   45 1  
    50   23   46 1  
    51   24   47 1  
    52   26   48 1  
    53   26   49 1  
    54   27   50 1  
    55   27   51 1  
    56   28   52 1  
    57   29   53 1  
    58   29   54 1  
    59   29   55 1  
    60   30   56 1  
    61   30   57 1  
    62   31   58 1  
    63   31   59 1  
@<TRIPOS>SUBSTRUCTURE
     1 1K3         1

