### 
### Created by X-TOOL on Mon Sep 10 21:13:14 2018
### 

@<TRIPOS>MOLECULE
4jib_ligand
   61    64     1     0     0
SMALL
GAST_HUCK


@<TRIPOS>ATOM
      1 N3          7.3050   -3.7460   -4.9260 N.2       1 1L6        -0.1585
      2 C7          7.6260   -3.8660   -2.2390 C.3       1 1L6        -0.0841
      3 C6         10.0000   -4.2890   -2.8300 C.3       1 1L6        -0.0841
      4 C9          6.9070   -6.6120   -2.8910 C.3       1 1L6        -0.0725
      5 C13        12.6240   -9.5770   -7.7860 C.ar      1 1L6        -0.0337
      6 C20        14.0960  -11.7690   -5.3470 C.2       1 1L6         0.0414
      7 C21        14.6590  -13.0100   -5.6290 C.2       1 1L6        -0.0339
      8 C8          8.3400   -6.1980   -2.6790 C.3       1 1L6        -0.0751
      9 C18        11.9010   -8.3640   -7.8450 C.ar      1 1L6        -0.0620
     10 C16        11.3060   -8.6230   -5.5110 C.ar      1 1L6        -0.0620
     11 C26         8.4590   -4.9950   -8.2650 C.2       1 1L6         0.2213
     12 O31         7.5670   -4.8310   -9.0820 O.2       1 1L6        -0.3952
     13 C1          8.2120   -4.6530   -6.8290 C.2       1 1L6         0.1931
     14 N4          7.2830   -3.8050   -6.3430 N.pl3     1 1L6        -0.1664
     15 C10         6.3040   -2.9450   -7.0110 C.3       1 1L6         0.1035
     16 C11         5.0040   -3.6750   -7.2470 C.3       1 1L6         0.0760
     17 O25         4.2000   -2.8280   -8.0580 O.3       1 1L6        -0.3919
     18 N27         9.5870   -5.5110   -8.6800 N.am      1 1L6        -0.2840
     19 C28        10.7330   -5.7180   -7.8400 C.3       1 1L6         0.0611
     20 C29        10.4950   -6.6220   -6.6570 C.3       1 1L6         0.0865
     21 N30         9.8750   -6.1310   -5.6540 N.pl3     1 1L6        -0.3054
     22 C12         8.8720   -5.1600   -5.7050 C.2       1 1L6         0.0996
     23 C2          8.3090   -4.5970   -4.5550 C.2       1 1L6         0.0568
     24 C5          8.5700   -4.7410   -3.0690 C.3       1 1L6        -0.0329
     25 C17        11.2360   -7.9160   -6.6890 C.ar      1 1L6        -0.0231
     26 C15        12.0230   -9.8000   -5.4890 C.ar      1 1L6        -0.0337
     27 C14        12.7000  -10.3280   -6.5950 C.ar      1 1L6         0.0907
     28 N19        13.3910  -11.4900   -6.4560 N.pl3     1 1L6        -0.2117
     29 C23        13.4560  -12.4150   -7.4130 C.2       1 1L6         0.1243
     30 C24        12.7700  -12.3690   -8.7530 C.3       1 1L6         0.0138
     31 N22        14.2530  -13.3830   -6.8810 N.2       1 1L6        -0.3363
     32 H1          7.8477   -3.9993   -1.1698 H         1 1L6         0.0135
     33 H2          6.5846   -4.1599   -2.4369 H         1 1L6         0.0135
     34 H3          7.7677   -2.8104   -2.5140 H         1 1L6         0.0135
     35 H4         10.6855   -4.9125   -3.4227 H         1 1L6         0.0135
     36 H5         10.2430   -4.3903   -1.7620 H         1 1L6         0.0135
     37 H6         10.1074   -3.2368   -3.1323 H         1 1L6         0.0135
     38 H7          6.7827   -7.6653   -2.5992 H         1 1L6         0.0222
     39 H8          6.6438   -6.4921   -3.9523 H         1 1L6         0.0222
     40 H9          6.2482   -5.9810   -2.2763 H         1 1L6         0.0222
     41 H10        13.1303   -9.9372   -8.6742 H         1 1L6         0.0566
     42 H11        14.2015  -11.1686   -4.4446 H         1 1L6         0.0806
     43 H12        15.3085  -13.5833   -4.9691 H         1 1L6         0.0417
     44 H13         8.9906   -6.8383   -3.2928 H         1 1L6         0.0169
     45 H14         8.5950   -6.3272   -1.6168 H         1 1L6         0.0169
     46 H15        11.8597   -7.7898   -8.7635 H         1 1L6         0.0541
     47 H16        10.8076   -8.2620   -4.6186 H         1 1L6         0.0541
     48 H17         6.7135   -2.6204   -7.9789 H         1 1L6         0.0691
     49 H18         6.1112   -2.0645   -6.3805 H         1 1L6         0.0691
     50 H19         4.5005   -3.8716   -6.2890 H         1 1L6         0.0589
     51 H20         5.1926   -4.6272   -7.7643 H         1 1L6         0.0589
     52 H21         4.0493   -2.0070   -7.6044 H         1 1L6         0.2095
     53 H22         9.6555   -5.7777   -9.6413 H         1 1L6         0.1836
     54 H23        11.0613   -4.7387   -7.4616 H         1 1L6         0.0562
     55 H24        11.5315   -6.1606   -8.4536 H         1 1L6         0.0562
     56 H25         9.5780   -7.0702   -7.0671 H         1 1L6         0.0723
     57 H26        10.1386   -6.4831   -4.7226 H         1 1L6         0.1806
     58 H27        12.0654  -10.3515   -4.5568 H         1 1L6         0.0566
     59 H28        13.0162  -13.2775   -9.3223 H         1 1L6         0.0462
     60 H29        13.1114  -11.4838   -9.3096 H         1 1L6         0.0462
     61 H30        11.6814  -12.3123   -8.6059 H         1 1L6         0.0462
@<TRIPOS>BOND
     1    1   14 1  
     2   23    1 2  
     3   24    2 1  
     4   24    3 1  
     5    8    4 1  
     6    5    9 ar 
     7   27    5 ar 
     8    6    7 2  
     9   28    6 1  
    10    7   31 1  
    11   24    8 1  
    12    9   25 ar 
    13   10   25 ar 
    14   26   10 ar 
    15   11   12 2  
    16   13   11 1  
    17   18   11 am 
    18   13   14 1  
    19   22   13 2  
    20   14   15 1  
    21   15   16 1  
    22   16   17 1  
    23   19   18 1  
    24   20   19 1  
    25   20   21 1  
    26   25   20 1  
    27   21   22 1  
    28   22   23 1  
    29   23   24 1  
    30   27   26 ar 
    31   27   28 1  
    32   28   29 1  
    33   29   30 1  
    34   29   31 2  
    35    2   32 1  
    36    2   33 1  
    37    2   34 1  
    38    3   35 1  
    39    3   36 1  
    40    3   37 1  
    41    4   38 1  
    42    4   39 1  
    43    4   40 1  
    44    5   41 1  
    45    6   42 1  
    46    7   43 1  
    47    8   44 1  
    48    8   45 1  
    49    9   46 1  
    50   10   47 1  
    51   15   48 1  
    52   15   49 1  
    53   16   50 1  
    54   16   51 1  
    55   17   52 1  
    56   18   53 1  
    57   19   54 1  
    58   19   55 1  
    59   20   56 1  
    60   21   57 1  
    61   26   58 1  
    62   30   59 1  
    63   30   60 1  
    64   30   61 1  
@<TRIPOS>SUBSTRUCTURE
     1 1L6         1

