### 
### Created by X-TOOL on Mon Sep 10 21:13:15 2018
### 

@<TRIPOS>MOLECULE
4jik_ligand
   46    49     1     0     0
SMALL
GAST_HUCK


@<TRIPOS>ATOM
      1 N01        14.7660   -2.9850    8.2380 N.2       1 1KO        -0.3224
      2 C02        15.1530   -2.0000    7.3650 C.2       1 1KO         0.0220
      3 C03        14.1210   -1.1750    7.1160 C.2       1 1KO         0.0709
      4 N04        13.0410   -1.6450    7.8430 N.pl3     1 1KO        -0.1717
      5 C05        13.4920   -2.7540    8.5150 C.2       1 1KO         0.1812
      6 C06        11.7510   -1.2340    7.9920 C.2       1 1KO         0.2573
      7 N07        10.9030   -1.8390    8.7630 N.2       1 1KO        -0.2661
      8 C08        11.3170   -2.9310    9.4290 C.2       1 1KO         0.0233
      9 C09        12.5880   -3.4330    9.3520 C.2       1 1KO         0.1122
     10 N10        12.9960   -4.5350   10.0400 N.pl3     1 1KO        -0.3072
     11 C11        16.4990   -1.9590    6.8480 C.ar      1 1KO        -0.0246
     12 C12        11.2900   -0.0260    7.2650 C.2       1 1KO         0.2643
     13 C13        12.4670   -5.0050   11.2850 C.3       1 1KO         0.0764
     14 C14        12.7980   -4.0320   12.4410 C.3       1 1KO        -0.0105
     15 N15        12.2150   -4.5370   13.6820 N.4       1 1KO         0.2286
     16 C16        12.7400   -5.8650   14.0300 C.3       1 1KO        -0.0335
     17 C17        12.4120   -6.8700   12.8950 C.3       1 1KO        -0.0103
     18 C18        13.0270   -6.3780   11.5870 C.3       1 1KO        -0.0205
     19 C19        16.9450   -0.8470    6.0970 C.ar      1 1KO        -0.0583
     20 C20        18.2420   -0.8110    5.5990 C.ar      1 1KO        -0.0508
     21 C21        19.1060   -1.8780    5.8370 C.ar      1 1KO         0.0372
     22 C22        18.6770   -2.9960    6.5830 C.ar      1 1KO        -0.0508
     23 C23        17.3690   -3.0330    7.0880 C.ar      1 1KO        -0.0583
     24 CL         20.7310   -1.8220    5.2240 Cl        1 1KO        -0.0732
     25 N25        10.0500    0.3880    7.5580 N.am      1 1KO        -0.2940
     26 O26        12.0050    0.5670    6.4580 O.2       1 1KO        -0.3723
     27 H1         14.1326   -0.3019    6.4652 H         1 1KO         0.0894
     28 H2         10.5997   -3.4458   10.0665 H         1 1KO         0.0636
     29 H3         13.7609   -5.0850    9.6237 H         1 1KO         0.1788
     30 H4         11.3733   -5.0797   11.1948 H         1 1KO         0.0605
     31 H5         12.3802   -3.0395   12.2165 H         1 1KO         0.0836
     32 H6         13.8894   -3.9535   12.5536 H         1 1KO         0.0836
     33 H7         11.2151   -4.6002   13.5709 H         1 1KO         0.2014
     34 H8         12.4303   -3.8950   14.4287 H         1 1KO         0.2014
     35 H9         12.2766   -6.2075   14.9670 H         1 1KO         0.0814
     36 H10        13.8305   -5.8044   14.1610 H         1 1KO         0.0814
     37 H11        11.3210   -6.9501   12.7800 H         1 1KO         0.0318
     38 H12        12.8276   -7.8567   13.1473 H         1 1KO         0.0318
     39 H13        14.1207   -6.3193   11.6893 H         1 1KO         0.0291
     40 H14        12.7716   -7.0713   10.7721 H         1 1KO         0.0291
     41 H15        16.2719   -0.0184    5.9088 H         1 1KO         0.0594
     42 H16        18.5807    0.0451    5.0268 H         1 1KO         0.0615
     43 H17        19.3548   -3.8222    6.7650 H         1 1KO         0.0615
     44 H18        17.0315   -3.8885    7.6618 H         1 1KO         0.0594
     45 H19         9.6729    1.1963    7.1059 H         1 1KO         0.1812
     46 H20         9.5016   -0.1113    8.2288 H         1 1KO         0.1812
@<TRIPOS>BOND
     1    1    2 1  
     2    1    5 2  
     3    2    3 2  
     4    2   11 1  
     5    3    4 1  
     6    4    5 1  
     7    4    6 1  
     8    5    9 1  
     9    6    7 2  
    10    6   12 1  
    11    7    8 1  
    12    8    9 2  
    13    9   10 1  
    14   10   13 1  
    15   11   19 ar 
    16   11   23 ar 
    17   12   25 am 
    18   12   26 2  
    19   13   14 1  
    20   13   18 1  
    21   14   15 1  
    22   15   16 1  
    23   16   17 1  
    24   17   18 1  
    25   19   20 ar 
    26   20   21 ar 
    27   21   22 ar 
    28   21   24 1  
    29   22   23 ar 
    30    3   27 1  
    31    8   28 1  
    32   10   29 1  
    33   13   30 1  
    34   14   31 1  
    35   14   32 1  
    36   15   33 1  
    37   15   34 1  
    38   16   35 1  
    39   16   36 1  
    40   17   37 1  
    41   17   38 1  
    42   18   39 1  
    43   18   40 1  
    44   19   41 1  
    45   20   42 1  
    46   22   43 1  
    47   23   44 1  
    48   25   45 1  
    49   25   46 1  
@<TRIPOS>SUBSTRUCTURE
     1 1KO         1

