### 
### Created by X-TOOL on Mon Sep 10 21:13:13 2018
### 

@<TRIPOS>MOLECULE
4jin_ligand
   33    34     1     0     0
SMALL
GAST_HUCK


@<TRIPOS>ATOM
      1 C10         9.7030   -3.0230    7.2510 C.2       1 1L7         0.1694
      2 N12         9.1460   -0.9330    8.7890 N.1       1 1L7        -0.3457
      3 C13         8.8140   -3.6310    6.4790 C.2       1 1L7         0.0165
      4 C15         7.6950   -2.0000    4.8750 C.ar      1 1L7        -0.0152
      5 C01        15.9550   -2.4780   10.6780 C.ar      1 1L7        -0.0685
      6 C02        15.2630   -1.4830   11.3760 C.ar      1 1L7        -0.0687
      7 C03        14.0060   -1.0730   10.9880 C.ar      1 1L7        -0.0685
      8 C04        13.4460   -1.6520    9.8870 C.ar      1 1L7        -0.0584
      9 C05        14.1490   -2.6330    9.2000 C.ar      1 1L7        -0.0211
     10 C06        15.4050   -3.0630    9.5850 C.ar      1 1L7        -0.0584
     11 C07        13.4750   -3.2640    7.9510 C.3       1 1L7         0.0637
     12 N08        12.1150   -2.7450    7.9460 N.am      1 1L7        -0.2750
     13 C09        11.1110   -3.5330    7.2590 C.2       1 1L7         0.2237
     14 C11         9.3840   -1.8280    8.1310 C.1       1 1L7         0.0948
     15 C14         7.5810   -2.9410    5.9240 C.ar      1 1L7         0.0249
     16 C16         6.5010   -1.4020    4.4010 C.ar      1 1L7         0.0197
     17 N17         5.3060   -1.6970    4.9050 N.ar      1 1L7        -0.2891
     18 C18         5.1730   -2.5870    5.8890 C.ar      1 1L7         0.0197
     19 C19         6.2880   -3.2480    6.4420 C.ar      1 1L7        -0.0152
     20 O20        11.4250   -4.5810    6.7120 O.2       1 1L7        -0.3873
     21 H1          8.9762   -4.6787    6.2301 H         1 1L7         0.1021
     22 H2          8.6590   -1.7457    4.4495 H         1 1L7         0.0789
     23 H3         16.9393   -2.7842   11.0135 H         1 1L7         0.0599
     24 H4         15.7261   -1.0239   12.2419 H         1 1L7         0.0559
     25 H5         13.4750   -0.3089   11.5441 H         1 1L7         0.0599
     26 H6         12.4608   -1.3490    9.5513 H         1 1L7         0.0557
     27 H7         15.9292   -3.8365    9.0355 H         1 1L7         0.0557
     28 H8         13.4685   -4.3612    8.0295 H         1 1L7         0.0682
     29 H9         14.0050   -2.9650    7.0346 H         1 1L7         0.0682
     30 H10        11.8836   -1.8828    8.3967 H         1 1L7         0.1866
     31 H11         6.5639   -0.6770    3.5976 H         1 1L7         0.0842
     32 H12         4.1834   -2.8074    6.2728 H         1 1L7         0.0842
     33 H13         6.1662   -3.9711    7.2404 H         1 1L7         0.0789
@<TRIPOS>BOND
     1    1    3 2  
     2   13    1 1  
     3    1   14 1  
     4   14    2 3  
     5    3   15 1  
     6   15    4 ar 
     7    4   16 ar 
     8    5    6 ar 
     9   10    5 ar 
    10    7    6 ar 
    11    8    7 ar 
    12    9    8 ar 
    13    9   10 ar 
    14   11    9 1  
    15   12   11 1  
    16   12   13 am 
    17   13   20 2  
    18   15   19 ar 
    19   16   17 ar 
    20   17   18 ar 
    21   18   19 ar 
    22    3   21 1  
    23    4   22 1  
    24    5   23 1  
    25    6   24 1  
    26    7   25 1  
    27    8   26 1  
    28   10   27 1  
    29   11   28 1  
    30   11   29 1  
    31   12   30 1  
    32   16   31 1  
    33   18   32 1  
    34   19   33 1  
@<TRIPOS>SUBSTRUCTURE
     1 1L7         1

