### 
### Created by X-TOOL on Mon Sep 10 21:13:14 2018
### 

@<TRIPOS>MOLECULE
4jjq_ligand
   49    48     1     0     0
SMALL
GAST_HUCK


@<TRIPOS>ATOM
      1 N          31.8560  -15.7300   -7.0450 N.4       1 ALA         0.2377
      2 CA         32.1210  -14.5460   -7.9140 C.3       1 ALA         0.0621
      3 C          33.5450  -14.0510   -7.6960 C.2       1 ALA         0.2265
      4 O          34.0830  -14.1650   -6.5940 O.2       1 ALA        -0.3907
      5 CB         31.1240  -13.4330   -7.6030 C.3       1 ALA        -0.0040
      6 N          34.1490  -13.5020   -8.7460 N.am      1 SER        -0.2589
      7 CA         35.5140  -12.9920   -8.6680 C.3       1 SER         0.1540
      8 C          35.8670  -12.2470   -9.9500 C.2       1 SER         0.2063
      9 O          35.0410  -12.1230  -10.8540 O.2       1 SER        -0.3943
     10 CB         36.5020  -14.1480   -8.4870 C.3       1 SER         0.0843
     11 OG         36.5930  -14.9240   -9.6750 O.3       1 SER        -0.3903
     12 N          37.0970  -11.7470  -10.0200 N.am      1 THR        -0.2613
     13 CA         37.5630  -11.0500  -11.2140 C.3       1 THR         0.1565
     14 C          38.0310  -12.1370  -12.1730 C.2       1 THR         0.2066
     15 O          38.2880  -13.2660  -11.7490 O.2       1 THR        -0.3943
     16 CB         38.7550  -10.1280  -10.9070 C.3       1 THR         0.0924
     17 OG1        39.8320  -10.9090  -10.3750 O.3       1 THR        -0.3874
     18 CG2        38.3610   -9.0570   -9.9020 C.3       1 THR        -0.0346
     19 N          38.1440  -11.8070  -13.4550 N.am      1 SER        -0.2627
     20 CA         38.5830  -12.7890  -14.4410 C.3       1 SER         0.1356
     21 C          40.0520  -13.1350  -14.2470 C.2       1 SER         0.1267
     22 O          40.4500  -14.1790  -14.8060 O.2       1 SER        -0.3724
     23 CB         38.3690  -12.2590  -15.8610 C.3       1 SER         0.0830
     24 OG         39.1750  -11.1200  -16.1070 O.3       1 SER        -0.3903
     25 H1         30.9126  -16.0520   -7.1944 H         1 ALA         0.2015
     26 H2         31.9732  -15.4702   -6.0782 H         1 ALA         0.2015
     27 H3         32.5032  -16.4676   -7.2755 H         1 ALA         0.2015
     28 H4         32.0046  -14.8434   -8.9666 H         1 ALA         0.1095
     29 H5         31.3287  -12.5664   -8.2488 H         1 ALA         0.0310
     30 H6         31.2231  -13.1360   -6.5485 H         1 ALA         0.0310
     31 H7         30.1016  -13.7944   -7.7876 H         1 ALA         0.0310
     32 H8         33.6543  -13.4369   -9.6126 H         1 SER         0.1885
     33 H9         35.5938  -12.3058   -7.8120 H         1 SER         0.0823
     34 H10        36.1591  -14.7899   -7.6622 H         1 SER         0.0606
     35 H11        37.4946  -13.7399   -8.2458 H         1 SER         0.0606
     36 H12        35.7380  -15.2808   -9.8851 H         1 SER         0.2097
     37 H13        37.7140  -11.8506   -9.2399 H         1 THR         0.1884
     38 H14        36.7441  -10.4630  -11.6554 H         1 THR         0.0826
     39 H15        39.0830   -9.6427  -11.8381 H         1 THR         0.0639
     40 H16        40.0915  -11.5641  -11.0122 H         1 THR         0.2101
     41 H17        39.2268   -8.4100   -9.6973 H         1 THR         0.0257
     42 H18        38.0311   -9.5345   -8.9676 H         1 THR         0.0257
     43 H19        37.5402   -8.4516  -10.3141 H         1 THR         0.0257
     44 H20        37.9259  -10.8759  -13.7473 H         1 SER         0.1885
     45 H21        37.9856  -13.7034  -14.3112 H         1 SER         0.0813
     46 H22        40.7179  -12.5088  -13.6551 H         1 SER         0.1374
     47 H23        37.3112  -11.9845  -15.9865 H         1 SER         0.0607
     48 H24        38.6313  -13.0472  -16.5820 H         1 SER         0.0607
     49 H25        38.9497  -10.4345  -15.4890 H         1 SER         0.2097
@<TRIPOS>BOND
     1    1    2 1  
     2    2    3 1  
     3    2    5 1  
     4    3    4 2  
     5    3    6 am 
     6    6    7 1  
     7    7    8 1  
     8    7   10 1  
     9    8    9 2  
    10    8   12 am 
    11   10   11 1  
    12   12   13 1  
    13   13   14 1  
    14   13   16 1  
    15   14   15 2  
    16   14   19 am 
    17   16   17 1  
    18   16   18 1  
    19   19   20 1  
    20   20   21 1  
    21   20   23 1  
    22   21   22 2  
    23   23   24 1  
    24    1   25 1  
    25    1   26 1  
    26    1   27 1  
    27    2   28 1  
    28    5   29 1  
    29    5   30 1  
    30    5   31 1  
    31    6   32 1  
    32    7   33 1  
    33   10   34 1  
    34   10   35 1  
    35   11   36 1  
    36   12   37 1  
    37   13   38 1  
    38   16   39 1  
    39   17   40 1  
    40   18   41 1  
    41   18   42 1  
    42   18   43 1  
    43   19   44 1  
    44   20   45 1  
    45   21   46 1  
    46   23   47 1  
    47   23   48 1  
    48   24   49 1  
@<TRIPOS>SUBSTRUCTURE
     1 ALA         1

