### 
### Created by X-TOOL on Mon Sep 10 21:13:15 2018
### 

@<TRIPOS>MOLECULE
4jjs_ligand
   60    62     1     0     0
SMALL
GAST_HUCK


@<TRIPOS>ATOM
      1 C1        -27.0710   47.3740   55.3270 C.3       1 1M9        -0.0325
      2 C2        -27.4580   47.7690   53.8720 C.3       1 1M9        -0.0481
      3 C3        -28.1150   49.1690   53.7900 C.3       1 1M9        -0.0436
      4 C4        -27.2200   50.2250   54.4610 C.3       1 1M9        -0.0481
      5 C5        -26.8680   49.8560   55.9130 C.3       1 1M9        -0.0325
      6 C6        -26.1780   48.4640   55.9750 C.3       1 1M9         0.0547
      7 C7        -25.8670   48.1260   57.4560 C.2       1 1M9         0.2091
      8 O8        -26.7700   47.7270   58.1870 O.2       1 1M9        -0.3844
      9 C9        -24.2470   47.9710   59.3850 C.3       1 1M9         0.0606
     10 N10       -24.5320   48.2980   57.9310 N.am      1 1M9        -0.2181
     11 C11       -23.4460   48.7730   57.0930 C.ar      1 1M9         0.0774
     12 C12       -22.6080   47.9020   56.2760 C.ar      1 1M9         0.0264
     13 C13       -21.5620   48.4760   55.5010 C.ar      1 1M9        -0.0226
     14 C14       -21.3380   49.8580   55.5280 C.ar      1 1M9         0.1190
     15 C15       -22.1700   50.7180   56.3250 C.ar      1 1M9        -0.0338
     16 C16       -23.2030   50.1850   57.0980 C.ar      1 1M9        -0.0410
     17 C17       -22.8110   46.4450   56.2150 C.2       1 1M9         0.0533
     18 O18       -21.6420   45.7530   56.0390 O.co2     1 1M9        -0.5656
     19 O19       -23.8840   45.8660   56.3000 O.co2     1 1M9        -0.5656
     20 O20       -20.2890   50.3140   54.7550 O.3       1 1M9        -0.2392
     21 C21       -19.4290   51.2720   55.2960 C.ar      1 1M9         0.1526
     22 C22       -18.8310   51.1060   56.5970 C.ar      1 1M9         0.0035
     23 C23       -17.9650   52.1010   57.1220 C.ar      1 1M9        -0.0419
     24 C24       -17.6680   53.2580   56.3550 C.ar      1 1M9        -0.0434
     25 C25       -18.2490   53.4330   55.0590 C.ar      1 1M9        -0.0402
     26 C26       -19.1350   52.4310   54.5050 C.ar      1 1M9         0.0768
     27 C27       -19.7560   52.6000   53.1140 C.3       1 1M9         0.3645
     28 C28       -28.3700   49.6040   52.3320 C.3       1 1M9        -0.0624
     29 C29       -22.9310   47.1980   59.7020 C.3       1 1M9        -0.0369
     30 C30       -24.2860   49.2430   60.2430 C.3       1 1M9        -0.0369
     31 F31       -19.4010   53.7750   52.4950 F         1 1M9        -0.2347
     32 F32       -19.3660   51.6320   52.2650 F         1 1M9        -0.2347
     33 F33       -21.1200   52.5250   53.0860 F         1 1M9        -0.2347
     34 H1        -26.5208   46.4217   55.3079 H         1 1M9         0.0292
     35 H2        -27.9871   47.2564   55.9245 H         1 1M9         0.0292
     36 H3        -28.1666   47.0239   53.4812 H         1 1M9         0.0269
     37 H4        -26.5485   47.7699   53.2534 H         1 1M9         0.0269
     38 H5        -29.0786   49.1287   54.3190 H         1 1M9         0.0298
     39 H6        -27.7491   51.1894   54.4596 H         1 1M9         0.0269
     40 H7        -26.2882   50.3171   53.8838 H         1 1M9         0.0269
     41 H8        -27.7900   49.8288   56.5123 H         1 1M9         0.0292
     42 H9        -26.1862   50.6154   56.3233 H         1 1M9         0.0292
     43 H10       -25.2312   48.5124   55.4171 H         1 1M9         0.0543
     44 H11       -25.0719   47.3222   59.7144 H         1 1M9         0.0617
     45 H12       -20.9351   47.8401   54.8864 H         1 1M9         0.0566
     46 H13       -21.9940   51.7876   56.3257 H         1 1M9         0.0558
     47 H14       -23.8212   50.8393   57.7020 H         1 1M9         0.0497
     48 H15       -19.0438   50.2160   57.1781 H         1 1M9         0.0634
     49 H16       -17.5310   51.9773   58.1076 H         1 1M9         0.0816
     50 H17       -16.9984   54.0120   56.7527 H         1 1M9         0.0622
     51 H18       -18.0233   54.3251   54.4861 H         1 1M9         0.0796
     52 H19       -29.0095   48.8603   51.8340 H         1 1M9         0.0232
     53 H20       -27.4109   49.6788   51.7986 H         1 1M9         0.0232
     54 H21       -28.8715   50.5830   52.3238 H         1 1M9         0.0232
     55 H22       -22.8560   47.0311   60.7867 H         1 1M9         0.0257
     56 H23       -22.0677   47.7885   59.3614 H         1 1M9         0.0257
     57 H24       -22.9406   46.2289   59.1817 H         1 1M9         0.0257
     58 H25       -24.0773   48.9845   61.2916 H         1 1M9         0.0257
     59 H26       -25.2821   49.7039   60.1703 H         1 1M9         0.0257
     60 H27       -23.5266   49.9522   59.8821 H         1 1M9         0.0257
@<TRIPOS>BOND
     1    1    2 1  
     2    1    6 1  
     3    2    3 1  
     4    3    4 1  
     5    3   28 1  
     6    4    5 1  
     7    5    6 1  
     8    6    7 1  
     9    7    8 2  
    10    7   10 am 
    11   10    9 1  
    12    9   29 1  
    13    9   30 1  
    14   10   11 1  
    15   11   12 ar 
    16   11   16 ar 
    17   12   13 ar 
    18   12   17 1  
    19   13   14 ar 
    20   14   15 ar 
    21   14   20 1  
    22   15   16 ar 
    23   17   18 ar 
    24   17   19 ar 
    25   20   21 1  
    26   21   22 ar 
    27   21   26 ar 
    28   22   23 ar 
    29   23   24 ar 
    30   24   25 ar 
    31   25   26 ar 
    32   26   27 1  
    33   27   31 1  
    34   27   32 1  
    35   27   33 1  
    36    1   34 1  
    37    1   35 1  
    38    2   36 1  
    39    2   37 1  
    40    3   38 1  
    41    4   39 1  
    42    4   40 1  
    43    5   41 1  
    44    5   42 1  
    45    6   43 1  
    46    9   44 1  
    47   13   45 1  
    48   15   46 1  
    49   16   47 1  
    50   22   48 1  
    51   23   49 1  
    52   24   50 1  
    53   25   51 1  
    54   28   52 1  
    55   28   53 1  
    56   28   54 1  
    57   29   55 1  
    58   29   56 1  
    59   29   57 1  
    60   30   58 1  
    61   30   59 1  
    62   30   60 1  
@<TRIPOS>SUBSTRUCTURE
     1 1M9         1

