### 
### Created by X-TOOL on Mon Sep 10 21:13:14 2018
### 

@<TRIPOS>MOLECULE
4jju_ligand
   43    46     1     0     0
SMALL
GAST_HUCK


@<TRIPOS>ATOM
      1 C1        -27.7350   49.5020   54.7240 C.ar      1 1MB         0.1341
      2 C2        -28.2620   49.7920   53.4440 C.ar      1 1MB        -0.0014
      3 C3        -28.3170   51.1340   53.0090 C.ar      1 1MB         0.1231
      4 C4        -27.8660   52.1880   53.8320 C.ar      1 1MB        -0.0389
      5 C5        -27.3460   51.8850   55.1110 C.ar      1 1MB        -0.0611
      6 C6        -27.2710   50.5370   55.5940 C.ar      1 1MB         0.0158
      7 C7        -26.6960   50.2500   56.9800 C.3       1 1MB         0.0922
      8 N8        -24.3510   47.3370   56.9180 N.2       1 1MB        -0.2519
      9 C9        -25.3170   48.1790   57.1920 C.2       1 1MB         0.1289
     10 N10       -25.3620   49.5530   56.9720 N.pl3     1 1MB        -0.2111
     11 C11       -24.1860   50.1540   56.3840 C.ar      1 1MB         0.0946
     12 C12       -23.0650   49.3040   56.0460 C.ar      1 1MB         0.0592
     13 C13       -21.8800   49.8200   55.4510 C.ar      1 1MB        -0.0123
     14 C14       -21.7860   51.2020   55.1860 C.ar      1 1MB         0.1294
     15 C15       -22.8520   52.0700   55.5040 C.ar      1 1MB        -0.0257
     16 C16       -24.0280   51.5490   56.0970 C.ar      1 1MB        -0.0315
     17 C17       -23.1870   47.8360   56.3340 C.2       1 1MB         0.1671
     18 O18       -22.2440   47.0730   56.0550 O.2       1 1MB        -0.3973
     19 F19       -19.4640   52.6360   52.2120 F         1 1MB        -0.2296
     20 O20       -20.6450   51.6630   54.6000 O.3       1 1MB        -0.2179
     21 C21       -19.8770   52.6570   55.2010 C.ar      1 1MB         0.2260
     22 N22       -19.5630   52.5540   56.5440 N.ar      1 1MB        -0.2339
     23 C23       -18.7950   53.5480   57.1080 C.ar      1 1MB         0.0285
     24 C24       -18.3210   54.6530   56.3800 C.ar      1 1MB        -0.0169
     25 C25       -18.6570   54.7400   54.9990 C.ar      1 1MB        -0.0218
     26 C26       -19.4560   53.7250   54.3720 C.ar      1 1MB         0.1061
     27 C27       -19.8510   53.7530   52.9010 C.3       1 1MB         0.3740
     28 F28       -28.8150   51.4050   51.8020 F         1 1MB        -0.1903
     29 F29       -19.3090   54.7960   52.1930 F         1 1MB        -0.2296
     30 F30       -21.2020   53.8440   52.7030 F         1 1MB        -0.2296
     31 F31       -27.6930   48.2250   55.1060 F         1 1MB        -0.1900
     32 H1        -28.6195   48.9932   52.8044 H         1 1MB         0.0572
     33 H2        -27.9176   53.2148   53.4884 H         1 1MB         0.0552
     34 H3        -26.9948   52.6926   55.7431 H         1 1MB         0.0537
     35 H4        -27.4114   49.6156   57.5238 H         1 1MB         0.0749
     36 H5        -26.5797   51.2077   57.5084 H         1 1MB         0.0749
     37 H6        -26.2032   47.7460   57.6536 H         1 1MB         0.1583
     38 H7        -21.0581   49.1578   55.2040 H         1 1MB         0.0591
     39 H8        -22.7713   53.1307   55.2954 H         1 1MB         0.0591
     40 H9        -24.8361   52.2287   56.3421 H         1 1MB         0.0550
     41 H10       -18.5448   53.4751   58.1602 H         1 1MB         0.1018
     42 H11       -17.7171   55.4169   56.8561 H         1 1MB         0.0701
     43 H12       -18.3055   55.5823   54.4142 H         1 1MB         0.0921
@<TRIPOS>BOND
     1    1    2 ar 
     2    6    1 ar 
     3    1   31 1  
     4    2    3 ar 
     5    4    3 ar 
     6    3   28 1  
     7    5    4 ar 
     8    6    5 ar 
     9    7    6 1  
    10   10    7 1  
    11    8    9 2  
    12   17    8 1  
    13   10    9 1  
    14   11   10 1  
    15   12   11 ar 
    16   16   11 ar 
    17   13   12 ar 
    18   12   17 1  
    19   14   13 ar 
    20   14   15 ar 
    21   20   14 1  
    22   15   16 ar 
    23   17   18 2  
    24   27   19 1  
    25   21   20 1  
    26   21   22 ar 
    27   26   21 ar 
    28   22   23 ar 
    29   24   23 ar 
    30   25   24 ar 
    31   26   25 ar 
    32   26   27 1  
    33   27   29 1  
    34   27   30 1  
    35    2   32 1  
    36    4   33 1  
    37    5   34 1  
    38    7   35 1  
    39    7   36 1  
    40    9   37 1  
    41   13   38 1  
    42   15   39 1  
    43   16   40 1  
    44   23   41 1  
    45   24   42 1  
    46   25   43 1  
@<TRIPOS>SUBSTRUCTURE
     1 1MB         1

