### 
### Created by X-TOOL on Mon Sep 10 21:13:16 2018
### 

@<TRIPOS>MOLECULE
4jkt_ligand
   59    62     1     0     0
SMALL
GAST_HUCK


@<TRIPOS>ATOM
      1 OAA        27.7460  -27.1070   -3.7930 O.2       1 04A        -0.3778
      2 OAB        14.3820  -26.5930   -0.0930 O.2       1 04A        -0.3778
      3 CAC        29.4820  -31.0090   -2.1260 C.ar      1 04A        -0.0684
      4 CAD        14.3500  -31.5390   -0.9900 C.ar      1 04A        -0.0684
      5 CAE        29.9070  -29.8820   -1.4840 C.ar      1 04A        -0.0681
      6 CAF        28.1070  -31.0800   -2.6960 C.ar      1 04A        -0.0681
      7 CAG        13.0490  -30.9200   -0.6070 C.ar      1 04A        -0.0681
      8 CAH        15.5220  -31.0320   -0.5080 C.ar      1 04A        -0.0681
      9 CAI        28.9890  -28.7150   -1.3450 C.ar      1 04A        -0.0579
     10 CAJ        27.2700  -30.0110   -2.5680 C.ar      1 04A        -0.0579
     11 CAK        13.0300  -29.8420    0.2300 C.ar      1 04A        -0.0579
     12 CAL        15.5000  -29.8560    0.4080 C.ar      1 04A        -0.0579
     13 CAM        21.5880  -23.9440    0.1980 C.3       1 04A         0.0092
     14 CAN        19.7710  -22.3890   -1.3000 C.3       1 04A         0.0092
     15 CAO        22.6650  -22.9550   -0.0900 C.3       1 04A         0.0235
     16 CAP        19.0250  -22.1220   -0.0380 C.3       1 04A         0.0235
     17 CAQ        26.8080  -27.6150   -1.7300 C.3       1 04A         0.0781
     18 CAR        14.3040  -28.1140    1.6740 C.3       1 04A         0.0781
     19 NAS        24.7810  -24.3040    0.1240 N.2       1 04A        -0.2882
     20 NAT        17.1430  -23.6170   -0.7820 N.2       1 04A        -0.2882
     21 NAU        25.7860  -24.9540   -0.6190 N.2       1 04A        -0.2759
     22 NAV        16.3540  -24.7200   -0.3910 N.2       1 04A        -0.2759
     23 NAW        26.4310  -25.4040   -2.9710 N.am      1 04A        -0.1939
     24 NAX        16.0570  -26.3060    1.4880 N.am      1 04A        -0.1939
     25 SAY        20.4970  -23.9890   -1.1820 S.3       1 04A        -0.1551
     26 SAZ        24.1590  -23.9360   -2.3240 S.3       1 04A         0.0620
     27 SBA        17.9810  -24.2830    1.5290 S.3       1 04A         0.0620
     28 CBB        27.0300  -26.7080   -2.8910 C.2       1 04A         0.2252
     29 CBC        14.8980  -26.9570    0.9510 C.2       1 04A         0.2252
     30 CBD        27.7290  -28.7780   -1.8640 C.ar      1 04A        -0.0236
     31 CBE        14.3100  -29.2890    0.7600 C.ar      1 04A        -0.0236
     32 CBF        23.8260  -23.7000   -0.6410 C.2       1 04A         0.0984
     33 CBG        18.0730  -23.2500    0.1460 C.2       1 04A         0.0984
     34 CBH        25.5800  -24.8490   -1.9590 C.2       1 04A         0.2169
     35 CBI        16.6860  -25.1930    0.8410 C.2       1 04A         0.2169
     36 H1         30.1491  -31.8580   -2.2219 H         1 04A         0.0561
     37 H2         14.3653  -32.3955   -1.6542 H         1 04A         0.0561
     38 H3         30.9101  -29.8353   -1.0758 H         1 04A         0.0600
     39 H4         27.7744  -31.9752   -3.2089 H         1 04A         0.0600
     40 H5         12.1203  -31.3251   -0.9923 H         1 04A         0.0600
     41 H6         16.4663  -31.4832   -0.7905 H         1 04A         0.0600
     42 H7         29.3219  -27.8194   -0.8331 H         1 04A         0.0561
     43 H8         26.2680  -30.0571   -2.9790 H         1 04A         0.0561
     44 H9         12.0859  -29.3883    0.5092 H         1 04A         0.0561
     45 H10        16.4287  -29.4517    0.7941 H         1 04A         0.0561
     46 H11        21.0354  -23.6405    1.0994 H         1 04A         0.0406
     47 H12        22.0292  -24.9392    0.3561 H         1 04A         0.0406
     48 H13        20.5578  -21.6322   -1.4347 H         1 04A         0.0406
     49 H14        19.0800  -22.3559   -2.1552 H         1 04A         0.0406
     50 H15        22.9568  -22.4383    0.8362 H         1 04A         0.0510
     51 H16        22.3099  -22.2177   -0.8250 H         1 04A         0.0510
     52 H17        18.4758  -21.1722   -0.1166 H         1 04A         0.0510
     53 H18        19.7226  -22.0731    0.8111 H         1 04A         0.0510
     54 H19        25.7651  -27.9648   -1.7250 H         1 04A         0.0666
     55 H20        27.0194  -27.0789   -0.7931 H         1 04A         0.0666
     56 H21        13.2711  -27.8777    1.9692 H         1 04A         0.0666
     57 H22        14.8998  -28.3377    2.5712 H         1 04A         0.0666
     58 H23        26.6192  -24.8499   -3.7819 H         1 04A         0.2394
     59 H24        16.4415  -26.6419    2.3479 H         1 04A         0.2394
@<TRIPOS>BOND
     1   28    1 2  
     2   29    2 2  
     3    5    3 ar 
     4    6    3 ar 
     5    7    4 ar 
     6    8    4 ar 
     7    9    5 ar 
     8   10    6 ar 
     9   11    7 ar 
    10   12    8 ar 
    11   30    9 ar 
    12   30   10 ar 
    13   31   11 ar 
    14   31   12 ar 
    15   13   15 1  
    16   25   13 1  
    17   16   14 1  
    18   14   25 1  
    19   15   32 1  
    20   33   16 1  
    21   28   17 1  
    22   17   30 1  
    23   29   18 1  
    24   18   31 1  
    25   19   21 1  
    26   32   19 2  
    27   22   20 1  
    28   20   33 2  
    29   21   34 2  
    30   35   22 2  
    31   23   28 am 
    32   34   23 1  
    33   24   29 am 
    34   24   35 1  
    35   32   26 1  
    36   26   34 1  
    37   33   27 1  
    38   27   35 1  
    39    3   36 1  
    40    4   37 1  
    41    5   38 1  
    42    6   39 1  
    43    7   40 1  
    44    8   41 1  
    45    9   42 1  
    46   10   43 1  
    47   11   44 1  
    48   12   45 1  
    49   13   46 1  
    50   13   47 1  
    51   14   48 1  
    52   14   49 1  
    53   15   50 1  
    54   15   51 1  
    55   16   52 1  
    56   16   53 1  
    57   17   54 1  
    58   17   55 1  
    59   18   56 1  
    60   18   57 1  
    61   23   58 1  
    62   24   59 1  
@<TRIPOS>SUBSTRUCTURE
     1 04A         1

