### 
### Created by X-TOOL on Mon Sep 10 21:13:15 2018
### 

@<TRIPOS>MOLECULE
4jlg_ligand
   60    63     1     0     0
SMALL
GAST_HUCK


@<TRIPOS>ATOM
      1 FAE       -19.1350    0.5040   -8.7550 F         1 1L8        -0.2204
      2 CBG       -18.3150    0.9600   -9.7730 C.3       1 1L8         0.3750
      3 FAF       -18.2630    2.2420   -9.7070 F         1 1L8        -0.2204
      4 FAG       -18.8660    0.6330  -10.8360 F         1 1L8        -0.2204
      5 CBB       -17.0030    0.3870   -9.7230 C.ar      1 1L8         0.0409
      6 CD2       -16.5220   -0.2050   -8.5520 C.ar      1 1L8        -0.0306
      7 CAJ       -16.1710    0.3900  -10.8500 C.ar      1 1L8        -0.0377
      8 CAH       -14.8870   -0.1890  -10.8020 C.ar      1 1L8        -0.0378
      9 CD1       -14.4250   -0.7730   -9.6250 C.ar      1 1L8        -0.0314
     10 CG        -15.2410   -0.7820   -8.4900 C.ar      1 1L8        -0.0100
     11 CB        -14.7910   -1.3760   -7.2960 C.3       1 1L8         0.0242
     12 CA        -14.0300   -0.4020   -6.3710 C.3       1 1L8         0.1362
     13 C         -13.3710   -1.1680   -5.2130 C.2       1 1L8         0.2023
     14 O         -13.8660   -1.1290   -4.0890 O.2       1 1L8        -0.3946
     15 NBF       -12.2420   -1.8480   -5.4920 N.am      1 1L8        -0.2715
     16 CAR       -11.5590   -1.9850   -6.8070 C.3       1 1L8         0.0340
     17 CAN       -10.1950   -2.5540   -6.5060 C.3       1 1L8        -0.0307
     18 CAO       -10.3810   -3.3380   -5.2180 C.3       1 1L8        -0.0307
     19 CAS       -11.5030   -2.6230   -4.4710 C.3       1 1L8         0.0340
     20 N         -14.9390    0.6090   -5.7820 N.am      1 1L8        -0.2244
     21 SBH       -14.3470    2.1290   -5.8790 S.o2      1 1L8         0.0652
     22 OAB       -12.8440    2.1680   -5.5540 O.2       1 1L8        -0.1512
     23 OAC       -15.0960    2.9750   -4.8490 O.2       1 1L8        -0.1512
     24 CBC       -14.5980    2.8460   -7.4810 C.ar      1 1L8         0.0932
     25 CAM       -15.6460    3.7460   -7.7210 C.ar      1 1L8        -0.0439
     26 CBA       -15.8390    4.3000   -8.9920 C.ar      1 1L8        -0.0308
     27 CAQ       -16.9090    5.1940   -9.1770 C.3       1 1L8         0.0181
     28 CAP       -17.3090    5.2470  -10.6510 C.3       1 1L8        -0.0240
     29 NAV       -16.1180    5.5350  -11.4760 N.4       1 1L8         0.2389
     30 CAT       -15.1170    4.4530  -11.3490 C.3       1 1L8        -0.0012
     31 CBD       -14.9760    3.9400  -10.0440 C.ar      1 1L8         0.0369
     32 CAZ       -13.9250    3.0450   -9.7870 C.ar      1 1L8         0.1336
     33 FAD       -13.1120    2.6960  -10.7210 F         1 1L8        -0.1908
     34 CAL       -13.7440    2.5030   -8.5220 C.ar      1 1L8        -0.0151
     35 H1        -17.1518   -0.2198   -7.6698 H         1 1L8         0.0780
     36 H2        -16.5193    0.8435  -11.7709 H         1 1L8         0.0802
     37 H3        -14.2569   -0.1798  -11.6840 H         1 1L8         0.0683
     38 H4        -13.4374   -1.2184   -9.5892 H         1 1L8         0.0803
     39 H5        -14.1192   -2.2082   -7.5530 H         1 1L8         0.0475
     40 H6        -15.6635   -1.7642   -6.7501 H         1 1L8         0.0475
     41 H7        -13.2540    0.1089   -6.9599 H         1 1L8         0.0777
     42 H8        -11.4652   -1.0030   -7.2938 H         1 1L8         0.0522
     43 H9        -12.1220   -2.6665   -7.4616 H         1 1L8         0.0522
     44 H10        -9.4601   -1.7474   -6.3667 H         1 1L8         0.0285
     45 H11        -9.8628   -3.2164   -7.3189 H         1 1L8         0.0285
     46 H12        -9.4553   -3.3286   -4.6239 H         1 1L8         0.0285
     47 H13       -10.6654   -4.3777   -5.4373 H         1 1L8         0.0285
     48 H14       -12.1690   -3.3546   -3.9901 H         1 1L8         0.0522
     49 H15       -11.0857   -1.9497   -3.7078 H         1 1L8         0.0522
     50 H16       -15.8216    0.3848   -5.3687 H         1 1L8         0.1707
     51 H17       -16.3152    4.0162   -6.9122 H         1 1L8         0.0524
     52 H18       -16.6036    6.1982   -8.8479 H         1 1L8         0.0462
     53 H19       -17.7695    4.8582   -8.5797 H         1 1L8         0.0462
     54 H20       -18.0576    6.0392  -10.7992 H         1 1L8         0.0836
     55 H21       -17.7361    4.2783  -10.9498 H         1 1L8         0.0836
     56 H22       -15.7067    6.4032  -11.1709 H         1 1L8         0.2027
     57 H23       -16.3964    5.6160  -12.4414 H         1 1L8         0.2027
     58 H24       -14.1418    4.8471  -11.6708 H         1 1L8         0.0955
     59 H25       -15.4161    3.6281  -12.0123 H         1 1L8         0.0955
     60 H26       -12.9313    1.8078   -8.3451 H         1 1L8         0.0548
@<TRIPOS>BOND
     1    1    2 1  
     2    2    3 1  
     3    2    4 1  
     4    2    5 1  
     5    5    6 ar 
     6    5    7 ar 
     7    6   10 ar 
     8    7    8 ar 
     9    8    9 ar 
    10    9   10 ar 
    11   10   11 1  
    12   11   12 1  
    13   12   13 1  
    14   12   20 1  
    15   13   14 2  
    16   13   15 am 
    17   15   16 1  
    18   15   19 1  
    19   16   17 1  
    20   17   18 1  
    21   18   19 1  
    22   20   21 am 
    23   21   22 2  
    24   21   23 2  
    25   21   24 1  
    26   24   25 ar 
    27   24   34 ar 
    28   25   26 ar 
    29   26   27 1  
    30   26   31 ar 
    31   27   28 1  
    32   28   29 1  
    33   29   30 1  
    34   30   31 1  
    35   31   32 ar 
    36   32   33 1  
    37   32   34 ar 
    38    6   35 1  
    39    7   36 1  
    40    8   37 1  
    41    9   38 1  
    42   11   39 1  
    43   11   40 1  
    44   12   41 1  
    45   16   42 1  
    46   16   43 1  
    47   17   44 1  
    48   17   45 1  
    49   18   46 1  
    50   18   47 1  
    51   19   48 1  
    52   19   49 1  
    53   20   50 1  
    54   25   51 1  
    55   27   52 1  
    56   27   53 1  
    57   28   54 1  
    58   28   55 1  
    59   29   56 1  
    60   29   57 1  
    61   30   58 1  
    62   30   59 1  
    63   34   60 1  
@<TRIPOS>SUBSTRUCTURE
     1 1L8         1

