### 
### Created by X-TOOL on Mon Sep 10 21:13:14 2018
### 

@<TRIPOS>MOLECULE
4jlh_ligand
   39    41     1     0     0
SMALL
GAST_HUCK


@<TRIPOS>ATOM
      1 CL1       -32.2180   14.7870  -18.5140 Cl        1 0L9        -0.0695
      2 C19       -30.5310   14.8500  -18.0540 C.ar      1 0L9         0.0415
      3 C20       -29.5640   14.6030  -19.0320 C.ar      1 0L9        -0.0464
      4 C21       -28.2340   14.6940  -18.6320 C.ar      1 0L9        -0.0522
      5 C18       -30.2580   15.1240  -16.7320 C.ar      1 0L9        -0.0464
      6 C17       -28.9280   15.2020  -16.3520 C.ar      1 0L9        -0.0522
      7 C10       -27.9230   14.9840  -17.3120 C.ar      1 0L9        -0.0125
      8 C9        -26.4990   15.0230  -16.8690 C.ar      1 0L9         0.0111
      9 C8        -25.7740   13.8300  -16.7240 C.ar      1 0L9         0.0409
     10 C11       -26.4010   12.5300  -17.0910 C.3       1 0L9         0.1496
     11 O13       -26.2490   11.5800  -16.0260 O.3       1 0L9        -0.3529
     12 C14       -27.3330   11.7290  -15.0730 C.3       1 0L9         0.0417
     13 C12       -25.8110   12.0410  -18.4120 C.2       1 0L9         0.0766
     14 O1        -25.5970   10.8160  -18.5660 O.co2     1 0L9        -0.5639
     15 O2        -25.5740   12.8720  -19.3450 O.co2     1 0L9        -0.5639
     16 C5        -25.8860   16.2280  -16.5190 C.ar      1 0L9         0.0045
     17 C6        -26.5570   17.4570  -16.6180 C.ar      1 0L9        -0.0420
     18 C1        -25.8410   18.6080  -16.2640 C.ar      1 0L9         0.0137
     19 BR        -26.7060   20.2660  -16.3770 Br        1 0L9        -0.0502
     20 C2        -24.5290   18.6030  -15.8360 C.ar      1 0L9        -0.0526
     21 C3        -23.8610   17.3970  -15.7610 C.ar      1 0L9        -0.0454
     22 C4        -24.5630   16.2280  -16.1030 C.ar      1 0L9         0.0329
     23 N         -23.8800   15.0820  -15.9940 N.ar      1 0L9        -0.3041
     24 C7        -24.4290   13.8950  -16.2910 C.ar      1 0L9         0.0329
     25 C16       -23.4760   12.7480  -16.1220 C.3       1 0L9        -0.0144
     26 H1        -29.8360   14.3531  -20.0511 H         1 0L9         0.0625
     27 H2        -27.4400   14.5380  -19.3533 H         1 0L9         0.0631
     28 H3        -31.0561   15.2734  -16.0138 H         1 0L9         0.0625
     29 H4        -28.6644   15.4287  -15.3253 H         1 0L9         0.0631
     30 H5        -27.4782   12.6940  -17.2414 H         1 0L9         0.0935
     31 H6        -27.2097   10.9981  -14.2603 H         1 0L9         0.0527
     32 H7        -28.2935   11.5550  -15.5800 H         1 0L9         0.0527
     33 H8        -27.3175   12.7468  -14.6562 H         1 0L9         0.0527
     34 H9        -27.5860   17.5131  -16.9543 H         1 0L9         0.0665
     35 H10       -24.0328   19.5276  -15.5641 H         1 0L9         0.0640
     36 H11       -22.8243   17.3528  -15.4472 H         1 0L9         0.0617
     37 H12       -22.5048   13.1269  -15.7710 H         1 0L9         0.0426
     38 H13       -23.3430   12.2365  -17.0867 H         1 0L9         0.0426
     39 H14       -23.8816   12.0399  -15.3844 H         1 0L9         0.0426
@<TRIPOS>BOND
     1    1    2 1  
     2    2    3 ar 
     3    2    5 ar 
     4    3    4 ar 
     5    4    7 ar 
     6    5    6 ar 
     7    6    7 ar 
     8    7    8 1  
     9    8    9 ar 
    10    8   16 ar 
    11    9   10 1  
    12    9   24 ar 
    13   10   11 1  
    14   10   13 1  
    15   11   12 1  
    16   13   14 ar 
    17   13   15 ar 
    18   16   17 ar 
    19   16   22 ar 
    20   17   18 ar 
    21   18   19 1  
    22   18   20 ar 
    23   20   21 ar 
    24   21   22 ar 
    25   22   23 ar 
    26   23   24 ar 
    27   24   25 1  
    28    3   26 1  
    29    4   27 1  
    30    5   28 1  
    31    6   29 1  
    32   10   30 1  
    33   12   31 1  
    34   12   32 1  
    35   12   33 1  
    36   17   34 1  
    37   20   35 1  
    38   21   36 1  
    39   25   37 1  
    40   25   38 1  
    41   25   39 1  
@<TRIPOS>SUBSTRUCTURE
     1 0L9         1

