### 
### Created by X-TOOL on Mon Sep 10 21:13:17 2018
### 

@<TRIPOS>MOLECULE
4jlm_ligand
   51    53     1     0     0
SMALL
GAST_HUCK


@<TRIPOS>ATOM
      1 FAE       -34.9970    7.1020    0.9140 F         1 1NN        -0.2463
      2 CAJ       -35.9710    7.9880    0.5270 C.3       1 1NN         0.1173
      3 CAL       -35.4420    8.7270   -0.6870 C.3       1 1NN         0.0961
      4 OAR       -36.5600    8.9910   -1.5340 O.3       1 1NN        -0.3185
      5 CAZ       -36.2370    9.9820   -2.3930 C.ar      1 1NN         0.1234
      6 CAI       -34.9010   10.3480   -2.6350 C.ar      1 1NN        -0.0283
      7 CAY       -37.3180   10.6020   -3.0410 C.ar      1 1NN         0.1239
      8 OAQ       -38.5840   10.1760   -2.7420 O.3       1 1NN        -0.3219
      9 CAB       -39.6130   10.9690   -3.4030 C.3       1 1NN         0.0581
     10 CAG       -37.0870   11.6270   -3.9540 C.ar      1 1NN        -0.0365
     11 CAF       -35.7730   12.0120   -4.1900 C.ar      1 1NN        -0.0673
     12 CAW       -34.7000   11.3780   -3.5640 C.ar      1 1NN        -0.0059
     13 CBC       -33.4890   11.8460   -3.8510 C.2       1 1NN         0.0911
     14 NAP       -32.3600   11.6260   -3.1480 N.2       1 1NN        -0.3234
     15 SAT       -33.2070   12.8700   -5.0860 S.3       1 1NN        -0.0153
     16 CBB       -31.6060   13.0360   -4.7610 C.2       1 1NN         0.0264
     17 CAK       -30.7030   13.9030   -5.6630 C.3       1 1NN        -0.0151
     18 CAA       -29.8090   14.8540   -4.8520 C.3       1 1NN        -0.0557
     19 CBA       -31.2980   12.2690   -3.6750 C.2       1 1NN         0.0084
     20 CAM       -29.9030   12.1100   -3.0280 C.3       1 1NN         0.0408
     21 SAS       -29.0630   10.4600   -3.2470 S.3       1 1NN        -0.0547
     22 C2        -27.3900   10.9170   -3.5990 C.ar      1 1NN         0.1331
     23 N3        -26.9740   12.1760   -3.5390 N.ar      1 1NN        -0.2611
     24 N1        -26.5040    9.9530   -3.9200 N.ar      1 1NN        -0.2611
     25 C6        -25.2210   10.2130   -4.1760 C.ar      1 1NN         0.1021
     26 NAC       -24.4170    9.2020   -4.4760 N.pl3     1 1NN        -0.3204
     27 C5        -24.7560   11.5150   -4.1300 C.ar      1 1NN         0.0131
     28 C4        -25.6940   12.4960   -3.8220 C.ar      1 1NN         0.1021
     29 NAD       -25.3000   13.7520   -3.7530 N.pl3     1 1NN        -0.3204
     30 H         -36.1799    8.6986    1.3402 H         1 1NN         0.0642
     31 H         -36.8926    7.4465    0.2675 H         1 1NN         0.0642
     32 H         -34.7053    8.1051   -1.2166 H         1 1NN         0.0635
     33 H         -34.9703    9.6716   -0.3785 H         1 1NN         0.0635
     34 H         -34.0736    9.8612   -2.1316 H         1 1NN         0.0527
     35 H         -40.6059   10.5838   -3.1279 H         1 1NN         0.0575
     36 H         -39.4832   10.9027   -4.4933 H         1 1NN         0.0575
     37 H         -39.5265   12.0189   -3.0866 H         1 1NN         0.0575
     38 H         -37.9099   12.1117   -4.4669 H         1 1NN         0.0524
     39 H         -35.5768   12.8261   -4.8784 H         1 1NN         0.0529
     40 H         -31.3402   14.5006   -6.3315 H         1 1NN         0.0420
     41 H         -30.0618   13.2405   -6.2630 H         1 1NN         0.0420
     42 H         -29.1873   15.4474   -5.5385 H         1 1NN         0.0252
     43 H         -29.1607   14.2676   -4.1843 H         1 1NN         0.0252
     44 H         -30.4390   15.5278   -4.2528 H         1 1NN         0.0252
     45 H         -30.0141   12.2869   -1.9480 H         1 1NN         0.0513
     46 H         -29.2455   12.8789   -3.4598 H         1 1NN         0.0513
     47 H         -23.4223    9.3774   -4.6776 H         1 1NN         0.1796
     48 H         -24.7873    8.2414   -4.5074 H         1 1NN         0.1796
     49 H         -23.7174   11.7580   -4.3233 H         1 1NN         0.0494
     50 H         -24.3233   13.9980   -3.9687 H         1 1NN         0.1796
     51 H         -25.9688   14.4875   -3.4834 H         1 1NN         0.1796
@<TRIPOS>BOND
     1    1    2 1  
     2    2    3 1  
     3    3    4 1  
     4    4    5 1  
     5    5    6 ar 
     6    5    7 ar 
     7    6   12 ar 
     8    7    8 1  
     9    7   10 ar 
    10    8    9 1  
    11   10   11 ar 
    12   11   12 ar 
    13   12   13 1  
    14   13   14 2  
    15   13   15 1  
    16   14   19 1  
    17   15   16 1  
    18   16   17 1  
    19   16   19 2  
    20   17   18 1  
    21   19   20 1  
    22   20   21 1  
    23   21   22 1  
    24   22   23 ar 
    25   22   24 ar 
    26   23   28 ar 
    27   24   25 ar 
    28   25   26 1  
    29   25   27 ar 
    30   27   28 ar 
    31   28   29 1  
    32    2   30 1  
    33    2   31 1  
    34    3   32 1  
    35    3   33 1  
    36    6   34 1  
    37    9   35 1  
    38    9   36 1  
    39    9   37 1  
    40   10   38 1  
    41   11   39 1  
    42   17   40 1  
    43   17   41 1  
    44   18   42 1  
    45   18   43 1  
    46   18   44 1  
    47   20   45 1  
    48   20   46 1  
    49   26   47 1  
    50   26   48 1  
    51   27   49 1  
    52   29   50 1  
    53   29   51 1  
@<TRIPOS>SUBSTRUCTURE
     1 1NN         1

