### 
### Created by X-TOOL on Mon Sep 10 21:13:18 2018
### 

@<TRIPOS>MOLECULE
4jln_ligand
   54    56     1     0     0
SMALL
GAST_HUCK


@<TRIPOS>ATOM
      1 FAE       -36.8990    8.1830    0.2640 F         1 18V        -0.2463
      2 CAK       -36.3200    7.5720   -0.9430 C.3       1 18V         0.1173
      3 CAL       -35.4290    8.5850   -1.6630 C.3       1 18V         0.0961
      4 OAS       -36.3010    9.6010   -2.1510 O.3       1 18V        -0.3185
      5 CBA       -35.8010   10.6330   -2.8840 C.ar      1 18V         0.1234
      6 CAI       -34.4360   10.9360   -3.0490 C.ar      1 18V        -0.0283
      7 CAZ       -36.7860   11.4090   -3.4790 C.ar      1 18V         0.1239
      8 OAR       -38.0750   11.0070   -3.2350 O.3       1 18V        -0.3219
      9 CAB       -39.0660   11.2220   -4.2630 C.3       1 18V         0.0581
     10 CAG       -36.4370   12.5190   -4.2460 C.ar      1 18V        -0.0365
     11 CAF       -35.0830   12.8180   -4.4150 C.ar      1 18V        -0.0673
     12 CAX       -34.0740   12.0340   -3.8350 C.ar      1 18V        -0.0059
     13 CBD       -32.7890   12.3860   -4.0070 C.2       1 18V         0.0911
     14 NAQ       -31.7940   12.0650   -3.1870 N.2       1 18V        -0.3234
     15 SAU       -32.1670   13.3220   -5.2090 S.3       1 18V        -0.0153
     16 CBC       -30.6660   13.3100   -4.6920 C.2       1 18V         0.0266
     17 CAM       -29.4860   14.0130   -5.3720 C.3       1 18V        -0.0125
     18 CAJ       -29.7520   15.5220   -5.4510 C.3       1 18V        -0.0464
     19 CAA       -28.9060   16.2520   -4.4020 C.3       1 18V        -0.0635
     20 CBB       -30.6200   12.5880   -3.5710 C.2       1 18V         0.0084
     21 CAN       -29.3470   12.3250   -2.7830 C.3       1 18V         0.0408
     22 SAT       -28.6010   10.7820   -3.3820 S.3       1 18V        -0.0547
     23 C2        -26.9200   11.1960   -3.6660 C.ar      1 18V         0.1331
     24 N3        -26.5340   12.4780   -3.7210 N.ar      1 18V        -0.2611
     25 N1        -26.0240   10.2070   -3.8390 N.ar      1 18V        -0.2611
     26 C6        -24.7120   10.4580   -4.0590 C.ar      1 18V         0.1021
     27 NAC       -23.8390    9.4470   -4.2120 N.pl3     1 18V        -0.3204
     28 C5        -24.2790   11.7850   -4.1070 C.ar      1 18V         0.0131
     29 C4        -25.2360   12.7880   -3.9270 C.ar      1 18V         0.1021
     30 NAD       -24.8800   14.0650   -3.9780 N.pl3     1 18V        -0.3204
     31 H         -37.1303    7.2557   -1.6163 H         1 18V         0.0642
     32 H         -35.7188    6.6966   -0.6562 H         1 18V         0.0642
     33 H         -34.8999    8.1026   -2.4980 H         1 18V         0.0635
     34 H         -34.6964    9.0142   -0.9636 H         1 18V         0.0635
     35 H         -33.6763   10.3264   -2.5732 H         1 18V         0.0527
     36 H         -40.0408   10.8482   -3.9165 H         1 18V         0.0575
     37 H         -38.7703   10.6839   -5.1757 H         1 18V         0.0575
     38 H         -39.1419   12.2977   -4.4799 H         1 18V         0.0575
     39 H         -37.2010   13.1380   -4.7023 H         1 18V         0.0524
     40 H         -34.8040   13.6796   -5.0107 H         1 18V         0.0529
     41 H         -29.3587   13.6115   -6.3881 H         1 18V         0.0423
     42 H         -28.5701   13.8342   -4.7896 H         1 18V         0.0423
     43 H         -30.8178   15.7158   -5.2602 H         1 18V         0.0285
     44 H         -29.4865   15.8880   -6.4538 H         1 18V         0.0285
     45 H         -29.0999   17.3331   -4.4623 H         1 18V         0.0231
     46 H         -27.8398   16.0596   -4.5922 H         1 18V         0.0231
     47 H         -29.1712   15.8874   -3.3986 H         1 18V         0.0231
     48 H         -29.5865   12.2297   -1.7136 H         1 18V         0.0513
     49 H         -28.6429   13.1575   -2.9284 H         1 18V         0.0513
     50 H         -22.8427    9.6477   -4.3790 H         1 18V         0.1796
     51 H         -24.1666    8.4717   -4.1622 H         1 18V         0.1796
     52 H         -23.2367   12.0288   -4.2780 H         1 18V         0.0494
     53 H         -23.8941   14.3189   -4.1344 H         1 18V         0.1796
     54 H         -25.5895   14.8025   -3.8612 H         1 18V         0.1796
@<TRIPOS>BOND
     1    1    2 1  
     2    2    3 1  
     3    3    4 1  
     4    4    5 1  
     5    5    6 ar 
     6    5    7 ar 
     7    6   12 ar 
     8    7    8 1  
     9    7   10 ar 
    10    8    9 1  
    11   10   11 ar 
    12   11   12 ar 
    13   12   13 1  
    14   13   14 2  
    15   13   15 1  
    16   14   20 1  
    17   15   16 1  
    18   16   17 1  
    19   16   20 2  
    20   17   18 1  
    21   18   19 1  
    22   20   21 1  
    23   21   22 1  
    24   22   23 1  
    25   23   24 ar 
    26   23   25 ar 
    27   24   29 ar 
    28   25   26 ar 
    29   26   27 1  
    30   26   28 ar 
    31   28   29 ar 
    32   29   30 1  
    33    2   31 1  
    34    2   32 1  
    35    3   33 1  
    36    3   34 1  
    37    6   35 1  
    38    9   36 1  
    39    9   37 1  
    40    9   38 1  
    41   10   39 1  
    42   11   40 1  
    43   17   41 1  
    44   17   42 1  
    45   18   43 1  
    46   18   44 1  
    47   19   45 1  
    48   19   46 1  
    49   19   47 1  
    50   21   48 1  
    51   21   49 1  
    52   27   50 1  
    53   27   51 1  
    54   28   52 1  
    55   30   53 1  
    56   30   54 1  
@<TRIPOS>SUBSTRUCTURE
     1 18V         1

