### 
### Created by X-TOOL on Mon Sep 10 21:13:14 2018
### 

@<TRIPOS>MOLECULE
4jmu_ligand
   75    78     1     0     0
SMALL
GAST_HUCK


@<TRIPOS>ATOM
      1 C01        19.0790    1.5030   13.2800 C.ar      1 1ML         0.0236
      2 C02        19.3680    1.6130   14.6400 C.ar      1 1ML        -0.0276
      3 C03        18.3740    2.1030   15.5560 C.ar      1 1ML         0.1010
      4 C04        17.1050    2.4830   15.1070 C.ar      1 1ML        -0.0388
      5 C05        16.7960    2.3880   13.7410 C.ar      1 1ML        -0.0437
      6 C06        17.7820    1.8910   12.8040 C.ar      1 1ML         0.0746
      7 O07        18.6700    2.2400   16.8900 O.3       1 1ML        -0.2760
      8 C08        19.4470    1.2950   17.5430 C.ar      1 1ML         0.0976
      9 C09        20.1960    1.8310   18.6160 C.ar      1 1ML        -0.0417
     10 C10        21.0370    0.9870   19.3810 C.ar      1 1ML        -0.0482
     11 C11        21.1450   -0.3560   19.0860 C.ar      1 1ML         0.0558
     12 C12        20.3930   -0.9240   17.9920 C.ar      1 1ML        -0.0482
     13 C13        19.5570   -0.1130   17.2060 C.ar      1 1ML        -0.0417
     14 C14        20.1550    0.9600   12.3830 C.2       1 1ML         0.0526
     15 O15        21.2770    1.6030   12.3970 O.co2     1 1ML        -0.5657
     16 O16        19.8540   -0.0440   11.6480 O.co2     1 1ML        -0.5657
     17 N17        17.4140    1.8000   11.4330 N.am      1 1ML        -0.2198
     18 C18        17.6960    2.9210   10.4630 C.3       1 1ML         0.0599
     19 C19        17.3510    4.3140   11.0070 C.3       1 1ML        -0.0371
     20 C20        19.1680    2.9420    9.9590 C.3       1 1ML        -0.0371
     21 C21        16.7700    0.6730   10.9480 C.2       1 1ML         0.2081
     22 C23        16.4310   -0.5260   11.9490 C.3       1 1ML         0.0545
     23 O22        16.4450    0.6070    9.7790 O.2       1 1ML        -0.3850
     24 C24        14.9600   -0.3200   12.4090 C.3       1 1ML        -0.0325
     25 C25        14.5260   -1.3980   13.4170 C.3       1 1ML        -0.0481
     26 C26        14.5860   -2.7810   12.7610 C.3       1 1ML        -0.0436
     27 C27        16.0150   -3.0660   12.1880 C.3       1 1ML        -0.0481
     28 C28        16.5490   -1.9140   11.2620 C.3       1 1ML        -0.0325
     29 C29        14.1930   -3.8680   13.8010 C.3       1 1ML        -0.0624
     30 N30        21.9490   -1.1280   19.9370 N.am      1 1ML        -0.2406
     31 C31        22.2020   -2.4630   20.0190 C.2       1 1ML         0.2216
     32 O32        21.7930   -3.3260   19.2150 O.2       1 1ML        -0.3796
     33 C33        23.0460   -2.9140   21.1900 C.ar      1 1ML         0.0440
     34 C34        23.4270   -4.2830   21.3020 C.ar      1 1ML        -0.0500
     35 C35        24.2150   -4.6900   22.3620 C.ar      1 1ML        -0.0269
     36 C36        24.6580   -3.7660   23.3270 C.ar      1 1ML         0.0962
     37 C37        24.2760   -2.4040   23.2360 C.ar      1 1ML        -0.0269
     38 C38        23.4850   -1.9660   22.1530 C.ar      1 1ML        -0.0500
     39 O39        25.4500   -4.0880   24.3870 O.3       1 1ML        -0.3178
     40 C40        26.4210   -5.1320   24.1350 C.3       1 1ML         0.0607
     41 H1         20.3468    1.3277   15.0082 H         1 1ML         0.0545
     42 H2         16.3648    2.8486   15.8095 H         1 1ML         0.0538
     43 H3         15.8164    2.6876   13.3865 H         1 1ML         0.0489
     44 H4         20.1264    2.8866   18.8525 H         1 1ML         0.0515
     45 H5         21.6024    1.4011   20.2080 H         1 1ML         0.0480
     46 H6         20.4739   -1.9831   17.7756 H         1 1ML         0.0480
     47 H7         19.0078   -0.5283   16.3688 H         1 1ML         0.0515
     48 H8         17.0520    2.7430    9.5892 H         1 1ML         0.0615
     49 H9         17.5836    5.0729   10.2455 H         1 1ML         0.0256
     50 H10        17.9426    4.5106   11.9132 H         1 1ML         0.0256
     51 H11        16.2795    4.3569   11.2521 H         1 1ML         0.0256
     52 H12        19.3039    3.7796    9.2590 H         1 1ML         0.0256
     53 H13        19.3936    1.9953    9.4462 H         1 1ML         0.0256
     54 H14        19.8471    3.0660   10.8154 H         1 1ML         0.0256
     55 H15        17.1108   -0.4901   12.8131 H         1 1ML         0.0543
     56 H16        14.3009   -0.3675   11.5296 H         1 1ML         0.0292
     57 H17        14.8691    0.6687   12.8824 H         1 1ML         0.0292
     58 H18        13.4964   -1.1954   13.7468 H         1 1ML         0.0269
     59 H19        15.2002   -1.3772   14.2859 H         1 1ML         0.0269
     60 H20        13.8650   -2.8085   11.9307 H         1 1ML         0.0298
     61 H21        15.9784   -3.9968   11.6030 H         1 1ML         0.0269
     62 H22        16.7117   -3.1894   13.0302 H         1 1ML         0.0269
     63 H23        17.6060   -2.1068   11.0262 H         1 1ML         0.0292
     64 H24        15.9619   -1.9028   10.3318 H         1 1ML         0.0292
     65 H25        13.1880   -3.6536   14.1934 H         1 1ML         0.0232
     66 H26        14.9182   -3.8634   14.6281 H         1 1ML         0.0232
     67 H27        14.1947   -4.8559   13.3173 H         1 1ML         0.0232
     68 H28        22.4356   -0.5877   20.6235 H         1 1ML         0.2216
     69 H29        23.1002   -5.0016   20.5591 H         1 1ML         0.0642
     70 H30        24.4952   -5.7333   22.4513 H         1 1ML         0.0556
     71 H31        24.5912   -1.6999   23.9975 H         1 1ML         0.0556
     72 H32        23.2158   -0.9204   22.0569 H         1 1ML         0.0642
     73 H33        27.0066   -5.3161   25.0478 H         1 1ML         0.0580
     74 H34        27.0948   -4.8181   23.3242 H         1 1ML         0.0580
     75 H35        25.8993   -6.0549   23.8417 H         1 1ML         0.0580
@<TRIPOS>BOND
     1    1    2 ar 
     2    1    6 ar 
     3    1   14 1  
     4    2    3 ar 
     5    3    4 ar 
     6    3    7 1  
     7    4    5 ar 
     8    5    6 ar 
     9    6   17 1  
    10    7    8 1  
    11    8    9 ar 
    12    8   13 ar 
    13    9   10 ar 
    14   10   11 ar 
    15   11   12 ar 
    16   11   30 1  
    17   12   13 ar 
    18   14   15 ar 
    19   14   16 ar 
    20   17   18 1  
    21   17   21 am 
    22   18   19 1  
    23   18   20 1  
    24   21   22 1  
    25   21   23 2  
    26   22   24 1  
    27   22   28 1  
    28   24   25 1  
    29   25   26 1  
    30   26   27 1  
    31   26   29 1  
    32   27   28 1  
    33   30   31 am 
    34   31   32 2  
    35   31   33 1  
    36   33   34 ar 
    37   33   38 ar 
    38   34   35 ar 
    39   35   36 ar 
    40   36   37 ar 
    41   36   39 1  
    42   37   38 ar 
    43   39   40 1  
    44    2   41 1  
    45    4   42 1  
    46    5   43 1  
    47    9   44 1  
    48   10   45 1  
    49   12   46 1  
    50   13   47 1  
    51   18   48 1  
    52   19   49 1  
    53   19   50 1  
    54   19   51 1  
    55   20   52 1  
    56   20   53 1  
    57   20   54 1  
    58   22   55 1  
    59   24   56 1  
    60   24   57 1  
    61   25   58 1  
    62   25   59 1  
    63   26   60 1  
    64   27   61 1  
    65   27   62 1  
    66   28   63 1  
    67   28   64 1  
    68   29   65 1  
    69   29   66 1  
    70   29   67 1  
    71   30   68 1  
    72   34   69 1  
    73   35   70 1  
    74   37   71 1  
    75   38   72 1  
    76   40   73 1  
    77   40   74 1  
    78   40   75 1  
@<TRIPOS>SUBSTRUCTURE
     1 1ML         1

