### 
### Created by X-TOOL on Mon Sep 10 21:13:12 2018
### 

@<TRIPOS>MOLECULE
4jmx_ligand
   27    27     1     0     0
SMALL
GAST_HUCK


@<TRIPOS>ATOM
      1 C7         -8.0030   16.6780  -12.8940 C.2       1 IM2         0.1069
      2 C2        -10.9090   13.5380  -14.1040 C.2       1 IM2         0.0051
      3 C6         -9.2670   16.4050  -13.6970 C.3       1 IM2         0.0788
      4 C5        -10.3500   15.5530  -13.0160 C.3       1 IM2         0.0568
      5 C3         -9.9560   13.3050  -13.2290 C.2       1 IM2         0.0558
      6 O7         -6.9450   17.0620  -13.4740 O.2       1 IM2        -0.3745
      7 C61        -9.6770   17.8460  -14.0000 C.3       1 IM2         0.0728
      8 O62        -8.5060   18.5530  -14.4130 O.3       1 IM2        -0.3893
      9 C62       -10.2760   18.5860  -12.8160 C.3       1 IM2        -0.0364
     10 N4         -9.7620   14.3540  -12.4510 N.pl3     1 IM2        -0.3361
     11 C31        -9.1690   12.0970  -13.1620 C.2       1 IM2         0.0576
     12 O31        -8.6120   11.6830  -14.1900 O.co2     1 IM2        -0.5692
     13 O32        -9.0660   11.5290  -12.0720 O.co2     1 IM2        -0.5692
     14 S21       -11.5350   12.4160  -15.1690 S.3       1 IM2        -0.1335
     15 C1        -11.3460   14.9750  -14.0220 C.3       1 IM2         0.0045
     16 H1         -8.0087   16.5421  -11.8135 H         1 IM2         0.1353
     17 H2         -9.0036   15.8868  -14.6309 H         1 IM2         0.0578
     18 H3        -10.8625   16.1525  -12.2492 H         1 IM2         0.0586
     19 H4        -10.4148   17.8363  -14.8158 H         1 IM2         0.0620
     20 H5         -7.8620   18.5320  -13.7149 H         1 IM2         0.2100
     21 H6        -10.5416   19.6094  -13.1195 H         1 IM2         0.0256
     22 H7         -9.5414   18.6251  -11.9982 H         1 IM2         0.0256
     23 H8        -11.1788   18.0594  -12.4731 H         1 IM2         0.0256
     24 H9         -9.2560   14.3243  -11.5544 H         1 IM2         0.1642
     25 H10       -10.7991   12.0763  -15.7684 H         1 IM2         0.1193
     26 H11       -12.3793   15.0582  -13.6542 H         1 IM2         0.0429
     27 H12       -11.2630   15.4744  -14.9986 H         1 IM2         0.0429
@<TRIPOS>BOND
     1    3    1 1  
     2    1    6 2  
     3    2    5 2  
     4    2   14 1  
     5   15    2 1  
     6    4    3 1  
     7    3    7 1  
     8    4   10 1  
     9    4   15 1  
    10    5   10 1  
    11    5   11 1  
    12    7    8 1  
    13    7    9 1  
    14   11   12 ar 
    15   11   13 ar 
    16    1   16 1  
    17    3   17 1  
    18    4   18 1  
    19    7   19 1  
    20    8   20 1  
    21    9   21 1  
    22    9   22 1  
    23    9   23 1  
    24   10   24 1  
    25   14   25 1  
    26   15   26 1  
    27   15   27 1  
@<TRIPOS>SUBSTRUCTURE
     1 IM2         1

