### 
### Created by X-TOOL on Mon Sep 10 21:13:13 2018
### 

@<TRIPOS>MOLECULE
4jn2_ligand
   60    63     1     0     0
SMALL
GAST_HUCK


@<TRIPOS>ATOM
      1 C2        -37.6250   52.8690    0.1470 C.ar      1 4CC         0.0402
      2 N10       -39.0170   53.0290    0.0480 N.pl3     1 4CC        -0.3031
      3 C11       -39.9370   52.8580    1.1890 C.3       1 4CC         0.1065
      4 C12       -39.6760   53.9330    2.2230 C.2       1 4CC         0.1462
      5 N16       -39.3420   55.1590    1.9430 N.2       1 4CC        -0.3143
      6 C15       -39.1060   55.8450    3.1040 C.ar      1 4CC         0.0274
      7 C18       -38.7090   57.1600    3.4110 C.ar      1 4CC        -0.0442
      8 C19       -38.5660   57.5290    4.7600 C.ar      1 4CC         0.0404
      9 C40       -38.0740   58.8830    5.1270 C.2       1 4CC         0.2306
     10 O21       -38.3480   59.8250    4.4020 O.2       1 4CC        -0.3750
     11 N22       -37.2980   59.0420    6.2420 N.am      1 4CC        -0.2028
     12 C23       -36.2080   58.1760    6.4670 C.ar      1 4CC         0.1412
     13 C24       -35.4870   57.5720    5.4260 C.ar      1 4CC        -0.0130
     14 C25       -34.4590   56.6870    5.7430 C.ar      1 4CC        -0.0563
     15 C26       -34.1630   56.4250    7.0800 C.ar      1 4CC        -0.0504
     16 C27       -34.9190   57.0470    8.0620 C.ar      1 4CC        -0.0071
     17 N28       -35.9100   57.8630    7.7270 N.ar      1 4CC        -0.2849
     18 C29       -37.0810   60.4290    6.6980 C.3       1 4CC         0.0696
     19 C30       -36.1000   61.1930    5.8010 C.3       1 4CC         0.0263
     20 C31       -35.7670   62.5420    6.4030 C.2       1 4CC         0.0373
     21 O32       -35.1340   63.3580    5.7540 O.co2     1 4CC        -0.5689
     22 O33       -36.1230   62.8150    7.5380 O.co2     1 4CC        -0.5689
     23 C20       -38.8100   56.6030    5.7830 C.ar      1 4CC        -0.0564
     24 C21       -39.1680   55.3150    5.4820 C.ar      1 4CC        -0.0367
     25 C14       -39.3240   54.9390    4.1530 C.ar      1 4CC         0.0854
     26 N13       -39.6410   53.7380    3.5670 N.pl3     1 4CC        -0.2314
     27 C17       -39.8480   52.5090    4.3280 C.3       1 4CC         0.0470
     28 C3        -37.0130   52.6210    1.3800 C.ar      1 4CC        -0.0444
     29 C4        -35.6350   52.4810    1.4670 C.ar      1 4CC        -0.0685
     30 C5        -34.8580   52.5560    0.3050 C.ar      1 4CC         0.0122
     31 C7        -33.3830   52.3730    0.4070 C.cat     1 4CC         0.2283
     32 N9        -32.8710   51.7260    1.4570 N.pl3     1 4CC        -0.2736
     33 N8        -32.6080   52.8440   -0.5580 N.pl3     1 4CC        -0.2736
     34 C6        -35.4690   52.8040   -0.9370 C.ar      1 4CC        -0.0685
     35 C1        -36.8470   52.9600   -1.0150 C.ar      1 4CC        -0.0444
     36 H         -39.4161   53.2785   -0.8682 H         1 4CC         0.1792
     37 H         -39.7769   51.8686    1.6423 H         1 4CC         0.0786
     38 H         -40.9758   52.9357    0.8356 H         1 4CC         0.0786
     39 H         -38.5167   57.8763    2.6204 H         1 4CC         0.0596
     40 H         -35.7261   57.7905    4.3915 H         1 4CC         0.0598
     41 H         -33.8924   56.2048    4.9546 H         1 4CC         0.0691
     42 H         -33.3585   55.7490    7.3463 H         1 4CC         0.0578
     43 H         -34.6993   56.8657    9.1079 H         1 4CC         0.0774
     44 H         -36.6786   60.4054    7.7215 H         1 4CC         0.0611
     45 H         -38.0461   60.9567    6.6955 H         1 4CC         0.0611
     46 H         -36.5559   61.3416    4.8110 H         1 4CC         0.0456
     47 H         -35.1755   60.6065    5.6947 H         1 4CC         0.0456
     48 H         -38.7150   56.9075    6.8190 H         1 4CC         0.0574
     49 H         -39.3285   54.5939    6.2753 H         1 4CC         0.0553
     50 H         -40.0899   51.6870    3.6382 H         1 4CC         0.0567
     51 H         -40.6788   52.6509    5.0349 H         1 4CC         0.0567
     52 H         -38.9313   52.2632    4.8841 H         1 4CC         0.0567
     53 H         -37.6197   52.5375    2.2745 H         1 4CC         0.0515
     54 H         -35.1633   52.3146    2.4287 H         1 4CC         0.0582
     55 H         -31.8523   51.5954    1.5348 H         1 4CC         0.3179
     56 H         -33.4948   51.3576    2.1891 H         1 4CC         0.3179
     57 H         -33.0258   53.3399   -1.3583 H         1 4CC         0.3179
     58 H         -31.5874   52.7145   -0.5083 H         1 4CC         0.3179
     59 H         -34.8643   52.8735   -1.8340 H         1 4CC         0.0582
     60 H         -37.3192   53.1515   -1.9718 H         1 4CC         0.0515
@<TRIPOS>BOND
     1    1    2 1  
     2    1   28 ar 
     3    1   35 ar 
     4    2    3 1  
     5    3    4 1  
     6    4    5 2  
     7    4   26 1  
     8    5    6 1  
     9    6    7 ar 
    10    6   25 ar 
    11    7    8 ar 
    12    8    9 1  
    13    8   23 ar 
    14    9   10 2  
    15    9   11 am 
    16   11   12 1  
    17   11   18 1  
    18   12   13 ar 
    19   12   17 ar 
    20   13   14 ar 
    21   14   15 ar 
    22   15   16 ar 
    23   16   17 ar 
    24   18   19 1  
    25   19   20 1  
    26   20   21 ar 
    27   20   22 ar 
    28   23   24 ar 
    29   24   25 ar 
    30   25   26 1  
    31   26   27 1  
    32   28   29 ar 
    33   29   30 ar 
    34   30   31 1  
    35   30   34 ar 
    36   31   32 ar 
    37   31   33 ar 
    38   34   35 ar 
    39    2   36 1  
    40    3   37 1  
    41    3   38 1  
    42    7   39 1  
    43   13   40 1  
    44   14   41 1  
    45   15   42 1  
    46   16   43 1  
    47   18   44 1  
    48   18   45 1  
    49   19   46 1  
    50   19   47 1  
    51   23   48 1  
    52   24   49 1  
    53   27   50 1  
    54   27   51 1  
    55   27   52 1  
    56   28   53 1  
    57   29   54 1  
    58   32   55 1  
    59   32   56 1  
    60   33   57 1  
    61   33   58 1  
    62   34   59 1  
    63   35   60 1  
@<TRIPOS>SUBSTRUCTURE
     1 4CC         1

