### 
### Created by X-TOOL on Mon Sep 10 21:13:14 2018
### 

@<TRIPOS>MOLECULE
4jnc_ligand
   52    54     1     0     0
SMALL
GAST_HUCK


@<TRIPOS>ATOM
      1 N1        -13.9560   24.1020  -11.9650 N.am      1 1LF        -0.2697
      2 C10       -10.1360   26.3950  -13.9430 C.3       1 1LF         0.0380
      3 C13       -16.3840   24.2060  -11.3790 C.ar      1 1LF         0.0132
      4 C15       -17.8940   24.8920  -13.1780 C.ar      1 1LF        -0.0405
      5 C17       -18.7710   24.4510  -10.9590 C.ar      1 1LF        -0.0379
      6 C01        -6.9660   30.6950  -15.7960 C.3       1 1LF         0.0214
      7 N01        -8.3790   30.8360  -15.4030 N.pl3     1 1LF        -0.2906
      8 C02        -9.3370   29.9620  -15.9610 C.ar      1 1LF         0.1784
      9 N02        -9.9710   30.2850  -17.1030 N.ar      1 1LF        -0.2472
     10 C03       -10.8780   29.4510  -17.6310 C.ar      1 1LF         0.0820
     11 C04       -11.5870   29.8190  -18.9130 C.3       1 1LF         0.0022
     12 N03       -11.1510   28.2880  -17.0180 N.ar      1 1LF        -0.2470
     13 C05       -10.5180   27.9670  -15.8730 C.ar      1 1LF         0.1812
     14 N04        -9.6100   28.8030  -15.3450 N.ar      1 1LF        -0.2274
     15 N05       -10.7890   26.7470  -15.2180 N.pl3     1 1LF        -0.2734
     16 C06       -11.9060   25.8700  -15.6070 C.3       1 1LF         0.0380
     17 C07       -12.9600   25.7920  -14.4890 C.3       1 1LF        -0.0119
     18 C08       -12.2810   25.3740  -13.1680 C.3       1 1LF         0.0526
     19 C09       -11.1360   26.3300  -12.7740 C.3       1 1LF        -0.0119
     20 C11       -13.3120   25.2600  -12.0750 C.2       1 1LF         0.1818
     21 O1        -13.5410   26.2060  -11.3190 O.2       1 1LF        -0.3966
     22 C12       -14.9680   23.8740  -10.9340 C.3       1 1LF         0.0797
     23 C14       -16.6060   24.5830  -12.7180 C.ar      1 1LF        -0.0273
     24 C16       -18.9790   24.8240  -12.2960 C.ar      1 1LF        -0.0392
     25 C18       -17.4790   24.1350  -10.4840 C.ar      1 1LF         0.0509
     26 C1        -17.2860   23.7400   -9.0240 C.3       1 1LF         0.3705
     27 F01       -16.5090   24.6470   -8.4410 F         1 1LF        -0.2263
     28 F02       -16.7170   22.5360   -8.9120 F         1 1LF        -0.2263
     29 F         -18.4410   23.7150   -8.3740 F         1 1LF        -0.2263
     30 H1        -13.7421   23.3651  -12.6062 H         1 1LF         0.1889
     31 H2         -9.3733   27.1540  -13.7145 H         1 1LF         0.0533
     32 H3         -9.6542   25.4121  -14.0516 H         1 1LF         0.0533
     33 H4        -18.0488   25.1820  -14.2110 H         1 1LF         0.0834
     34 H5        -19.6151   24.4047  -10.2804 H         1 1LF         0.0820
     35 H6         -6.3623   31.4498  -15.2708 H         1 1LF         0.0493
     36 H7         -6.8712   30.8406  -16.8822 H         1 1LF         0.0493
     37 H8         -6.6095   29.6894  -15.5283 H         1 1LF         0.0493
     38 H9         -8.6639   31.5622  -14.7304 H         1 1LF         0.1893
     39 H10       -11.2318   30.8006  -19.2597 H         1 1LF         0.0482
     40 H11       -12.6711   29.8643  -18.7325 H         1 1LF         0.0482
     41 H12       -11.3744   29.0602  -19.6805 H         1 1LF         0.0482
     42 H13       -11.5180   24.8603  -15.8068 H         1 1LF         0.0533
     43 H14       -12.3764   26.2689  -16.5178 H         1 1LF         0.0533
     44 H15       -13.7256   25.0495  -14.7583 H         1 1LF         0.0313
     45 H16       -13.4331   26.7769  -14.3621 H         1 1LF         0.0313
     46 H17       -11.8396   24.3779  -13.3192 H         1 1LF         0.0539
     47 H18       -11.5411   27.3331  -12.5749 H         1 1LF         0.0313
     48 H19       -10.6305   25.9531  -11.8727 H         1 1LF         0.0313
     49 H20       -14.7227   24.4995  -10.0630 H         1 1LF         0.0763
     50 H21       -14.9353   22.8133  -10.6446 H         1 1LF         0.0763
     51 H22       -15.7679   24.6350  -13.4035 H         1 1LF         0.0636
     52 H23       -19.9780   25.0590  -12.6450 H         1 1LF         0.0648
@<TRIPOS>BOND
     1   20    1 am 
     2    1   22 1  
     3    2   15 1  
     4   19    2 1  
     5   22    3 1  
     6    3   23 ar 
     7    3   25 ar 
     8   23    4 ar 
     9    4   24 ar 
    10    5   24 ar 
    11   25    5 ar 
    12    7    6 1  
    13    8    7 1  
    14    8    9 ar 
    15   14    8 ar 
    16   10    9 ar 
    17   10   11 1  
    18   12   10 ar 
    19   13   12 ar 
    20   13   14 ar 
    21   15   13 1  
    22   16   15 1  
    23   17   16 1  
    24   18   17 1  
    25   18   19 1  
    26   18   20 1  
    27   20   21 2  
    28   25   26 1  
    29   26   27 1  
    30   26   28 1  
    31   26   29 1  
    32    1   30 1  
    33    2   31 1  
    34    2   32 1  
    35    4   33 1  
    36    5   34 1  
    37    6   35 1  
    38    6   36 1  
    39    6   37 1  
    40    7   38 1  
    41   11   39 1  
    42   11   40 1  
    43   11   41 1  
    44   16   42 1  
    45   16   43 1  
    46   17   44 1  
    47   17   45 1  
    48   18   46 1  
    49   19   47 1  
    50   19   48 1  
    51   22   49 1  
    52   22   50 1  
    53   23   51 1  
    54   24   52 1  
@<TRIPOS>SUBSTRUCTURE
     1 1LF         1

