### 
### Created by X-TOOL on Mon Sep 10 21:13:14 2018
### 

@<TRIPOS>MOLECULE
4jnj_ligand
   31    32     1     0     0
SMALL
GAST_HUCK


@<TRIPOS>ATOM
      1 C11        32.6240  -10.6610  -26.6080 C.2       1 BTN         0.0348
      2 O11        31.5020  -10.5000  -26.0930 O.co2     1 BTN        -0.5690
      3 O12        33.5670  -11.1680  -25.9810 O.co2     1 BTN        -0.5690
      4 C10        32.8300  -10.2460  -28.0640 C.3       1 BTN         0.0002
      5 C9         34.2600   -9.7520  -28.3220 C.3       1 BTN        -0.0414
      6 C8         34.4980   -8.3410  -27.7850 C.3       1 BTN        -0.0505
      7 C7         35.9390   -7.8860  -28.0130 C.3       1 BTN        -0.0389
      8 C2         36.1900   -6.5900  -27.2460 C.3       1 BTN         0.0302
      9 S1         35.2910   -5.2070  -27.8970 S.3       1 BTN        -0.1527
     10 C6         36.2900   -4.0110  -27.0880 C.3       1 BTN         0.0190
     11 C5         37.6990   -4.6100  -27.0960 C.3       1 BTN         0.0750
     12 N1         38.4130   -4.1220  -28.2610 N.am      1 BTN        -0.2671
     13 C3         38.7160   -5.1970  -29.1780 C.2       1 BTN         0.2580
     14 O3         39.2630   -5.0640  -30.2830 O.2       1 BTN        -0.4008
     15 N2         38.2680   -6.4310  -28.5630 N.am      1 BTN        -0.2668
     16 C4         37.6500   -6.1430  -27.2700 C.3       1 BTN         0.0775
     17 H1         32.1253   -9.4369  -28.3062 H         1 BTN         0.0430
     18 H2         32.6307  -11.1121  -28.7122 H         1 BTN         0.0430
     19 H3         34.4429   -9.7520  -29.4067 H         1 BTN         0.0283
     20 H4         34.9646  -10.4396  -27.8313 H         1 BTN         0.0283
     21 H5         34.2871   -8.3299  -26.7055 H         1 BTN         0.0267
     22 H6         33.8187   -7.6447  -28.2985 H         1 BTN         0.0267
     23 H7         36.1039   -7.7144  -29.0869 H         1 BTN         0.0277
     24 H8         36.6301   -8.6635  -27.6555 H         1 BTN         0.0277
     25 H9         35.8834   -6.7605  -26.2034 H         1 BTN         0.0435
     26 H10        35.9432   -3.8498  -26.0566 H         1 BTN         0.0399
     27 H11        36.2714   -3.0566  -27.6346 H         1 BTN         0.0399
     28 H12        38.2249   -4.3414  -26.1680 H         1 BTN         0.0584
     29 H13        38.6631   -3.1653  -28.4101 H         1 BTN         0.1849
     30 H14        38.3669   -7.3421  -28.9631 H         1 BTN         0.1849
     31 H15        38.2056   -6.6440  -26.4636 H         1 BTN         0.0587
@<TRIPOS>BOND
     1    1    2 ar 
     2    1    3 ar 
     3    1    4 1  
     4    4    5 1  
     5    5    6 1  
     6    6    7 1  
     7    7    8 1  
     8    8    9 1  
     9    8   16 1  
    10    9   10 1  
    11   10   11 1  
    12   11   12 1  
    13   11   16 1  
    14   12   13 am 
    15   13   14 2  
    16   13   15 am 
    17   15   16 1  
    18    4   17 1  
    19    4   18 1  
    20    5   19 1  
    21    5   20 1  
    22    6   21 1  
    23    6   22 1  
    24    7   23 1  
    25    7   24 1  
    26    8   25 1  
    27   10   26 1  
    28   10   27 1  
    29   11   28 1  
    30   12   29 1  
    31   15   30 1  
    32   16   31 1  
@<TRIPOS>SUBSTRUCTURE
     1 BTN         1

