### 
### Created by X-TOOL on Mon Sep 10 21:13:15 2018
### 

@<TRIPOS>MOLECULE
4jnm_ligand
   45    47     1     0     0
SMALL
GAST_HUCK


@<TRIPOS>ATOM
      1 C4         14.4820    4.8960   -4.4990 C.ar      1 1LJ         0.0916
      2 C5         13.8160    5.2090   -5.6690 C.ar      1 1LJ        -0.0367
      3 C6         14.5250    5.3850   -6.8420 C.ar      1 1LJ        -0.0600
      4 C10        14.1080    5.9200   -1.8810 C.ar      1 1LJ         0.0779
      5 C13        14.9720    7.8630   -0.0970 C.ar      1 1LJ         0.0666
      6 C15        15.1580    5.6520   -1.0230 C.ar      1 1LJ        -0.0505
      7 C17        14.7060    9.7080    1.5000 C.2       1 1LJ         0.2890
      8 C20        14.5880   11.5080    3.1530 C.3       1 1LJ         0.0654
      9 C21        14.7360   11.1190    4.6010 C.ar      1 1LJ        -0.0072
     10 C22        15.8900   10.4680    5.0290 C.ar      1 1LJ        -0.0500
     11 C24        14.9540   10.4250    7.2270 C.ar      1 1LJ         0.1016
     12 C26        13.7370   11.3900    5.5130 C.ar      1 1LJ        -0.0011
     13 C1         15.9010    5.2470   -6.8440 C.ar      1 1LJ        -0.0616
     14 C2         16.5680    4.9330   -5.6750 C.ar      1 1LJ        -0.0600
     15 C3         15.8580    4.7580   -4.5020 C.ar      1 1LJ        -0.0367
     16 S7         13.5710    4.6750   -3.0070 S.o2      1 1LJ         0.0184
     17 O8         12.2170    4.9590   -3.3290 O.2       1 1LJ        -0.1662
     18 O9         13.9940    3.4430   -2.4410 O.2       1 1LJ        -0.1662
     19 C11        13.4890    7.1550   -1.8510 C.ar      1 1LJ        -0.0505
     20 C12        13.9180    8.1270   -0.9660 C.ar      1 1LJ        -0.0398
     21 C14        15.5880    6.6180   -0.1360 C.ar      1 1LJ        -0.0398
     22 N16        15.4550    8.8020    0.8290 N.am      1 1LJ        -0.2195
     23 O18        13.5020    9.8190    1.3420 O.2       1 1LJ        -0.3903
     24 N19        15.3330   10.5170    2.3760 N.am      1 1LJ        -0.2573
     25 C23        16.0010   10.1160    6.3620 C.ar      1 1LJ        -0.0223
     26 N25        13.8710   11.0440    6.7800 N.ar      1 1LJ        -0.2935
     27 N27        15.0460   10.0820    8.5710 N.pl3     1 1LJ        -0.3257
     28 H1         12.7373    5.3164   -5.6664 H         1 1LJ         0.0637
     29 H2         14.0031    5.6310   -7.7597 H         1 1LJ         0.0618
     30 H3         15.6437    4.6832   -1.0468 H         1 1LJ         0.0595
     31 H4         15.0039   12.5125    2.9854 H         1 1LJ         0.0671
     32 H5         13.5268   11.4975    2.8636 H         1 1LJ         0.0671
     33 H6         16.6870   10.2412    4.3302 H         1 1LJ         0.0645
     34 H7         12.8334   11.8918    5.1862 H         1 1LJ         0.0718
     35 H8         16.4574    5.3853   -7.7640 H         1 1LJ         0.0618
     36 H9         17.6465    4.8241   -5.6780 H         1 1LJ         0.0618
     37 H10        16.3799    4.5125   -3.5842 H         1 1LJ         0.0637
     38 H11        12.6645    7.3625   -2.5234 H         1 1LJ         0.0595
     39 H12        13.4324    9.0960   -0.9492 H         1 1LJ         0.0501
     40 H13        16.4121    6.4040    0.5350 H         1 1LJ         0.0501
     41 H14        16.4388    8.8012    1.0084 H         1 1LJ         0.2255
     42 H15        16.3226   10.4390    2.4970 H         1 1LJ         0.1878
     43 H16        16.8868    9.6088    6.7269 H         1 1LJ         0.0595
     44 H17        14.2742   10.3085    9.2143 H         1 1LJ         0.1745
     45 H18        15.8860    9.6013    8.9235 H         1 1LJ         0.1745
@<TRIPOS>BOND
     1    1    2 ar 
     2    1   15 ar 
     3   16    1 1  
     4    2    3 ar 
     5    3   13 ar 
     6    6    4 ar 
     7    4   16 1  
     8    4   19 ar 
     9    5   20 ar 
    10    5   21 ar 
    11   22    5 1  
    12   21    6 ar 
    13    7   22 am 
    14    7   23 2  
    15   24    7 am 
    16    8    9 1  
    17    8   24 1  
    18    9   10 ar 
    19    9   12 ar 
    20   10   25 ar 
    21   25   11 ar 
    22   11   26 ar 
    23   11   27 1  
    24   12   26 ar 
    25   13   14 ar 
    26   14   15 ar 
    27   16   17 2  
    28   16   18 2  
    29   19   20 ar 
    30    2   28 1  
    31    3   29 1  
    32    6   30 1  
    33    8   31 1  
    34    8   32 1  
    35   10   33 1  
    36   12   34 1  
    37   13   35 1  
    38   14   36 1  
    39   15   37 1  
    40   19   38 1  
    41   20   39 1  
    42   21   40 1  
    43   22   41 1  
    44   24   42 1  
    45   25   43 1  
    46   27   44 1  
    47   27   45 1  
@<TRIPOS>SUBSTRUCTURE
     1 1LJ         1

