### 
### Created by X-TOOL on Mon Sep 10 21:13:16 2018
### 

@<TRIPOS>MOLECULE
4joa_ligand
   45    49     1     0     0
SMALL
GAST_HUCK


@<TRIPOS>ATOM
      1 F29        11.6390   19.6110   45.0770 F         1 3DK        -0.1887
      2 C24        10.7390   19.2600   44.1410 C.ar      1 3DK         0.1216
      3 C23        10.5810   17.9180   43.7980 C.ar      1 3DK        -0.0258
      4 C25         9.9710   20.2360   43.5110 C.ar      1 3DK        -0.0370
      5 C26         9.0440   19.8650   42.5420 C.ar      1 3DK        -0.0366
      6 C27         8.8870   18.5210   42.2010 C.ar      1 3DK         0.1315
      7 F28         7.9880   18.1810   41.2590 F         1 3DK        -0.1924
      8 C22         9.6460   17.5420   42.8340 C.ar      1 3DK         0.0211
      9 C21         9.5070   16.0770   42.4650 C.3       1 3DK         0.1034
     10 N17         8.1880   15.4950   42.7340 N.pl3     1 3DK        -0.1996
     11 C16         7.0990   15.2890   41.9840 C.2       1 3DK         0.0529
     12 N18         8.0160   15.0010   44.0420 N.2       1 3DK        -0.2162
     13 C19         6.7660   14.4830   44.1180 C.2       1 3DK        -0.0014
     14 C10         6.2380   14.6640   42.8590 C.2       1 3DK        -0.0213
     15 C9          4.8580   14.2520   42.4880 C.2       1 3DK        -0.0258
     16 C8          4.0730   14.9750   41.6310 C.2       1 3DK         0.0288
     17 N7          2.8990   14.2920   41.5470 N.pl3     1 3DK        -0.2694
     18 C4          2.9000   13.1720   42.3120 C.ar      1 3DK         0.1321
     19 N3          1.9600   12.2140   42.5280 N.ar      1 3DK        -0.2893
     20 C2          2.1990   11.1760   43.3450 C.ar      1 3DK        -0.0044
     21 C5          4.1240   13.0650   42.9580 C.ar      1 3DK         0.0012
     22 C6          4.4140   12.0090   43.8130 C.ar      1 3DK        -0.0555
     23 C1          3.4240   11.0420   44.0110 C.ar      1 3DK        -0.0237
     24 C11         3.6630    9.8740   44.9150 C.2       1 3DK        -0.0004
     25 C15         2.8430    8.7560   45.0400 C.2       1 3DK         0.0619
     26 N14         3.4180    7.9610   45.9420 N.pl3     1 3DK        -0.2069
     27 C20         3.0450    6.6390   46.5130 C.3       1 3DK         0.0611
     28 N13         4.6070    8.5210   46.4230 N.2       1 3DK        -0.2144
     29 C12         4.7470    9.7030   45.7790 C.2       1 3DK         0.0050
     30 H1         11.1883   17.1626   44.2833 H         1 3DK         0.0533
     31 H2         10.0949   21.2802   43.7744 H         1 3DK         0.0536
     32 H3          8.4426   20.6215   42.0510 H         1 3DK         0.0576
     33 H4         10.2546   15.5081   43.0371 H         1 3DK         0.0795
     34 H5          9.7127   15.9745   41.3893 H         1 3DK         0.0795
     35 H6          6.9342   15.5508   40.9399 H         1 3DK         0.0937
     36 H7          6.2861   14.0256   44.9820 H         1 3DK         0.0647
     37 H8          4.3333   15.9024   41.1229 H         1 3DK         0.0915
     38 H9          2.1010   14.5913   40.9687 H         1 3DK         0.2289
     39 H10         1.4292   10.4271   43.4922 H         1 3DK         0.0720
     40 H11         5.3749   11.9373   44.3095 H         1 3DK         0.0622
     41 H12         1.9132    8.5678   44.5052 H         1 3DK         0.1023
     42 H13         3.8070    6.3264   47.2422 H         1 3DK         0.0607
     43 H14         2.9834    5.8949   45.7053 H         1 3DK         0.0607
     44 H15         2.0689    6.7181   47.0139 H         1 3DK         0.0607
     45 H16         5.5690   10.4048   45.9124 H         1 3DK         0.0670
@<TRIPOS>BOND
     1    1    2 1  
     2    2    3 ar 
     3    2    4 ar 
     4    3    8 ar 
     5    4    5 ar 
     6    5    6 ar 
     7    6    7 1  
     8    6    8 ar 
     9    8    9 1  
    10    9   10 1  
    11   10   11 1  
    12   10   12 1  
    13   11   14 2  
    14   12   13 2  
    15   13   14 1  
    16   14   15 1  
    17   15   16 2  
    18   15   21 1  
    19   16   17 1  
    20   17   18 1  
    21   18   19 ar 
    22   18   21 ar 
    23   19   20 ar 
    24   20   23 ar 
    25   21   22 ar 
    26   22   23 ar 
    27   23   24 1  
    28   24   25 2  
    29   24   29 1  
    30   25   26 1  
    31   26   27 1  
    32   26   28 1  
    33   28   29 2  
    34    3   30 1  
    35    4   31 1  
    36    5   32 1  
    37    9   33 1  
    38    9   34 1  
    39   11   35 1  
    40   13   36 1  
    41   16   37 1  
    42   17   38 1  
    43   20   39 1  
    44   22   40 1  
    45   25   41 1  
    46   27   42 1  
    47   27   43 1  
    48   27   44 1  
    49   29   45 1  
@<TRIPOS>SUBSTRUCTURE
     1 3DK         1

