### 
### Created by X-TOOL on Mon Sep 10 21:13:17 2018
### 

@<TRIPOS>MOLECULE
4joh_ligand
   80    80     1     0     0
SMALL
GAST_HUCK


@<TRIPOS>ATOM
      1 N          22.1280   26.3330   42.6190 N.4       1 PRO         0.2461
      2 CA         21.0100   26.8750   43.4010 C.3       1 PRO         0.0670
      3 C          19.8070   25.9350   43.4400 C.2       1 PRO         0.2268
      4 O          19.3770   25.4310   42.4080 O.2       1 PRO        -0.3907
      5 CB         20.6540   28.1730   42.6620 C.3       1 PRO         0.0127
      6 CG         21.3680   28.1010   41.3450 C.3       1 PRO        -0.0053
      7 CD         22.5880   27.2810   41.5930 C.3       1 PRO        -0.0313
      8 N          19.2740   25.7070   44.6340 N.am      1 THR        -0.2586
      9 CA         18.1480   24.7990   44.8060 C.3       1 THR         0.1566
     10 C          16.9620   25.5500   45.3770 C.2       1 THR         0.2065
     11 O          17.1050   26.3270   46.3300 O.2       1 THR        -0.3943
     12 CB         18.5030   23.6520   45.7680 C.3       1 THR         0.0924
     13 OG1        19.6020   22.9080   45.2330 O.3       1 THR        -0.3874
     14 CG2        17.3170   22.7250   45.9520 C.3       1 THR        -0.0346
     15 N          15.7930   25.3270   44.7890 N.am      1 SER        -0.2615
     16 CA         14.5550   25.8600   45.3310 C.3       1 SER         0.1539
     17 C          13.6670   24.7120   45.7420 C.2       1 SER         0.2062
     18 O          13.7850   23.6060   45.2190 O.2       1 SER        -0.3943
     19 CB         13.8280   26.7180   44.2930 C.3       1 SER         0.0843
     20 OG         14.5870   27.8690   43.9890 O.3       1 SER        -0.3903
     21 N          12.7860   24.9770   46.6940 N.am      1 ILE        -0.2634
     22 CA         11.7610   24.0200   47.0660 C.3       1 ILE         0.1335
     23 C          10.3980   24.6440   46.8080 C.2       1 ILE         0.2036
     24 O          10.1770   25.8280   47.0880 O.2       1 ILE        -0.3944
     25 CB         11.9170   23.5800   48.5360 C.3       1 ILE        -0.0037
     26 CG1        13.2850   22.9310   48.7190 C.3       1 ILE        -0.0491
     27 CG2        10.7840   22.6280   48.9360 C.3       1 ILE        -0.0582
     28 CD1        13.5790   22.4700   50.1440 C.3       1 ILE        -0.0648
     29 N           9.4970   23.8500   46.2420 N.am      1 ILE        -0.2692
     30 CA          8.1600   24.3250   45.9010 C.3       1 ILE         0.0969
     31 C           7.1230   23.3650   46.4420 C.2       1 ILE         0.0604
     32 O           7.4860   22.2950   46.9400 O.co2     1 ILE        -0.5666
     33 CB          7.9820   24.4660   44.3820 C.3       1 ILE        -0.0092
     34 CG1         8.3290   23.1530   43.6780 C.3       1 ILE        -0.0497
     35 CG2         8.8790   25.5770   43.8500 C.3       1 ILE        -0.0588
     36 CD1         8.0740   23.1770   42.1790 C.3       1 ILE        -0.0649
     37 OXT         5.9300   23.6530   46.4000 O.co2     1 ILE        -0.5666
     38 H          21.8283   25.4834   42.1670 H         1 PRO         0.2035
     39 H          22.8938   26.1300   43.2422 H         1 PRO         0.2035
     40 H          21.3314   27.0874   44.4313 H         1 PRO         0.1099
     41 H          20.9958   29.0469   43.2359 H         1 PRO         0.0347
     42 H          19.5672   28.2393   42.5056 H         1 PRO         0.0347
     43 H          21.6461   29.1090   41.0037 H         1 PRO         0.0320
     44 H          20.7301   27.6207   40.5884 H         1 PRO         0.0320
     45 H          22.9069   26.7561   40.6805 H         1 PRO         0.0814
     46 H          23.4154   27.9018   41.9671 H         1 PRO         0.0814
     47 H          19.6546   26.1697   45.4347 H         1 THR         0.1885
     48 H          17.8774   24.3783   43.8263 H         1 THR         0.0826
     49 H          18.7869   24.0738   46.7434 H         1 THR         0.0639
     50 H          19.3589   22.5503   44.3871 H         1 THR         0.2101
     51 H          17.5900   21.9129   46.6419 H         1 THR         0.0257
     52 H          17.0302   22.2989   44.9793 H         1 THR         0.0257
     53 H          16.4705   23.2907   46.3684 H         1 THR         0.0257
     54 H          15.7638   24.7790   43.9530 H         1 SER         0.1884
     55 H          14.7839   26.4790   46.2110 H         1 SER         0.0823
     56 H          12.8509   27.0237   44.6953 H         1 SER         0.0606
     57 H          13.6790   26.1292   43.3759 H         1 SER         0.0606
     58 H          15.4307   27.6074   43.6394 H         1 SER         0.2097
     59 H          12.8280   25.8568   47.1675 H         1 ILE         0.1883
     60 H          11.8642   23.1283   46.4302 H         1 ILE         0.0803
     61 H          11.8627   24.4704   49.1797 H         1 ILE         0.0345
     62 H          14.0541   23.6618   48.4284 H         1 ILE         0.0267
     63 H          13.3418   22.0554   48.0556 H         1 ILE         0.0267
     64 H           9.8156   23.1292   48.7910 H         1 ILE         0.0235
     65 H          10.8969   22.3475   49.9936 H         1 ILE         0.0235
     66 H          10.8264   21.7242   48.3104 H         1 ILE         0.0235
     67 H          14.5805   22.0168   50.1835 H         1 ILE         0.0230
     68 H          12.8281   21.7273   50.4514 H         1 ILE         0.0230
     69 H          13.5404   23.3337   50.8241 H         1 ILE         0.0230
     70 H           9.7412   22.9007   46.0440 H         1 ILE         0.1875
     71 H           8.0104   25.3112   46.3647 H         1 ILE         0.0729
     72 H           6.9328   24.7192   44.1696 H         1 ILE         0.0338
     73 H           7.7210   22.3503   44.1208 H         1 ILE         0.0267
     74 H           9.3952   22.9404   43.8455 H         1 ILE         0.0267
     75 H           8.6309   26.5221   44.3552 H         1 ILE         0.0234
     76 H           8.7221   25.6880   42.7669 H         1 ILE         0.0234
     77 H           9.9315   25.3230   44.0439 H         1 ILE         0.0234
     78 H           8.3458   22.2034   41.7452 H         1 ILE         0.0230
     79 H           8.6829   23.9675   41.7161 H         1 ILE         0.0230
     80 H           7.0088   23.3774   41.9914 H         1 ILE         0.0230
@<TRIPOS>BOND
     1    1    2 1  
     2    1    7 1  
     3    2    3 1  
     4    2    5 1  
     5    3    4 2  
     6    3    8 am 
     7    5    6 1  
     8    6    7 1  
     9    8    9 1  
    10    9   10 1  
    11    9   12 1  
    12   10   11 2  
    13   10   15 am 
    14   12   13 1  
    15   12   14 1  
    16   15   16 1  
    17   16   17 1  
    18   16   19 1  
    19   17   18 2  
    20   17   21 am 
    21   19   20 1  
    22   21   22 1  
    23   22   23 1  
    24   22   25 1  
    25   23   24 2  
    26   23   29 am 
    27   25   26 1  
    28   25   27 1  
    29   26   28 1  
    30   29   30 1  
    31   30   31 1  
    32   30   33 1  
    33   31   32 ar 
    34   31   37 ar 
    35   33   34 1  
    36   33   35 1  
    37   34   36 1  
    38    1   38 1  
    39    1   39 1  
    40    2   40 1  
    41    5   41 1  
    42    5   42 1  
    43    6   43 1  
    44    6   44 1  
    45    7   45 1  
    46    7   46 1  
    47    8   47 1  
    48    9   48 1  
    49   12   49 1  
    50   13   50 1  
    51   14   51 1  
    52   14   52 1  
    53   14   53 1  
    54   15   54 1  
    55   16   55 1  
    56   19   56 1  
    57   19   57 1  
    58   20   58 1  
    59   21   59 1  
    60   22   60 1  
    61   25   61 1  
    62   26   62 1  
    63   26   63 1  
    64   27   64 1  
    65   27   65 1  
    66   27   66 1  
    67   28   67 1  
    68   28   68 1  
    69   28   69 1  
    70   29   70 1  
    71   30   71 1  
    72   33   72 1  
    73   34   73 1  
    74   34   74 1  
    75   35   75 1  
    76   35   76 1  
    77   35   77 1  
    78   36   78 1  
    79   36   79 1  
    80   36   80 1  
@<TRIPOS>SUBSTRUCTURE
     1 PRO         1

