### 
### Created by X-TOOL on Mon Sep 10 21:13:14 2018
### 

@<TRIPOS>MOLECULE
4joo_ligand
   37    39     1     0     0
SMALL
GAST_HUCK


@<TRIPOS>ATOM
      1 C1         25.0700   14.0570    8.7330 C.ar      1 1M4         0.0400
      2 C2         25.7590   12.8500    8.4570 C.ar      1 1M4         0.1320
      3 C3         27.1330   12.7480    8.7560 C.ar      1 1M4         0.0025
      4 C4         27.8280   13.8320    9.3390 C.ar      1 1M4        -0.0326
      5 C5         27.1410   15.0340    9.6220 C.ar      1 1M4         0.0312
      6 C6         25.7620   15.1400    9.3190 C.ar      1 1M4        -0.0324
      7 C7         23.5820   14.1840    8.3890 C.3       1 1M4         0.1793
      8 C8         22.9810   12.9320    7.7120 C.3       1 1M4         0.0095
      9 C9         23.6850   11.6130    8.1110 C.3       1 1M4         0.0926
     10 O10        25.0890   11.7810    7.8950 O.3       1 1M4        -0.2851
     11 C11        23.4210   15.4070    7.4710 C.2       1 1M4         0.2080
     12 N12        22.6260   16.3370    8.1220 N.am      1 1M4        -0.2185
     13 C13        22.2650   15.8240    9.3570 C.cat     1 1M4         0.3205
     14 N14        22.7700   14.5970    9.5480 N.pl3     1 1M4        -0.2688
     15 O15        23.9210   15.5760    6.3590 O.2       1 1M4        -0.3652
     16 N16        21.4910   16.4480   10.2550 N.pl3     1 1M4        -0.2548
     17 C17        22.2500   17.6520    7.5800 C.3       1 1M4         0.0236
     18 BR1        28.0570   16.4980   10.4030 Br        1 1M4        -0.0495
     19 C18        23.3730   11.2440    9.5880 C.3       1 1M4        -0.0306
     20 C19        23.2330   10.4600    7.1940 C.3       1 1M4        -0.0306
     21 H1         27.6624   11.8279    8.5363 H         1 1M4         0.0632
     22 H2         28.8837   13.7416    9.5681 H         1 1M4         0.0844
     23 H3         25.2328   16.0602    9.5386 H         1 1M4         0.0833
     24 H4         23.0624   13.0534    6.6218 H         1 1M4         0.0228
     25 H5         21.9204   12.8592    7.9947 H         1 1M4         0.0228
     26 H6         22.6125   14.0224   10.3882 H         1 1M4         0.3098
     27 H7         21.1296   17.3918   10.0560 H         1 1M4         0.3199
     28 H8         21.2573   15.9840   11.1444 H         1 1M4         0.3199
     29 H9         22.6871   17.7742    6.5780 H         1 1M4         0.0484
     30 H10        22.6276   18.4438    8.2437 H         1 1M4         0.0484
     31 H11        21.1542   17.7213    7.5129 H         1 1M4         0.0484
     32 H12        23.8837   10.3048    9.8470 H         1 1M4         0.0262
     33 H13        22.2875   11.1176    9.7129 H         1 1M4         0.0262
     34 H14        23.7271   12.0483   10.2496 H         1 1M4         0.0262
     35 H15        23.7433    9.5324    7.4926 H         1 1M4         0.0262
     36 H16        23.4881   10.6993    6.1511 H         1 1M4         0.0262
     37 H17        22.1450   10.3251    7.2837 H         1 1M4         0.0262
@<TRIPOS>BOND
     1    1    2 ar 
     2    1    6 ar 
     3    1    7 1  
     4    2    3 ar 
     5    2   10 1  
     6    3    4 ar 
     7    4    5 ar 
     8    5    6 ar 
     9    5   18 1  
    10    7    8 1  
    11    7   11 1  
    12    7   14 1  
    13    8    9 1  
    14    9   10 1  
    15    9   19 1  
    16    9   20 1  
    17   11   12 am 
    18   11   15 2  
    19   12   13 ar 
    20   12   17 1  
    21   13   14 ar 
    22   13   16 ar 
    23    3   21 1  
    24    4   22 1  
    25    6   23 1  
    26    8   24 1  
    27    8   25 1  
    28   14   26 1  
    29   16   27 1  
    30   16   28 1  
    31   17   29 1  
    32   17   30 1  
    33   17   31 1  
    34   19   32 1  
    35   19   33 1  
    36   19   34 1  
    37   20   35 1  
    38   20   36 1  
    39   20   37 1  
@<TRIPOS>SUBSTRUCTURE
     1 1M4         1

