### 
### Created by X-TOOL on Mon Sep 10 21:13:14 2018
### 

@<TRIPOS>MOLECULE
4jp9_ligand
   47    50     1     0     0
SMALL
GAST_HUCK


@<TRIPOS>ATOM
      1 C1         27.0420   15.4980    9.4360 C.ar      1 1M5         0.0017
      2 C2         27.7630   14.2880    9.2620 C.ar      1 1M5        -0.0322
      3 C3         27.1010   13.1180    8.8140 C.ar      1 1M5         0.0031
      4 C4         25.7150   13.1520    8.5350 C.ar      1 1M5         0.1316
      5 C5         24.9890   14.3580    8.7100 C.ar      1 1M5         0.0377
      6 C6         25.6520   15.5280    9.1550 C.ar      1 1M5        -0.0346
      7 O7         25.0880   12.0020    8.1080 O.3       1 1M5        -0.2850
      8 C8         23.6700   11.8330    8.2050 C.3       1 1M5         0.0926
      9 C9         22.9730   13.1160    7.7050 C.3       1 1M5         0.0088
     10 C10        23.4960   14.4050    8.3800 C.3       1 1M5         0.1778
     11 C11        27.6960   16.6790    9.8590 C.ar      1 1M5        -0.0158
     12 C12        23.2920   10.6440    7.3000 C.3       1 1M5        -0.0305
     13 C13        23.2920   11.5200    9.6740 C.3       1 1M5        -0.0305
     14 C14        23.2490   15.6100    7.4590 C.2       1 1M5         0.2069
     15 N15        22.4430   16.4760    8.1070 N.am      1 1M5        -0.2187
     16 C16        22.1420   15.9280    9.3200 C.cat     1 1M5         0.3203
     17 N17        22.6900   14.7790    9.5310 N.pl3     1 1M5        -0.2697
     18 N18        21.3320   16.6140   10.2000 N.pl3     1 1M5        -0.2548
     19 O19        23.8040   15.7700    6.3670 O.2       1 1M5        -0.3658
     20 C20        22.0060   17.7630    7.5660 C.3       1 1M5         0.0236
     21 C21        27.0300   17.6060   10.6970 C.ar      1 1M5        -0.0413
     22 C22        27.6840   18.8010   11.0830 C.ar      1 1M5         0.0399
     23 C23        29.0030   19.0810   10.6400 C.ar      1 1M5        -0.0488
     24 C24        29.6680   18.1570    9.7970 C.ar      1 1M5        -0.0618
     25 C25        29.0130   16.9630    9.4040 C.ar      1 1M5        -0.0551
     26 CL1        26.8560   19.9110   12.0980 Cl        1 1M5        -0.0710
     27 H1         28.8259   14.2587    9.4730 H         1 1M5         0.0842
     28 H2         27.6572   12.1965    8.6851 H         1 1M5         0.0635
     29 H3         25.0952   16.4495    9.2812 H         1 1M5         0.0799
     30 H4         21.8955   13.0289    7.9087 H         1 1M5         0.0226
     31 H5         23.1355   13.2005    6.6204 H         1 1M5         0.0226
     32 H6         22.2054   10.4794    7.3458 H         1 1M5         0.0262
     33 H7         23.8147    9.7398    7.6452 H         1 1M5         0.0262
     34 H8         23.5861   10.8643    6.2632 H         1 1M5         0.0262
     35 H9         22.2026   11.3894    9.7524 H         1 1M5         0.0262
     36 H10        23.6089   12.3524   10.3195 H         1 1M5         0.0262
     37 H11        23.7959   10.5959    9.9934 H         1 1M5         0.0262
     38 H12        22.5742   14.2134   10.3840 H         1 1M5         0.3096
     39 H13        20.9421   17.5296    9.9343 H         1 1M5         0.3199
     40 H14        21.1168   16.2109   11.1231 H         1 1M5         0.3199
     41 H15        22.4292   17.9006    6.5600 H         1 1M5         0.0484
     42 H16        22.3525   18.5739    8.2236 H         1 1M5         0.0484
     43 H17        20.9077   17.7823    7.5075 H         1 1M5         0.0484
     44 H18        26.0229   17.4014   11.0418 H         1 1M5         0.0620
     45 H19        29.4982   19.9959   10.9447 H         1 1M5         0.0615
     46 H20        30.6753   18.3625    9.4533 H         1 1M5         0.0615
     47 H21        29.5198   16.2611    8.7517 H         1 1M5         0.0616
@<TRIPOS>BOND
     1    1    2 ar 
     2    1    6 ar 
     3    1   11 1  
     4    2    3 ar 
     5    3    4 ar 
     6    4    5 ar 
     7    4    7 1  
     8    5    6 ar 
     9    5   10 1  
    10    7    8 1  
    11    8    9 1  
    12    8   12 1  
    13    8   13 1  
    14    9   10 1  
    15   10   14 1  
    16   10   17 1  
    17   11   21 ar 
    18   11   25 ar 
    19   14   15 am 
    20   14   19 2  
    21   15   16 ar 
    22   15   20 1  
    23   16   17 ar 
    24   16   18 ar 
    25   21   22 ar 
    26   22   23 ar 
    27   22   26 1  
    28   23   24 ar 
    29   24   25 ar 
    30    2   27 1  
    31    3   28 1  
    32    6   29 1  
    33    9   30 1  
    34    9   31 1  
    35   12   32 1  
    36   12   33 1  
    37   12   34 1  
    38   13   35 1  
    39   13   36 1  
    40   13   37 1  
    41   17   38 1  
    42   18   39 1  
    43   18   40 1  
    44   20   41 1  
    45   20   42 1  
    46   20   43 1  
    47   21   44 1  
    48   23   45 1  
    49   24   46 1  
    50   25   47 1  
@<TRIPOS>SUBSTRUCTURE
     1 1M5         1

