### 
### Created by X-TOOL on Mon Sep 10 21:13:17 2018
### 

@<TRIPOS>MOLECULE
4jpa_ligand
   57    60     1     0     0
SMALL
GAST_HUCK


@<TRIPOS>ATOM
      1 C1         37.3230  -14.2930   21.5680 C.3       1 AZ6        -0.0302
      2 C2         38.6160  -13.9970   20.8310 C.3       1 AZ6         0.1566
      3 C3         39.6920  -14.9920   21.2150 C.3       1 AZ6         0.1175
      4 O4         38.8090  -10.7690   19.5630 O.2       1 AZ6        -0.3912
      5 O5         38.0670  -15.1270   18.7770 O.2       1 AZ6        -0.3313
      6 N6         38.9960  -12.6230   20.9200 N.am      1 AZ6        -0.2556
      7 C7         42.0010  -12.7800   18.8470 C.3       1 AZ6         0.0496
      8 C8         43.2750  -13.7380   15.5340 C.ar      1 AZ6         0.1848
      9 C9         43.4940  -14.5280   13.3940 C.ar      1 AZ6         0.0436
     10 C10        44.4370  -13.5730   13.1080 C.ar      1 AZ6         0.1321
     11 C11        44.9100  -14.6190   11.1030 C.3       1 AZ6         0.1061
     12 C12        45.7440  -14.4650    9.8760 C.ar      1 AZ6        -0.0020
     13 C13        45.1640  -14.3840    8.6250 C.ar      1 AZ6        -0.0491
     14 C14        45.9510  -14.2400    7.5040 C.ar      1 AZ6        -0.0572
     15 C15        47.3240  -14.1800    7.6240 C.ar      1 AZ6        -0.0339
     16 C16        47.8990  -14.2600    8.8750 C.ar      1 AZ6         0.0891
     17 C19        44.7470  -12.7090   14.1290 C.ar      1 AZ6         0.0436
     18 C20        38.7470  -11.9780   19.7410 C.2       1 AZ6         0.2873
     19 C21        38.3290  -14.0830   19.3620 C.2       1 AZ6         0.2540
     20 S1         41.3760  -14.5140   20.8900 S.o2      1 AZ6         0.0430
     21 O1         41.6920  -13.3600   21.7070 O.2       1 AZ6        -0.1554
     22 O2         42.1150  -15.7450   21.0770 O.2       1 AZ6        -0.1554
     23 N1         41.4010  -14.0960   19.2250 N.am      1 AZ6        -0.2346
     24 C4         41.3100  -15.1750   18.1970 C.3       1 AZ6         0.0496
     25 C5         42.5220  -15.1870   17.2970 C.3       1 AZ6         0.0488
     26 N2         42.6460  -13.8360   16.7930 N.pl3     1 AZ6        -0.2775
     27 C6         43.0750  -12.8690   17.7790 C.3       1 AZ6         0.0488
     28 N3         42.9090  -14.6270   14.5950 N.ar      1 AZ6        -0.2627
     29 O3         45.0730  -13.4340   11.8740 O.3       1 AZ6        -0.3006
     30 C17        49.3080  -14.2020    9.0280 C.1       1 AZ6         0.0987
     31 N4         50.4640  -14.1700    9.1210 N.1       1 AZ6        -0.3283
     32 C18        47.1150  -14.4020    9.9960 C.ar      1 AZ6        -0.0232
     33 N5         44.1830  -12.7680   15.3370 N.ar      1 AZ6        -0.2627
     34 N7         38.4150  -12.8780   18.8150 N.am      1 AZ6        -0.1827
     35 H          37.0794  -15.3609   21.4666 H         1 AZ6         0.0242
     36 H          36.5099  -13.6891   21.1390 H         1 AZ6         0.0242
     37 H          37.4425  -14.0437   22.6327 H         1 AZ6         0.0242
     38 H          39.4974  -15.9231   20.6627 H         1 AZ6         0.0531
     39 H          39.6016  -15.1805   22.2949 H         1 AZ6         0.0531
     40 H          39.3896  -12.1926   21.7323 H         1 AZ6         0.1840
     41 H          42.4467  -12.3328   19.7477 H         1 AZ6         0.0498
     42 H          41.1968  -12.1288   18.4738 H         1 AZ6         0.0498
     43 H          43.2114  -15.2298   12.6176 H         1 AZ6         0.0825
     44 H          45.2461  -15.4932   11.6799 H         1 AZ6         0.0778
     45 H          43.8529  -14.7464   10.8267 H         1 AZ6         0.0778
     46 H          44.0858  -14.4339    8.5252 H         1 AZ6         0.0629
     47 H          45.4904  -14.1736    6.5249 H         1 AZ6         0.0623
     48 H          47.9456  -14.0709    6.7426 H         1 AZ6         0.0661
     49 H          45.4878  -11.9395   13.9444 H         1 AZ6         0.0825
     50 H          40.4117  -15.0097   17.5841 H         1 AZ6         0.0498
     51 H          41.2331  -16.1473   18.7055 H         1 AZ6         0.0498
     52 H          42.3771  -15.8945   16.4673 H         1 AZ6         0.0538
     53 H          43.4202  -15.4683   17.8662 H         1 AZ6         0.0538
     54 H          44.0245  -13.1925   18.2305 H         1 AZ6         0.0538
     55 H          43.2110  -11.8864   17.3036 H         1 AZ6         0.0538
     56 H          47.5763  -14.4644   10.9750 H         1 AZ6         0.0656
     57 H          38.2543  -12.6742   17.8493 H         1 AZ6         0.2259
@<TRIPOS>BOND
     1    2    1 1  
     2    3    2 1  
     3    2    6 1  
     4    2   19 1  
     5   20    3 1  
     6   18    4 2  
     7   19    5 2  
     8    6   18 am 
     9   23    7 1  
    10    7   27 1  
    11   26    8 1  
    12    8   28 ar 
    13    8   33 ar 
    14    9   10 ar 
    15   28    9 ar 
    16   17   10 ar 
    17   10   29 1  
    18   11   12 1  
    19   29   11 1  
    20   12   13 ar 
    21   12   32 ar 
    22   13   14 ar 
    23   14   15 ar 
    24   16   15 ar 
    25   16   30 1  
    26   32   16 ar 
    27   33   17 ar 
    28   34   18 am 
    29   19   34 am 
    30   20   21 2  
    31   20   22 2  
    32   23   20 am 
    33   24   23 1  
    34   25   24 1  
    35   25   26 1  
    36   26   27 1  
    37   30   31 3  
    38    1   35 1  
    39    1   36 1  
    40    1   37 1  
    41    3   38 1  
    42    3   39 1  
    43    6   40 1  
    44    7   41 1  
    45    7   42 1  
    46    9   43 1  
    47   11   44 1  
    48   11   45 1  
    49   13   46 1  
    50   14   47 1  
    51   15   48 1  
    52   17   49 1  
    53   24   50 1  
    54   24   51 1  
    55   25   52 1  
    56   25   53 1  
    57   27   54 1  
    58   27   55 1  
    59   32   56 1  
    60   34   57 1  
@<TRIPOS>SUBSTRUCTURE
     1 AZ6         1

