### 
### Created by X-TOOL on Mon Sep 10 21:13:14 2018
### 

@<TRIPOS>MOLECULE
4jpc_ligand
   48    51     1     0     0
SMALL
GAST_HUCK


@<TRIPOS>ATOM
      1 C1         26.9470   15.3250    9.1860 C.ar      1 1M6         0.0038
      2 C2         27.6320   14.0950    9.0140 C.ar      1 1M6        -0.0320
      3 C3         26.9220   12.9310    8.6410 C.ar      1 1M6         0.0031
      4 C4         25.5210   12.9940    8.4420 C.ar      1 1M6         0.1316
      5 C5         24.8260   14.2190    8.6190 C.ar      1 1M6         0.0376
      6 C6         25.5440   15.3800    8.9820 C.ar      1 1M6        -0.0344
      7 O7         24.8500   11.8510    8.0940 O.3       1 1M6        -0.2850
      8 C8         23.4360   11.7100    8.2520 C.3       1 1M6         0.0926
      9 C9         22.7180   13.0050    7.7980 C.3       1 1M6         0.0088
     10 C10        23.3110   14.3040    8.3820 C.3       1 1M6         0.1778
     11 C11        23.0360   15.4900    7.4390 C.2       1 1M6         0.2069
     12 N12        22.3290   16.4140    8.1240 N.am      1 1M6        -0.2187
     13 C13        22.0880   15.9170    9.3720 C.cat     1 1M6         0.3203
     14 N14        22.5740   14.7390    9.5680 N.pl3     1 1M6        -0.2697
     15 C15        27.6390   16.5060    9.5380 C.ar      1 1M6        -0.0051
     16 C16        21.9330   17.7200    7.5940 C.3       1 1M6         0.0236
     17 N17        21.3210   16.6530   10.2630 N.pl3     1 1M6        -0.2548
     18 C18        27.0450   17.4570   10.4030 C.ar      1 1M6        -0.0202
     19 C19        27.7420   18.6460   10.7270 C.ar      1 1M6         0.0953
     20 C20        29.0290   18.9000   10.1880 C.ar      1 1M6        -0.0280
     21 C21        29.6220   17.9540    9.3150 C.ar      1 1M6        -0.0514
     22 C22        28.9240   16.7660    8.9880 C.ar      1 1M6        -0.0468
     23 O23        23.5150   15.6060    6.3060 O.2       1 1M6        -0.3658
     24 C24        23.0150   10.5220    7.3590 C.3       1 1M6        -0.0305
     25 C25        23.0750   11.3910    9.7230 C.3       1 1M6        -0.0305
     26 C26        27.1330   19.6280   11.5960 C.1       1 1M6         0.1004
     27 N27        26.6290   20.3930   12.3010 N.1       1 1M6        -0.3282
     28 H1         28.7038   14.0474    9.1691 H         1 1M6         0.0842
     29 H2         27.4482   11.9927    8.5076 H         1 1M6         0.0635
     30 H3         25.0190   16.3203    9.1057 H         1 1M6         0.0799
     31 H4         21.6641   12.9396    8.1063 H         1 1M6         0.0226
     32 H5         22.7763   13.0636    6.7011 H         1 1M6         0.0226
     33 H6         22.4603   14.1872   10.4303 H         1 1M6         0.3096
     34 H7         22.2794   17.8141    6.5542 H         1 1M6         0.0484
     35 H8         22.3848   18.5158    8.2044 H         1 1M6         0.0484
     36 H9         20.8373   17.8114    7.6250 H         1 1M6         0.0484
     37 H10        20.9834   17.5899   10.0001 H         1 1M6         0.3199
     38 H11        21.0891   16.2626   11.1875 H         1 1M6         0.3199
     39 H12        26.0594   17.2751   10.8159 H         1 1M6         0.0718
     40 H13        29.5561   19.8124   10.4423 H         1 1M6         0.0709
     41 H14        30.6059   18.1391    8.8993 H         1 1M6         0.0638
     42 H15        29.3738   16.0480    8.3118 H         1 1M6         0.0684
     43 H16        21.9291   10.3674    7.4424 H         1 1M6         0.0262
     44 H17        23.5409    9.6129    7.6861 H         1 1M6         0.0262
     45 H18        23.2751   10.7396    6.3126 H         1 1M6         0.0262
     46 H19        21.9841   11.2874    9.8186 H         1 1M6         0.0262
     47 H20        23.4239   12.2080   10.3717 H         1 1M6         0.0262
     48 H21        23.5603   10.4509   10.0241 H         1 1M6         0.0262
@<TRIPOS>BOND
     1    1    2 ar 
     2    1    6 ar 
     3    1   15 1  
     4    2    3 ar 
     5    3    4 ar 
     6    4    5 ar 
     7    4    7 1  
     8    5    6 ar 
     9    5   10 1  
    10    7    8 1  
    11    8    9 1  
    12    8   24 1  
    13    8   25 1  
    14    9   10 1  
    15   10   11 1  
    16   10   14 1  
    17   11   12 am 
    18   11   23 2  
    19   12   13 ar 
    20   12   16 1  
    21   13   14 ar 
    22   13   17 ar 
    23   15   18 ar 
    24   15   22 ar 
    25   18   19 ar 
    26   19   20 ar 
    27   19   26 1  
    28   20   21 ar 
    29   21   22 ar 
    30   26   27 3  
    31    2   28 1  
    32    3   29 1  
    33    6   30 1  
    34    9   31 1  
    35    9   32 1  
    36   14   33 1  
    37   16   34 1  
    38   16   35 1  
    39   16   36 1  
    40   17   37 1  
    41   17   38 1  
    42   18   39 1  
    43   20   40 1  
    44   21   41 1  
    45   22   42 1  
    46   24   43 1  
    47   24   44 1  
    48   24   45 1  
    49   25   46 1  
    50   25   47 1  
    51   25   48 1  
@<TRIPOS>SUBSTRUCTURE
     1 1M6         1

