### 
### Created by X-TOOL on Mon Sep 10 21:13:14 2018
### 

@<TRIPOS>MOLECULE
4jpe_ligand
   47    50     1     0     0
SMALL
GAST_HUCK


@<TRIPOS>ATOM
      1 C1         26.9220   15.5280    9.4710 C.ar      1 1M7         0.0177
      2 C2         27.6930   14.3620    9.1990 C.ar      1 1M7        -0.0290
      3 C3         27.0620   13.1950    8.6920 C.ar      1 1M7        -0.0261
      4 C4         25.6610   13.1670    8.4420 C.ar      1 1M7        -0.0094
      5 C5         24.8860   14.3290    8.7110 C.ar      1 1M7         0.0111
      6 C6         25.5200   15.4950    9.2170 C.ar      1 1M7        -0.0304
      7 C7         24.9900   11.8980    7.9020 C.3       1 1M7         0.0020
      8 C8         23.4720   11.7820    8.1960 C.3       1 1M7        -0.0237
      9 C9         22.7700   13.0920    7.7680 C.3       1 1M7        -0.0156
     10 C10        23.3790   14.3520    8.4320 C.3       1 1M7         0.1777
     11 C11        27.5100   16.7270    9.9630 C.ar      1 1M7         0.0379
     12 C12        23.0830   15.5720    7.5430 C.2       1 1M7         0.2110
     13 N13        22.2800   16.4100    8.2250 N.am      1 1M7        -0.2179
     14 C14        22.0470   15.8540    9.4480 C.cat     1 1M7         0.3211
     15 N15        22.6180   14.7120    9.6310 N.pl3     1 1M7        -0.2663
     16 O16        23.5120   15.7300    6.3950 O.2       1 1M7        -0.3636
     17 C17        21.7750   17.6870    7.7060 C.3       1 1M7         0.0237
     18 N18        21.2500   16.5310   10.3440 N.pl3     1 1M7        -0.2547
     19 C19        28.7330   17.2280    9.4320 C.ar      1 1M7         0.0361
     20 N20        29.2650   18.3750    9.8890 N.ar      1 1M7        -0.2632
     21 C21        28.5880   19.0290   10.8520 C.ar      1 1M7         0.0889
     22 N22        27.4230   18.6560   11.4060 N.ar      1 1M7        -0.2632
     23 C23        26.8810   17.5100   10.9660 C.ar      1 1M7         0.0361
     24 C24        22.8510   10.6230    7.3770 C.3       1 1M7        -0.0578
     25 C25        23.2220   11.4870    9.7010 C.3       1 1M7        -0.0578
     26 H1         28.7620   14.3652    9.3790 H         1 1M7         0.0859
     27 H2         27.6570   12.3112    8.4922 H         1 1M7         0.0644
     28 H3         24.9245   16.3790    9.4143 H         1 1M7         0.0836
     29 H4         25.4919   11.0289    8.3523 H         1 1M7         0.0515
     30 H5         25.1286   11.8769    6.8110 H         1 1M7         0.0515
     31 H6         21.7080   13.0276    8.0473 H         1 1M7         0.0209
     32 H7         22.8564   13.1951    6.6763 H         1 1M7         0.0209
     33 H8         22.5496   14.1423   10.4863 H         1 1M7         0.3105
     34 H9         22.1500   17.8412    6.6835 H         1 1M7         0.0484
     35 H10        22.1214   18.5078    8.3512 H         1 1M7         0.0484
     36 H11        20.6752   17.6689    7.6943 H         1 1M7         0.0484
     37 H12        20.8451   17.4424   10.0867 H         1 1M7         0.3199
     38 H13        21.0588   16.1259   11.2715 H         1 1M7         0.3199
     39 H14        29.2416   16.6772    8.6490 H         1 1M7         0.0937
     40 H15        29.0281   19.9500   11.2170 H         1 1M7         0.1116
     41 H16        25.9401   17.1741   11.3867 H         1 1M7         0.0937
     42 H17        23.3317    9.6751    7.6604 H         1 1M7         0.0237
     43 H18        23.0078   10.8071    6.3039 H         1 1M7         0.0237
     44 H19        21.7725   10.5637    7.5851 H         1 1M7         0.0237
     45 H20        23.6532   12.2955   10.3096 H         1 1M7         0.0237
     46 H21        23.6961   10.5319    9.9712 H         1 1M7         0.0237
     47 H22        22.1397   11.4249    9.8877 H         1 1M7         0.0237
@<TRIPOS>BOND
     1    1    2 ar 
     2    1    6 ar 
     3    1   11 1  
     4    2    3 ar 
     5    3    4 ar 
     6    4    5 ar 
     7    4    7 1  
     8    5    6 ar 
     9    5   10 1  
    10    7    8 1  
    11    8    9 1  
    12    8   24 1  
    13    8   25 1  
    14    9   10 1  
    15   10   12 1  
    16   10   15 1  
    17   11   19 ar 
    18   11   23 ar 
    19   12   13 am 
    20   12   16 2  
    21   13   14 ar 
    22   13   17 1  
    23   14   15 ar 
    24   14   18 ar 
    25   19   20 ar 
    26   20   21 ar 
    27   21   22 ar 
    28   22   23 ar 
    29    2   26 1  
    30    3   27 1  
    31    6   28 1  
    32    7   29 1  
    33    7   30 1  
    34    9   31 1  
    35    9   32 1  
    36   15   33 1  
    37   17   34 1  
    38   17   35 1  
    39   17   36 1  
    40   18   37 1  
    41   18   38 1  
    42   19   39 1  
    43   21   40 1  
    44   23   41 1  
    45   24   42 1  
    46   24   43 1  
    47   24   44 1  
    48   25   45 1  
    49   25   46 1  
    50   25   47 1  
@<TRIPOS>SUBSTRUCTURE
     1 1M7         1

