### 
### Created by X-TOOL on Mon Sep 10 21:13:19 2018
### 

@<TRIPOS>MOLECULE
4jps_ligand
   52    54     1     0     0
SMALL
GAST_HUCK


@<TRIPOS>ATOM
      1 C1         -3.0800  -11.7290   15.7730 C.2       1 1LT        -0.0042
      2 C2         -1.6030  -10.4210   14.7720 C.2       1 1LT         0.2141
      3 C3          0.0440   -8.8630   13.8080 C.2       1 1LT         0.3078
      4 O1          1.6100   -5.2050   13.6960 O.2       1 1LT        -0.3948
      5 C11        -4.2730  -11.6290   18.7320 C.ar      1 1LT        -0.0163
      6 C12        -4.6390  -11.5270   20.0560 C.ar      1 1LT         0.0227
      7 C13        -2.9160  -10.0900   20.5290 C.ar      1 1LT         0.0219
      8 C14        -2.4780  -10.1140   19.1970 C.ar      1 1LT        -0.0164
      9 C15        -2.1400   -9.3030   21.6130 C.3       1 1LT         0.0670
     10 C16        -1.0640   -8.4030   20.9840 C.3       1 1LT        -0.0708
     11 C17        -3.1110   -8.4460   22.4440 C.3       1 1LT        -0.0708
     12 C18        -1.3810  -10.3370   22.6220 C.3       1 1LT         0.3755
     13 F2         -0.6820   -9.6680   23.5380 F         1 1LT        -0.1776
     14 F          -2.2190  -11.1320   23.2770 F         1 1LT        -0.1776
     15 F1         -0.5360  -11.1320   21.9750 F         1 1LT        -0.1776
     16 N4         -3.9910  -10.7690   20.9520 N.ar      1 1LT        -0.2916
     17 C10        -3.1840  -10.8900   18.2830 C.ar      1 1LT         0.0144
     18 C9         -2.7500  -10.9380   16.8690 C.2       1 1LT         0.0520
     19 C          -4.0520  -12.8640   15.7720 C.3       1 1LT        -0.0273
     20 S          -1.5770   -9.7460   16.3620 S.3       1 1LT         0.0155
     21 N          -2.4190  -11.4290   14.5990 N.2       1 1LT        -0.2975
     22 N1         -0.8290   -9.9580   13.7250 N.am      1 1LT        -0.1737
     23 O           0.1900   -8.2350   14.8460 O.2       1 1LT        -0.3844
     24 N2          0.7390   -8.5170   12.6650 N.am      1 1LT        -0.2302
     25 C7          1.6800   -7.3850   12.6910 C.3       1 1LT         0.1347
     26 C8          1.0160   -6.0450   13.0140 C.2       1 1LT         0.1992
     27 N3         -0.2270   -5.8810   12.5910 N.am      1 1LT        -0.2990
     28 C6          2.3070   -7.3990   11.2880 C.3       1 1LT        -0.0105
     29 C5          1.3280   -8.1590   10.4240 C.3       1 1LT        -0.0283
     30 C4          0.6760   -9.1660   11.3460 C.3       1 1LT         0.0381
     31 H          -4.8225  -12.2721   18.0541 H         1 1LT         0.0817
     32 H          -5.5005  -12.0921   20.3928 H         1 1LT         0.0874
     33 H          -1.6108   -9.5421   18.8871 H         1 1LT         0.0906
     34 H          -1.5397   -7.6897   20.2948 H         1 1LT         0.0154
     35 H          -0.3446   -9.0239   20.4300 H         1 1LT         0.0154
     36 H          -0.5379   -7.8514   21.7770 H         1 1LT         0.0154
     37 H          -3.6349   -7.7401   21.7828 H         1 1LT         0.0154
     38 H          -2.5471   -7.8863   23.2047 H         1 1LT         0.0154
     39 H          -3.8452   -9.0990   22.9385 H         1 1LT         0.0154
     40 H          -4.1056  -13.2999   14.7635 H         1 1LT         0.0403
     41 H          -5.0461  -12.4957   16.0655 H         1 1LT         0.0403
     42 H          -3.7198  -13.6319   16.4862 H         1 1LT         0.0403
     43 H          -0.8957  -10.4358   12.8490 H         1 1LT         0.2457
     44 H           2.4562   -7.5690   13.4484 H         1 1LT         0.0800
     45 H          -0.6656   -6.5913   12.0404 H         1 1LT         0.1815
     46 H          -0.7278   -5.0468   12.8219 H         1 1LT         0.1815
     47 H           3.2817   -7.9085   11.3062 H         1 1LT         0.0313
     48 H           2.4365   -6.3730   10.9131 H         1 1LT         0.0313
     49 H           1.8544   -8.6713    9.6052 H         1 1LT         0.0287
     50 H           0.5741   -7.4764   10.0049 H         1 1LT         0.0287
     51 H          -0.3666   -9.3529   11.0494 H         1 1LT         0.0522
     52 H           1.2324  -10.1149   11.3479 H         1 1LT         0.0522
@<TRIPOS>BOND
     1    1   18 2  
     2    1   19 1  
     3   21    1 1  
     4    2   20 1  
     5    2   21 2  
     6   22    2 1  
     7    3   22 am 
     8    3   23 2  
     9   24    3 am 
    10   26    4 2  
    11    5    6 ar 
    12   17    5 ar 
    13    6   16 ar 
    14    8    7 ar 
    15    7    9 1  
    16    7   16 ar 
    17   17    8 ar 
    18    9   10 1  
    19    9   11 1  
    20    9   12 1  
    21   12   13 1  
    22   12   14 1  
    23   12   15 1  
    24   18   17 1  
    25   20   18 1  
    26   25   24 1  
    27   24   30 1  
    28   25   26 1  
    29   25   28 1  
    30   26   27 am 
    31   28   29 1  
    32   29   30 1  
    33    5   31 1  
    34    6   32 1  
    35    8   33 1  
    36   10   34 1  
    37   10   35 1  
    38   10   36 1  
    39   11   37 1  
    40   11   38 1  
    41   11   39 1  
    42   19   40 1  
    43   19   41 1  
    44   19   42 1  
    45   22   43 1  
    46   25   44 1  
    47   27   45 1  
    48   27   46 1  
    49   28   47 1  
    50   28   48 1  
    51   29   49 1  
    52   29   50 1  
    53   30   51 1  
    54   30   52 1  
@<TRIPOS>SUBSTRUCTURE
     1 1LT         1

