### 
### Created by X-TOOL on Mon Sep 10 21:13:12 2018
### 

@<TRIPOS>MOLECULE
4jpx_ligand
   23    23     1     0     0
SMALL
GAST_HUCK


@<TRIPOS>ATOM
      1 N           5.1600   -7.9300  -16.9480 N.4       1 PHE         0.2341
      2 CA          6.3100   -7.6630  -16.0820 C.3       1 PHE         0.0378
      3 C           7.5950   -8.2560  -16.6440 C.2       1 PHE         0.0866
      4 O           7.6780   -8.6040  -17.8160 O.co2     1 PHE        -0.5641
      5 CB          6.0510   -8.1800  -14.6620 C.3       1 PHE         0.0361
      6 CG          5.1140   -7.3120  -13.8780 C.ar      1 PHE        -0.0360
      7 CD1         5.5470   -6.0980  -13.3440 C.ar      1 PHE        -0.0600
      8 CD2         3.7990   -7.6820  -13.6970 C.ar      1 PHE        -0.0600
      9 CE1         4.6770   -5.2910  -12.6280 C.ar      1 PHE        -0.0686
     10 CE2         2.9240   -6.8760  -12.9840 C.ar      1 PHE        -0.0686
     11 CZ          3.3580   -5.6800  -12.4520 C.ar      1 PHE        -0.0687
     12 OXT         8.5950   -8.3940  -15.9520 O.co2     1 PHE        -0.5641
     13 H1          4.3321   -7.5225  -16.5423 H         1 PHE         0.2012
     14 H2          5.0334   -8.9257  -17.0410 H         1 PHE         0.2012
     15 H3          5.3227   -7.5256  -17.8569 H         1 PHE         0.2012
     16 H4          6.4410   -6.5722  -16.0269 H         1 PHE         0.1048
     17 H5          7.0112   -8.2293  -14.1276 H         1 PHE         0.0500
     18 H6          5.6176   -9.1886  -14.7311 H         1 PHE         0.0500
     19 H7          6.5738   -5.7829  -13.4905 H         1 PHE         0.0557
     20 H8          3.4436   -8.6157  -14.1176 H         1 PHE         0.0557
     21 H9          5.0276   -4.3562  -12.2058 H         1 PHE         0.0599
     22 H10         1.8951   -7.1873  -12.8444 H         1 PHE         0.0599
     23 H11         2.6721   -5.0480  -11.8996 H         1 PHE         0.0559
@<TRIPOS>BOND
     1    1    2 1  
     2    2    3 1  
     3    2    5 1  
     4    3    4 ar 
     5    3   12 ar 
     6    5    6 1  
     7    6    7 ar 
     8    6    8 ar 
     9    7    9 ar 
    10    8   10 ar 
    11    9   11 ar 
    12   10   11 ar 
    13    1   13 1  
    14    1   14 1  
    15    1   15 1  
    16    2   16 1  
    17    5   17 1  
    18    5   18 1  
    19    7   19 1  
    20    8   20 1  
    21    9   21 1  
    22   10   22 1  
    23   11   23 1  
@<TRIPOS>SUBSTRUCTURE
     1 PHE         1

