### 
### Created by X-TOOL on Mon Sep 10 21:13:15 2018
### 

@<TRIPOS>MOLECULE
4jpy_ligand
   23    23     1     0     0
SMALL
GAST_HUCK


@<TRIPOS>ATOM
      1 N          -7.5630    5.4710   17.0090 N.4       1 PHE         0.2341
      2 CA         -7.1420    6.5600   16.0780 C.3       1 PHE         0.0378
      3 C          -7.4880    7.9230   16.6590 C.2       1 PHE         0.0866
      4 O          -7.4310    8.9450   15.9880 O.co2     1 PHE        -0.5641
      5 CB         -7.7580    6.3610   14.6820 C.3       1 PHE         0.0361
      6 CG         -6.9560    5.4250   13.7940 C.ar      1 PHE        -0.0360
      7 CD1        -5.8360    5.8980   13.0780 C.ar      1 PHE        -0.0600
      8 CD2        -7.2880    4.0870   13.6870 C.ar      1 PHE        -0.0600
      9 CE1        -5.0910    5.0420   12.2690 C.ar      1 PHE        -0.0686
     10 CE2        -6.5420    3.2270   12.8670 C.ar      1 PHE        -0.0686
     11 CZ         -5.4470    3.7040   12.1560 C.ar      1 PHE        -0.0687
     12 OXT        -7.8180    8.0190   17.8450 O.co2     1 PHE        -0.5641
     13 H1         -7.3264    4.5766   16.6087 H         1 PHE         0.2012
     14 H2         -8.5590    5.5206   17.1556 H         1 PHE         0.2012
     15 H3         -7.0877    5.5806   17.8911 H         1 PHE         0.2012
     16 H4         -6.0485    6.5091   15.9705 H         1 PHE         0.1048
     17 H5         -7.8221    7.3411   14.1867 H         1 PHE         0.0500
     18 H6         -8.7689    5.9447   14.8035 H         1 PHE         0.0500
     19 H7         -5.5513    6.9409   13.1582 H         1 PHE         0.0557
     20 H8         -8.1337    3.6983   14.2426 H         1 PHE         0.0557
     21 H9         -4.2322    5.4210   11.7269 H         1 PHE         0.0599
     22 H10        -6.8217    2.1827   12.7873 H         1 PHE         0.0599
     23 H11        -4.8761    3.0380   11.5192 H         1 PHE         0.0559
@<TRIPOS>BOND
     1    1    2 1  
     2    2    3 1  
     3    2    5 1  
     4    3    4 ar 
     5    3   12 ar 
     6    5    6 1  
     7    6    7 ar 
     8    6    8 ar 
     9    7    9 ar 
    10    8   10 ar 
    11    9   11 ar 
    12   10   11 ar 
    13    1   13 1  
    14    1   14 1  
    15    1   15 1  
    16    2   16 1  
    17    5   17 1  
    18    5   18 1  
    19    7   19 1  
    20    8   20 1  
    21    9   21 1  
    22   10   22 1  
    23   11   23 1  
@<TRIPOS>SUBSTRUCTURE
     1 PHE         1

