### 
### Created by X-TOOL on Mon Sep 10 21:13:15 2018
### 

@<TRIPOS>MOLECULE
4jq7_ligand
   52    56     1     0     0
SMALL
GAST_HUCK


@<TRIPOS>ATOM
      1 C3        -52.7060    0.1530  -22.0870 C.ar      1 KJQ         0.0759
      2 C2        -51.7920   -0.2730  -21.1710 C.2       1 KJQ         0.0223
      3 N8        -53.9750    0.6220  -24.0290 N.ar      1 KJQ        -0.2684
      4 C9        -54.8850    1.3640  -23.2920 C.ar      1 KJQ         0.0554
      5 C6        -52.9210    0.0310  -23.4330 C.ar      1 KJQ         0.1281
      6 C4        -53.5950    0.8790  -21.3710 C.ar      1 KJQ         0.2013
      7 C1        -52.1610    0.2000  -19.9560 C.2       1 KJQ         0.1438
      8 C23       -52.9010   -0.2000  -27.8520 C.ar      1 KJQ        -0.0580
      9 C25       -52.9280    0.8140  -28.8070 C.ar      1 KJQ        -0.0685
     10 C27       -52.4840    2.0910  -28.4790 C.ar      1 KJQ        -0.0687
     11 C26       -52.0140    2.3450  -27.1940 C.ar      1 KJQ        -0.0685
     12 C24       -51.9760    1.3260  -26.2400 C.ar      1 KJQ        -0.0580
     13 C22       -52.4240    0.0350  -26.5560 C.ar      1 KJQ        -0.0152
     14 CA        -52.4240   -1.0470  -25.6260 C.3       1 KJQ         0.0981
     15 C         -51.4420   -2.1050  -26.1200 C.3       1 KJQ         0.0773
     16 O         -51.6530   -3.2570  -25.2920 O.3       1 KJQ        -0.3906
     17 N         -52.0700   -0.6560  -24.2260 N.pl3     1 KJQ        -0.2844
     18 N7        -54.6630    1.4770  -21.9260 N.ar      1 KJQ        -0.2620
     19 O5        -53.2450    0.8810  -20.1220 O.3       1 KJQ        -0.2284
     20 C10       -51.6490    0.0740  -18.7130 C.ar      1 KJQ         0.0192
     21 C14       -50.7470   -0.9200  -18.3030 C.ar      1 KJQ        -0.0510
     22 C17       -50.3020   -0.9810  -16.9770 C.ar      1 KJQ        -0.0615
     23 C21       -50.7600   -0.0640  -16.0340 C.ar      1 KJQ        -0.0622
     24 C18       -51.6670    0.9170  -16.4210 C.ar      1 KJQ        -0.0615
     25 C15       -52.1100    0.9780  -17.7410 C.ar      1 KJQ        -0.0510
     26 C11       -50.7230   -1.0460  -21.4300 C.ar      1 KJQ        -0.0309
     27 C13       -49.4200   -0.5680  -21.2700 C.ar      1 KJQ        -0.0609
     28 C16       -48.3300   -1.4010  -21.5370 C.ar      1 KJQ        -0.0660
     29 C20       -48.5280   -2.7120  -21.9670 C.ar      1 KJQ        -0.0660
     30 C19       -49.8250   -3.1950  -22.1270 C.ar      1 KJQ        -0.0660
     31 C12       -50.9150   -2.3680  -21.8520 C.ar      1 KJQ        -0.0609
     32 H1        -55.7377    1.8381  -23.7643 H         1 KJQ         0.1000
     33 H2        -53.2558   -1.1895  -28.1168 H         1 KJQ         0.0557
     34 H3        -53.2951    0.6079  -29.8059 H         1 KJQ         0.0599
     35 H4        -52.5040    2.8827  -29.2192 H         1 KJQ         0.0559
     36 H5        -51.6751    3.3407  -26.9318 H         1 KJQ         0.0599
     37 H6        -51.5968    1.5346  -25.2461 H         1 KJQ         0.0557
     38 H7        -53.4355   -1.4789  -25.6081 H         1 KJQ         0.0750
     39 H8        -50.4079   -1.7445  -26.0170 H         1 KJQ         0.0604
     40 H9        -51.6418   -2.3498  -27.1736 H         1 KJQ         0.0604
     41 H10       -51.0618   -3.9506  -25.5598 H         1 KJQ         0.2097
     42 H11       -51.1463   -0.9195  -23.8542 H         1 KJQ         0.1895
     43 H12       -50.3906   -1.6492  -19.0216 H         1 KJQ         0.0623
     44 H13       -49.5953   -1.7481  -16.6818 H         1 KJQ         0.0616
     45 H14       -50.4129   -0.1143  -15.0083 H         1 KJQ         0.0614
     46 H15       -52.0299    1.6353  -15.6947 H         1 KJQ         0.0616
     47 H16       -52.8267    1.7403  -18.0244 H         1 KJQ         0.0623
     48 H17       -49.2542    0.4506  -20.9382 H         1 KJQ         0.0583
     49 H18       -47.3217   -1.0242  -21.4086 H         1 KJQ         0.0606
     50 H19       -47.6782   -3.3518  -22.1756 H         1 KJQ         0.0581
     51 H20       -49.9873   -4.2122  -22.4648 H         1 KJQ         0.0606
     52 H21       -51.9219   -2.7530  -21.9662 H         1 KJQ         0.0583
@<TRIPOS>BOND
     1    1    2 1  
     2    5    1 ar 
     3    1    6 ar 
     4    2    7 2  
     5    2   26 1  
     6    3    4 ar 
     7    5    3 ar 
     8    4   18 ar 
     9   17    5 1  
    10    6   18 ar 
    11    6   19 1  
    12   19    7 1  
    13    7   20 1  
    14    8    9 ar 
    15   13    8 ar 
    16    9   10 ar 
    17   11   10 ar 
    18   12   11 ar 
    19   13   12 ar 
    20   14   13 1  
    21   14   15 1  
    22   14   17 1  
    23   15   16 1  
    24   20   21 ar 
    25   20   25 ar 
    26   21   22 ar 
    27   22   23 ar 
    28   23   24 ar 
    29   24   25 ar 
    30   26   27 ar 
    31   26   31 ar 
    32   27   28 ar 
    33   28   29 ar 
    34   29   30 ar 
    35   30   31 ar 
    36    4   32 1  
    37    8   33 1  
    38    9   34 1  
    39   10   35 1  
    40   11   36 1  
    41   12   37 1  
    42   14   38 1  
    43   15   39 1  
    44   15   40 1  
    45   16   41 1  
    46   17   42 1  
    47   21   43 1  
    48   22   44 1  
    49   23   45 1  
    50   24   46 1  
    51   25   47 1  
    52   27   48 1  
    53   28   49 1  
    54   29   50 1  
    55   30   51 1  
    56   31   52 1  
@<TRIPOS>SUBSTRUCTURE
     1 KJQ         1

