### 
### Created by X-TOOL on Mon Sep 10 21:13:14 2018
### 

@<TRIPOS>MOLECULE
4jq8_ligand
   71    75     1     0     0
SMALL
GAST_HUCK


@<TRIPOS>ATOM
      1 C35       155.6730  120.1920  196.2610 C.3       1 KJ8        -0.0432
      2 N32       154.3330  120.7330  196.5650 N.4       1 KJ8         0.2326
      3 C34       153.2940  119.8090  196.0690 C.3       1 KJ8        -0.0432
      4 C31       154.1330  122.1350  196.1470 C.3       1 KJ8        -0.0149
      5 C30       153.4990  122.9410  197.2770 C.3       1 KJ8         0.0831
      6 C29       152.1640  123.5670  196.7710 C.2       1 KJ8         0.2085
      7 O33       152.1110  124.0380  195.6440 O.2       1 KJ8        -0.3847
      8 N28       151.1450  123.6630  197.6740 N.am      1 KJ8        -0.2349
      9 C26       149.9490  124.2320  197.3340 C.ar      1 KJ8         0.0616
     10 C27       149.0610  124.5510  198.3820 C.ar      1 KJ8        -0.0415
     11 C25       149.5380  124.5230  196.0210 C.ar      1 KJ8        -0.0452
     12 C24       148.2850  125.0940  195.7960 C.ar      1 KJ8        -0.0790
     13 C23       147.4190  125.3870  196.8500 C.ar      1 KJ8        -0.0759
     14 C16       147.7970  125.1300  198.1740 C.ar      1 KJ8        -0.0449
     15 C1        146.9610  125.3930  199.2200 C.2       1 KJ8         0.0185
     16 C5        146.5090  124.4600  200.1160 C.ar      1 KJ8         0.0755
     17 C2        146.3940  126.5800  199.5480 C.2       1 KJ8         0.1435
     18 C10       146.5280  127.8050  199.0400 C.ar      1 KJ8         0.0193
     19 C11       147.5520  128.1700  198.1520 C.ar      1 KJ8        -0.0510
     20 C12       147.6440  129.4830  197.7040 C.ar      1 KJ8        -0.0615
     21 C13       146.7540  130.4470  198.1670 C.ar      1 KJ8        -0.0621
     22 C14       145.7640  130.1090  199.0800 C.ar      1 KJ8        -0.0615
     23 C15       145.6560  128.7960  199.5200 C.ar      1 KJ8        -0.0510
     24 O3        145.6290  126.4140  200.6270 O.3       1 KJ8        -0.2284
     25 C4        145.6910  125.1240  200.9760 C.ar      1 KJ8         0.2014
     26 N6        145.0710  124.5160  201.9980 N.ar      1 KJ8        -0.2620
     27 C7        145.2770  123.1540  202.2020 C.ar      1 KJ8         0.0554
     28 N8        146.1150  122.4720  201.3340 N.ar      1 KJ8        -0.2685
     29 C9        146.7090  123.1240  200.3130 C.ar      1 KJ8         0.1280
     30 N         147.4820  122.4160  199.4480 N.pl3     1 KJ8        -0.2844
     31 CA        147.8220  120.9760  199.6370 C.3       1 KJ8         0.0981
     32 C         148.7770  120.5070  198.5660 C.3       1 KJ8         0.0773
     33 O         150.0700  121.0460  198.8070 O.3       1 KJ8        -0.3906
     34 C17       146.6880  120.1040  199.6130 C.ar      1 KJ8        -0.0152
     35 C18       145.4330  120.4960  199.1440 C.ar      1 KJ8        -0.0580
     36 C19       144.3500  119.6110  199.1490 C.ar      1 KJ8        -0.0685
     37 C20       144.4990  118.3090  199.6090 C.ar      1 KJ8        -0.0687
     38 C21       145.7420  117.9030  200.0660 C.ar      1 KJ8        -0.0685
     39 C22       146.8180  118.7910  200.0750 C.ar      1 KJ8        -0.0580
     40 H1        155.7338  119.1488  196.6045 H         1 KJ8         0.0777
     41 H2        156.4366  120.7928  196.7766 H         1 KJ8         0.0777
     42 H3        155.8467  120.2313  195.1755 H         1 KJ8         0.0777
     43 H4        154.2522  120.7378  197.5697 H         1 KJ8         0.2029
     44 H5        152.2992  120.2184  196.2989 H         1 KJ8         0.0777
     45 H6        153.4097  118.8305  196.5580 H         1 KJ8         0.0777
     46 H7        153.3987  119.6897  194.9805 H         1 KJ8         0.0777
     47 H8        153.4718  122.1606  195.2683 H         1 KJ8         0.0840
     48 H9        155.1057  122.5781  195.8871 H         1 KJ8         0.0840
     49 H10       154.1861  123.7414  197.5889 H         1 KJ8         0.0561
     50 H11       153.2947  122.2793  198.1317 H         1 KJ8         0.0561
     51 H12       151.2754  123.3109  198.6008 H         1 KJ8         0.2254
     52 H13       149.3687  124.3390  199.3996 H         1 KJ8         0.0458
     53 H14       150.1932  124.3042  195.1856 H         1 KJ8         0.0473
     54 H15       147.9776  125.3148  194.7802 H         1 KJ8         0.0568
     55 H16       146.4458  125.8170  196.6425 H         1 KJ8         0.0459
     56 H17       148.2694  127.4299  197.8163 H         1 KJ8         0.0623
     57 H18       148.4128  129.7569  196.9906 H         1 KJ8         0.0616
     58 H19       146.8340  131.4684  197.8127 H         1 KJ8         0.0614
     59 H20       145.0796  130.8652  199.4471 H         1 KJ8         0.0616
     60 H21       144.8907  128.5333  200.2414 H         1 KJ8         0.0623
     61 H22       144.7920  122.6379  203.0227 H         1 KJ8         0.1000
     62 H23       147.8529  122.8996  198.6176 H         1 KJ8         0.1895
     63 H24       148.3110  120.8764  200.6173 H         1 KJ8         0.0750
     64 H25       148.4178  120.8445  197.5826 H         1 KJ8         0.0604
     65 H26       148.8306  119.4084  198.5796 H         1 KJ8         0.0604
     66 H27       150.3804  120.7540  199.6561 H         1 KJ8         0.2097
     67 H28       145.2954  121.5039  198.7694 H         1 KJ8         0.0557
     68 H29       143.3833  119.9451  198.7898 H         1 KJ8         0.0599
     69 H30       143.6589  117.6239  199.6104 H         1 KJ8         0.0559
     70 H31       145.8798  116.8875  200.4194 H         1 KJ8         0.0599
     71 H32       147.7781  118.4547  200.4493 H         1 KJ8         0.0557
@<TRIPOS>BOND
     1    1    2 1  
     2    2    3 1  
     3    2    4 1  
     4    4    5 1  
     5    5    6 1  
     6    6    7 2  
     7    6    8 am 
     8    8    9 1  
     9    9   10 ar 
    10    9   11 ar 
    11   10   14 ar 
    12   11   12 ar 
    13   12   13 ar 
    14   13   14 ar 
    15   14   15 1  
    16   15   16 1  
    17   15   17 2  
    18   16   25 ar 
    19   16   29 ar 
    20   17   18 1  
    21   17   24 1  
    22   18   19 ar 
    23   18   23 ar 
    24   19   20 ar 
    25   20   21 ar 
    26   21   22 ar 
    27   22   23 ar 
    28   24   25 1  
    29   25   26 ar 
    30   26   27 ar 
    31   27   28 ar 
    32   28   29 ar 
    33   29   30 1  
    34   30   31 1  
    35   31   32 1  
    36   31   34 1  
    37   32   33 1  
    38   34   35 ar 
    39   34   39 ar 
    40   35   36 ar 
    41   36   37 ar 
    42   37   38 ar 
    43   38   39 ar 
    44    1   40 1  
    45    1   41 1  
    46    1   42 1  
    47    2   43 1  
    48    3   44 1  
    49    3   45 1  
    50    3   46 1  
    51    4   47 1  
    52    4   48 1  
    53    5   49 1  
    54    5   50 1  
    55    8   51 1  
    56   10   52 1  
    57   11   53 1  
    58   12   54 1  
    59   13   55 1  
    60   19   56 1  
    61   20   57 1  
    62   21   58 1  
    63   22   59 1  
    64   23   60 1  
    65   27   61 1  
    66   30   62 1  
    67   31   63 1  
    68   32   64 1  
    69   32   65 1  
    70   33   66 1  
    71   35   67 1  
    72   36   68 1  
    73   37   69 1  
    74   38   70 1  
    75   39   71 1  
@<TRIPOS>SUBSTRUCTURE
     1 KJ8         1

