### 
### Created by X-TOOL on Mon Sep 10 21:13:13 2018
### 

@<TRIPOS>MOLECULE
4jql_ligand
   81    82     1     0     0
SMALL
GAST_HUCK


@<TRIPOS>ATOM
      1 C1         36.0510    2.6890   54.9920 C.2       1 VJ6         0.2138
      2 N1         35.6220    3.6320   54.0140 N.am      1 VJ6        -0.2407
      3 O1         36.8820    1.8830   54.6220 O.2       1 VJ6        -0.3848
      4 C2         35.5370    2.6770   56.3990 C.2       1 VJ6         0.0175
      5 N2         38.5200    9.8190   60.2360 N.am      1 VJ6        -0.2762
      6 O2         37.0830    5.5800   59.9720 O.3       1 VJ6        -0.2555
      7 C3         35.6480    3.7930   57.2290 C.2       1 VJ6        -0.0676
      8 N3         39.3400    6.0360   60.6730 N.am      1 VJ6        -0.2763
      9 O3         37.0070    8.1680   59.3500 O.3       1 VJ6        -0.2461
     10 C4         35.1860    3.7900   58.6680 C.3       1 VJ6        -0.0225
     11 O4         36.3170    9.6770   60.8950 O.2       1 VJ6        -0.3776
     12 C5         34.8910    5.1980   59.1160 C.3       1 VJ6        -0.0078
     13 O5         30.2080    9.3360   58.0830 O.3       1 VJ6        -0.3756
     14 C6         36.1270    6.0370   59.0780 C.3       1 VJ6         0.1287
     15 O6         29.9530    6.7190   59.2540 O.3       1 VJ6        -0.3748
     16 C7         35.8370    7.4530   59.4460 C.3       1 VJ6         0.1435
     17 O7         38.7780    5.6210   58.5120 O.2       1 VJ6        -0.3777
     18 C8         34.8220    8.0760   58.5360 C.2       1 VJ6        -0.0480
     19 O8         34.2320    8.1620   53.2020 O.3       1 VJ6        -0.3268
     20 C9         33.6390    8.4990   59.1350 C.2       1 VJ6        -0.1008
     21 O9         31.1900    5.5730   56.9650 O.3       1 VJ6        -0.3651
     22 C10        32.5450    9.2560   58.4340 C.3       1 VJ6        -0.0090
     23 C11        31.1850    8.7340   58.8440 C.3       1 VJ6         0.0921
     24 C12        31.0790    7.2340   58.6760 C.3       1 VJ6         0.1091
     25 C13        31.0310    6.9270   57.2080 C.3       1 VJ6         0.0790
     26 C14        29.0030    9.7390   58.6620 C.3       1 VJ6         0.0371
     27 C15        31.1240    5.1400   55.6420 C.3       1 VJ6         0.0762
     28 C16        32.4210    5.3950   54.9520 C.ar      1 VJ6        -0.0396
     29 C17        32.7100    6.7390   54.3740 C.ar      1 VJ6        -0.0452
     30 C18        33.9040    6.9530   53.7640 C.ar      1 VJ6         0.0710
     31 C19        34.9080    5.8680   53.6430 C.ar      1 VJ6        -0.0210
     32 C20        34.6480    4.6530   54.1760 C.ar      1 VJ6         0.0495
     33 C21        33.3380    4.3920   54.8460 C.ar      1 VJ6        -0.0494
     34 C22        34.9370    1.4130   56.9210 C.3       1 VJ6        -0.0331
     35 C23        38.4310    5.5340   59.6840 C.2       1 VJ6         0.3174
     36 C24        37.2090    9.2530   60.1740 C.2       1 VJ6         0.3192
     37 C25        35.1570    8.2560   57.0780 C.3       1 VJ6        -0.0375
     38 C26        32.6570   10.6910   58.8090 C.3       1 VJ6        -0.0567
     39 C27        29.7680    6.8480   60.6120 C.3       1 VJ6         0.0370
     40 C28        34.9010    8.0330   51.9950 C.3       1 VJ6         0.0589
     41 H1         36.0542    3.5680   53.1145 H         1 VJ6         0.2240
     42 H2         38.6969   10.6072   60.8254 H         1 VJ6         0.1831
     43 H3         39.2603    9.4268   59.6900 H         1 VJ6         0.1831
     44 H4         36.0856    4.7039   56.8232 H         1 VJ6         0.0638
     45 H5         40.3250    6.0197   60.5010 H         1 VJ6         0.1831
     46 H6         38.9889    6.4024   61.5347 H         1 VJ6         0.1831
     47 H7         35.9759    3.3632   59.3036 H         1 VJ6         0.0437
     48 H8         34.2745    3.1807   58.7570 H         1 VJ6         0.0437
     49 H9         34.5022    5.1751   60.1447 H         1 VJ6         0.0321
     50 H10        34.1358    5.6381   58.4483 H         1 VJ6         0.0321
     51 H11        36.5376    6.0029   58.0581 H         1 VJ6         0.0702
     52 H12        35.4618    7.4874   60.4794 H         1 VJ6         0.0826
     53 H13        33.4951    8.2645   60.1887 H         1 VJ6         0.0246
     54 H14        32.6624    9.1463   57.3458 H         1 VJ6         0.0398
     55 H15        31.0209    8.9820   59.9030 H         1 VJ6         0.0640
     56 H16        31.9627    6.7603   59.1284 H         1 VJ6         0.0646
     57 H17        30.0587    7.2499   56.8074 H         1 VJ6         0.0589
     58 H18        31.8374    7.4777   56.7016 H         1 VJ6         0.0589
     59 H19        28.3612   10.1945   57.8935 H         1 VJ6         0.0524
     60 H20        29.2049   10.4748   59.4543 H         1 VJ6         0.0524
     61 H21        28.4935    8.8652   59.0942 H         1 VJ6         0.0524
     62 H22        30.3222    5.6839   55.1211 H         1 VJ6         0.0720
     63 H23        30.9081    4.0616   55.6228 H         1 VJ6         0.0720
     64 H24        31.9766    7.5345   54.4400 H         1 VJ6         0.0359
     65 H25        35.8456    6.0483   53.1297 H         1 VJ6         0.0366
     66 H26        33.1178    3.4089   55.2462 H         1 VJ6         0.0351
     67 H27        34.9356    0.6523   56.1264 H         1 VJ6         0.0348
     68 H28        33.9040    1.6047   57.2469 H         1 VJ6         0.0348
     69 H29        35.5294    1.0509   57.7741 H         1 VJ6         0.0348
     70 H30        34.3062    8.7242   56.5614 H         1 VJ6         0.0376
     71 H31        35.3657    7.2752   56.6259 H         1 VJ6         0.0376
     72 H32        36.0436    8.9001   56.9823 H         1 VJ6         0.0376
     73 H33        33.6452   11.0716   58.5115 H         1 VJ6         0.0247
     74 H34        32.5361   10.7961   59.8973 H         1 VJ6         0.0247
     75 H35        31.8727   11.2665   58.2956 H         1 VJ6         0.0247
     76 H36        28.8156    6.3782   60.8985 H         1 VJ6         0.0524
     77 H37        29.7456    7.9148   60.8793 H         1 VJ6         0.0524
     78 H38        30.5949    6.3541   61.1433 H         1 VJ6         0.0524
     79 H39        35.1351    9.0314   51.5970 H         1 VJ6         0.0577
     80 H40        34.2644    7.4929   51.2788 H         1 VJ6         0.0577
     81 H41        35.8345    7.4725   52.1512 H         1 VJ6         0.0577
@<TRIPOS>BOND
     1    1    2 am 
     2    1    3 2  
     3    4    1 1  
     4    2   32 1  
     5    7    4 2  
     6    4   34 1  
     7   36    5 am 
     8   14    6 1  
     9    6   35 1  
    10   10    7 1  
    11   35    8 am 
    12   16    9 1  
    13    9   36 1  
    14   12   10 1  
    15   36   11 2  
    16   14   12 1  
    17   23   13 1  
    18   13   26 1  
    19   16   14 1  
    20   24   15 1  
    21   15   39 1  
    22   18   16 1  
    23   35   17 2  
    24   20   18 2  
    25   18   37 1  
    26   30   19 1  
    27   19   40 1  
    28   22   20 1  
    29   21   25 1  
    30   27   21 1  
    31   23   22 1  
    32   22   38 1  
    33   24   23 1  
    34   25   24 1  
    35   28   27 1  
    36   29   28 ar 
    37   28   33 ar 
    38   29   30 ar 
    39   30   31 ar 
    40   31   32 ar 
    41   32   33 ar 
    42    2   41 1  
    43    5   42 1  
    44    5   43 1  
    45    7   44 1  
    46    8   45 1  
    47    8   46 1  
    48   10   47 1  
    49   10   48 1  
    50   12   49 1  
    51   12   50 1  
    52   14   51 1  
    53   16   52 1  
    54   20   53 1  
    55   22   54 1  
    56   23   55 1  
    57   24   56 1  
    58   25   57 1  
    59   25   58 1  
    60   26   59 1  
    61   26   60 1  
    62   26   61 1  
    63   27   62 1  
    64   27   63 1  
    65   29   64 1  
    66   31   65 1  
    67   33   66 1  
    68   34   67 1  
    69   34   68 1  
    70   34   69 1  
    71   37   70 1  
    72   37   71 1  
    73   37   72 1  
    74   38   73 1  
    75   38   74 1  
    76   38   75 1  
    77   39   76 1  
    78   39   77 1  
    79   39   78 1  
    80   40   79 1  
    81   40   80 1  
    82   40   81 1  
@<TRIPOS>SUBSTRUCTURE
     1 VJ6         1

