### 
### Created by X-TOOL on Mon Sep 10 21:13:12 2018
### 

@<TRIPOS>MOLECULE
4jr0_ligand
   67    66     1     0     0
SMALL
GAST_HUCK


@<TRIPOS>ATOM
      1 C          -9.0890    6.2680   36.9690 C.2       1 ACE         0.1752
      2 O          -7.8690    6.2300   36.8890 O.2       1 ACE        -0.3972
      3 CH3        -9.7250    6.1810   38.3440 C.3       1 ACE         0.0258
      4 N          -9.8910    6.5750   35.9410 N.am      1 ASP        -0.2643
      5 CA         -9.3970    6.7490   34.5740 C.3       1 ASP         0.1422
      6 C          -8.9080    8.1640   34.3110 C.2       1 ASP         0.2056
      7 O          -9.5420    9.1410   34.7110 O.2       1 ASP        -0.3943
      8 CB        -10.4730    6.4070   33.5520 C.3       1 ASP         0.0406
      9 CG        -10.8750    4.9560   33.6020 C.2       1 ASP         0.0393
     10 OD1       -10.0340    4.1070   33.9830 O.co2     1 ASP        -0.5688
     11 OD2       -12.0310    4.6720   33.2460 O.co2     1 ASP        -0.5688
     12 N          -7.7700    8.2570   33.6470 N.am      1 GLU        -0.2635
     13 CA         -7.1630    9.5360   33.3040 C.3       1 GLU         0.1325
     14 C          -6.6270    9.4260   31.8830 C.2       1 GLU         0.2040
     15 O          -6.3870    8.3200   31.3920 O.2       1 GLU        -0.3944
     16 CB         -6.0300    9.8660   34.2870 C.3       1 GLU        -0.0008
     17 CG         -6.5320    9.9810   35.7450 C.3       1 GLU         0.0044
     18 CD         -5.4190   10.1630   36.7800 C.2       1 GLU         0.0350
     19 OE1        -4.2360   10.2780   36.3900 O.co2     1 GLU        -0.5690
     20 OE2        -5.7400   10.1870   37.9950 O.co2     1 GLU        -0.5690
     21 N          -6.4670   10.5620   31.2190 N.am      1 VAL        -0.2635
     22 CA         -5.8890   10.5440   29.8820 C.3       1 VAL         0.1331
     23 C          -4.4300   10.9180   29.9020 C.2       1 VAL         0.2023
     24 O          -3.9460   11.6050   30.8140 O.2       1 VAL        -0.3945
     25 CB         -6.6060   11.4800   28.8750 C.3       1 VAL        -0.0063
     26 CG1        -7.9770   10.9510   28.5360 C.3       1 VAL        -0.0584
     27 CG2        -6.6580   12.9340   29.3790 C.3       1 VAL        -0.0584
     28 C          -2.2660   11.8540   27.4980 C.3       1 AKZ         0.0768
     29 N          -3.7440   10.4550   28.8760 N.am      1 AKZ        -0.2779
     30 O          -1.1730   11.9040   26.8500 O.3       1 AKZ        -0.3897
     31 CA         -2.3620   10.8230   28.6250 C.3       1 AKZ         0.0790
     32 CB         -1.5030    9.5630   28.3510 C.3       1 AKZ         0.0257
     33 CG         -1.1560    8.7310   29.5780 C.2       1 AKZ         0.0371
     34 OD1        -0.9780    7.5140   29.5040 O.co2     1 AKZ        -0.5689
     35 OD2        -1.0800    9.3400   30.6600 O.co2     1 AKZ        -0.5689
     36 C1         -2.8400   13.2340   28.0410 C.3       1 0QE        -0.0367
     37 H1        -10.8195    6.2287   38.2454 H         1 ACE         0.0467
     38 H2         -9.3757    7.0203   38.9633 H         1 ACE         0.0467
     39 H3         -9.4409    5.2309   38.8200 H         1 ACE         0.0467
     40 H4        -10.8690    6.6903   36.1148 H         1 ASP         0.1884
     41 H5         -8.5508    6.0605   34.4330 H         1 ASP         0.0819
     42 H6        -10.0887    6.6322   32.5462 H         1 ASP         0.0478
     43 H7        -11.3599    7.0259   33.7528 H         1 ASP         0.0478
     44 H8         -7.3066    7.4157   33.3686 H         1 GLU         0.1883
     45 H9         -7.9222   10.3306   33.3510 H         1 GLU         0.0801
     46 H10        -5.5746   10.8233   33.9933 H         1 GLU         0.0330
     47 H11        -5.2736    9.0690   34.2353 H         1 GLU         0.0330
     48 H12        -7.0862    9.0635   35.9923 H         1 GLU         0.0433
     49 H13        -7.2079   10.8464   35.8098 H         1 GLU         0.0433
     50 H14        -6.7423   11.4289   31.6347 H         1 VAL         0.1883
     51 H15        -5.9763    9.5141   29.5056 H         1 VAL         0.0802
     52 H16        -6.0150   11.4792   27.9473 H         1 VAL         0.0343
     53 H17        -8.4656   11.6299   27.8216 H         1 VAL         0.0234
     54 H18        -8.5819   10.8859   29.4524 H         1 VAL         0.0234
     55 H19        -7.8835    9.9514   28.0866 H         1 VAL         0.0234
     56 H20        -5.6396   13.2774   29.6134 H         1 VAL         0.0234
     57 H21        -7.2801   12.9861   30.2847 H         1 VAL         0.0234
     58 H22        -7.0913   13.5772   28.5990 H         1 VAL         0.0234
     59 H23        -2.9931   11.5192   26.7436 H         1 AKZ         0.0614
     60 H24        -4.1942    9.8240   28.2442 H         1 AKZ         0.1857
     61 H25        -1.2329   12.5765   26.1816 H         1 AKZ         0.2099
     62 H26        -1.9704   11.2966   29.5373 H         1 AKZ         0.0600
     63 H27        -0.5617    9.8887   27.8843 H         1 AKZ         0.0454
     64 H28        -2.0565    8.9204   27.6505 H         1 AKZ         0.0454
     65 H29        -3.7819   13.0528   28.5795 H         1 0QE         0.0255
     66 H30        -3.0259   13.9121   27.1951 H         1 0QE         0.0255
     67 H31        -2.1093   13.6917   28.7241 H         1 0QE         0.0255
@<TRIPOS>BOND
     1    1    2 2  
     2    1    3 1  
     3    4    1 am 
     4    5    4 1  
     5    6    5 1  
     6    5    8 1  
     7    6    7 2  
     8   12    6 am 
     9    8    9 1  
    10    9   10 ar 
    11    9   11 ar 
    12   13   12 1  
    13   14   13 1  
    14   13   16 1  
    15   14   15 2  
    16   21   14 am 
    17   16   17 1  
    18   17   18 1  
    19   18   19 ar 
    20   18   20 ar 
    21   22   21 1  
    22   23   22 1  
    23   22   25 1  
    24   23   24 2  
    25   29   23 am 
    26   25   26 1  
    27   25   27 1  
    28   28   30 1  
    29   31   28 1  
    30   28   36 1  
    31   29   31 1  
    32   31   32 1  
    33   32   33 1  
    34   33   34 ar 
    35   33   35 ar 
    36    3   37 1  
    37    3   38 1  
    38    3   39 1  
    39    4   40 1  
    40    5   41 1  
    41    8   42 1  
    42    8   43 1  
    43   12   44 1  
    44   13   45 1  
    45   16   46 1  
    46   16   47 1  
    47   17   48 1  
    48   17   49 1  
    49   21   50 1  
    50   22   51 1  
    51   25   52 1  
    52   26   53 1  
    53   26   54 1  
    54   26   55 1  
    55   27   56 1  
    56   27   57 1  
    57   27   58 1  
    58   28   59 1  
    59   29   60 1  
    60   30   61 1  
    61   31   62 1  
    62   32   63 1  
    63   32   64 1  
    64   36   65 1  
    65   36   66 1  
    66   36   67 1  
@<TRIPOS>SUBSTRUCTURE
     1 ACE         1

