### 
### Created by X-TOOL on Mon Sep 10 21:13:15 2018
### 

@<TRIPOS>MOLECULE
4jr3_ligand
   59    63     1     0     0
SMALL
GAST_HUCK


@<TRIPOS>ATOM
      1 C24        50.0260   23.0730    6.6860 C.3       1 KJR         0.0316
      2 C23        49.5430   22.3480    5.4260 C.2       1 KJR         0.2003
      3 O25        48.5880   21.5740    5.4930 O.2       1 KJR        -0.3853
      4 N22        50.2520   22.6420    4.3100 N.am      1 KJR        -0.2353
      5 C20        49.9530   22.1100    3.1040 C.ar      1 KJR         0.0616
      6 C21        51.0130   21.8170    2.2400 C.ar      1 KJR        -0.0415
      7 C19        48.6450   21.8850    2.6520 C.ar      1 KJR        -0.0452
      8 C18        48.4290   21.3560    1.3780 C.ar      1 KJR        -0.0790
      9 C17        49.4990   21.0660    0.5280 C.ar      1 KJR        -0.0759
     10 C16        50.8080   21.2990    0.9520 C.ar      1 KJR        -0.0449
     11 C15        51.8760   21.0320    0.1690 C.2       1 KJR         0.0185
     12 C1         52.7670   21.9520   -0.2920 C.ar      1 KJR         0.0755
     13 C14        52.2600   19.8170   -0.2660 C.2       1 KJR         0.1435
     14 C26        51.7170   18.5950   -0.0900 C.ar      1 KJR         0.0193
     15 C27        50.9340   18.2360    1.0180 C.ar      1 KJR        -0.0510
     16 C28        50.4150   16.9450    1.1340 C.ar      1 KJR        -0.0615
     17 C29        50.6750   15.9900    0.1570 C.ar      1 KJR        -0.0621
     18 C30        51.4570   16.3290   -0.9420 C.ar      1 KJR        -0.0615
     19 C31        51.9750   17.6190   -1.0630 C.ar      1 KJR        -0.0510
     20 O13        53.3460   19.9760   -0.9810 O.3       1 KJR        -0.2284
     21 C2         53.6730   21.2640   -1.0110 C.ar      1 KJR         0.2014
     22 N3         54.7080   21.8690   -1.6210 N.ar      1 KJR        -0.2620
     23 C4         54.8700   23.2490   -1.5180 C.ar      1 KJR         0.0554
     24 N5         53.9380   23.9550   -0.7790 N.ar      1 KJR        -0.2685
     25 C6         52.9280   23.3000   -0.1790 C.ar      1 KJR         0.1280
     26 N          52.0210   24.0090    0.5000 N.pl3     1 KJR        -0.2844
     27 CA         52.2610   25.3610    1.0540 C.3       1 KJR         0.0981
     28 C          51.1360   25.6170    2.0440 C.3       1 KJR         0.0773
     29 O          51.7850   26.1120    3.2120 O.3       1 KJR        -0.3906
     30 C7         52.2810   26.3510    0.0410 C.ar      1 KJR        -0.0152
     31 C8         51.7830   26.1210   -1.2540 C.ar      1 KJR        -0.0580
     32 C9         51.8330   27.1180   -2.2290 C.ar      1 KJR        -0.0685
     33 C10        52.3730   28.3620   -1.9200 C.ar      1 KJR        -0.0687
     34 C11        52.8680   28.6000   -0.6390 C.ar      1 KJR        -0.0685
     35 C12        52.8260   27.6010    0.3340 C.ar      1 KJR        -0.0580
     36 H1         50.8815   23.7167    6.4334 H         1 KJR         0.0472
     37 H2         50.3338   22.3331    7.4395 H         1 KJR         0.0472
     38 H3         49.2097   23.6899    7.0898 H         1 KJR         0.0472
     39 H4         51.0233   23.2745    4.3808 H         1 KJR         0.2253
     40 H5         52.0277   21.9962    2.5768 H         1 KJR         0.0458
     41 H6         47.8020   22.1216    3.2911 H         1 KJR         0.0473
     42 H7         47.4153   21.1674    1.0433 H         1 KJR         0.0568
     43 H8         49.3127   20.6604   -0.4599 H         1 KJR         0.0459
     44 H9         50.7302   18.9680    1.7911 H         1 KJR         0.0623
     45 H10        49.8051   16.6852    1.9917 H         1 KJR         0.0616
     46 H11        50.2710   14.9885    0.2514 H         1 KJR         0.0614
     47 H12        51.6646   15.5892   -1.7066 H         1 KJR         0.0616
     48 H13        52.5861   17.8704   -1.9223 H         1 KJR         0.0623
     49 H14        55.6993   23.7529   -2.0012 H         1 KJR         0.1000
     50 H15        51.0932   23.5867    0.6477 H         1 KJR         0.1895
     51 H16        53.2277   25.3772    1.5786 H         1 KJR         0.0750
     52 H17        50.5959   24.6849    2.2664 H         1 KJR         0.0604
     53 H18        50.4320   26.3628    1.6463 H         1 KJR         0.0604
     54 H19        51.1352   26.2955    3.8803 H         1 KJR         0.2097
     55 H20        51.3543   25.1557   -1.4981 H         1 KJR         0.0557
     56 H21        51.4519   26.9234   -3.2250 H         1 KJR         0.0599
     57 H22        52.4087   29.1424   -2.6716 H         1 KJR         0.0559
     58 H23        53.2890   29.5691   -0.3968 H         1 KJR         0.0599
     59 H24        53.2197   27.7977    1.3246 H         1 KJR         0.0557
@<TRIPOS>BOND
     1    1    2 1  
     2    2    3 2  
     3    2    4 am 
     4    4    5 1  
     5    5    6 ar 
     6    5    7 ar 
     7    6   10 ar 
     8    7    8 ar 
     9    8    9 ar 
    10    9   10 ar 
    11   10   11 1  
    12   11   12 1  
    13   11   13 2  
    14   12   21 ar 
    15   12   25 ar 
    16   13   14 1  
    17   13   20 1  
    18   14   15 ar 
    19   14   19 ar 
    20   15   16 ar 
    21   16   17 ar 
    22   17   18 ar 
    23   18   19 ar 
    24   20   21 1  
    25   21   22 ar 
    26   22   23 ar 
    27   23   24 ar 
    28   24   25 ar 
    29   25   26 1  
    30   26   27 1  
    31   27   28 1  
    32   27   30 1  
    33   28   29 1  
    34   30   31 ar 
    35   30   35 ar 
    36   31   32 ar 
    37   32   33 ar 
    38   33   34 ar 
    39   34   35 ar 
    40    1   36 1  
    41    1   37 1  
    42    1   38 1  
    43    4   39 1  
    44    6   40 1  
    45    7   41 1  
    46    8   42 1  
    47    9   43 1  
    48   15   44 1  
    49   16   45 1  
    50   17   46 1  
    51   18   47 1  
    52   19   48 1  
    53   23   49 1  
    54   26   50 1  
    55   27   51 1  
    56   28   52 1  
    57   28   53 1  
    58   29   54 1  
    59   31   55 1  
    60   32   56 1  
    61   33   57 1  
    62   34   58 1  
    63   35   59 1  
@<TRIPOS>SUBSTRUCTURE
     1 KJR         1

