### 
### Created by X-TOOL on Mon Sep 10 21:13:12 2018
### 

@<TRIPOS>MOLECULE
4jr5_ligand
   48    50     1     0     0
SMALL
GAST_HUCK


@<TRIPOS>ATOM
      1 C4         13.8910   11.2630    6.1310 C.ar      1 1LS         0.0146
      2 C6         14.9700   10.2990    7.9430 C.ar      1 1LS         0.0042
      3 C7         14.8020   11.2430    3.7750 C.3       1 1LS         0.0766
      4 C13        14.6590    8.3860   -0.9950 C.ar      1 1LS        -0.0372
      5 C15        14.0420    6.1540   -1.6610 C.ar      1 1LS         0.0937
      6 C17        14.9830    6.5490    0.5000 C.ar      1 1LS        -0.0372
      7 C22        14.8360    5.5510   -5.0670 C.3       1 1LS         0.0295
      8 C24        16.8770    4.2330   -5.5700 C.3       1 1LS        -0.0501
      9 C26        15.7220    3.7890   -3.3820 C.3       1 1LS         0.0295
     10 C1         16.0140    9.8760    7.1360 C.ar      1 1LS        -0.0404
     11 C2         15.9770   10.1690    5.7720 C.ar      1 1LS        -0.0383
     12 C3         14.8940   10.8840    5.2570 C.ar      1 1LS         0.0089
     13 N5         13.9510   10.9700    7.4210 N.ar      1 1LS        -0.3043
     14 N8         15.5170   10.2440    2.9760 N.am      1 1LS        -0.2659
     15 C9         14.9130    9.6280    1.9340 C.2       1 1LS         0.1648
     16 S10        13.3160   10.0560    1.4720 S.2       1 1LS        -0.2963
     17 N11        15.6080    8.6870    1.2690 N.am      1 1LS        -0.2317
     18 C12        15.0810    7.9110    0.2330 C.ar      1 1LS         0.0727
     19 C14        14.1420    7.5030   -1.9370 C.ar      1 1LS        -0.0479
     20 C16        14.4700    5.6770   -0.4380 C.ar      1 1LS        -0.0479
     21 S18        13.3910    5.0250   -2.8600 S.o2      1 1LS         0.0641
     22 O19        13.1260    3.8060   -2.1760 O.2       1 1LS        -0.1519
     23 O20        12.3920    5.7340   -3.5640 O.2       1 1LS        -0.1519
     24 N21        14.7030    4.7650   -3.8290 N.am      1 1LS        -0.2356
     25 C23        15.5780    4.7780   -6.1550 C.3       1 1LS        -0.0358
     26 C25        16.5170    3.1600   -4.5430 C.3       1 1LS        -0.0358
     27 H1         13.0369   11.8121    5.7515 H         1 1LS         0.0766
     28 H2         14.9857   10.0810    9.0047 H         1 1LS         0.0767
     29 H3         15.2530   12.2327    3.6105 H         1 1LS         0.0722
     30 H4         13.7454   11.2662    3.4699 H         1 1LS         0.0722
     31 H5         14.7309    9.4433   -1.2229 H         1 1LS         0.0512
     32 H6         15.3145    6.1675    1.4590 H         1 1LS         0.0512
     33 H7         15.3918    6.4738   -4.8445 H         1 1LS         0.0478
     34 H8         13.8317    5.8075   -5.4351 H         1 1LS         0.0478
     35 H9         17.4363    5.0446   -5.0818 H         1 1LS         0.0266
     36 H10        17.4914    3.7936   -6.3696 H         1 1LS         0.0266
     37 H11        15.2153    2.9839   -2.8298 H         1 1LS         0.0478
     38 H12        16.4284    4.3035   -2.7140 H         1 1LS         0.0478
     39 H13        16.8472    9.3256    7.5579 H         1 1LS         0.0693
     40 H14        16.7800    9.8451    5.1198 H         1 1LS         0.0679
     41 H15        16.4633   10.0148    3.2039 H         1 1LS         0.2008
     42 H16        16.5604    8.5335    1.5324 H         1 1LS         0.2356
     43 H17        13.8136    7.8785   -2.8994 H         1 1LS         0.0598
     44 H18        14.4030    4.6183   -0.2150 H         1 1LS         0.0598
     45 H19        15.8043    5.4491   -6.9967 H         1 1LS         0.0281
     46 H20        14.9531    3.9445   -6.5083 H         1 1LS         0.0281
     47 H21        17.4394    2.7074   -4.1501 H         1 1LS         0.0281
     48 H22        15.9047    2.3841   -5.0258 H         1 1LS         0.0281
@<TRIPOS>BOND
     1   12    1 ar 
     2    1   13 ar 
     3   10    2 ar 
     4   13    2 ar 
     5    3   12 1  
     6   14    3 1  
     7    4   18 ar 
     8   19    4 ar 
     9    5   19 ar 
    10    5   20 ar 
    11   21    5 1  
    12    6   18 ar 
    13   20    6 ar 
    14   24    7 1  
    15    7   25 1  
    16   25    8 1  
    17   26    8 1  
    18   24    9 1  
    19    9   26 1  
    20   11   10 ar 
    21   12   11 ar 
    22   15   14 am 
    23   15   16 2  
    24   17   15 am 
    25   18   17 1  
    26   21   22 2  
    27   21   23 2  
    28   21   24 am 
    29    1   27 1  
    30    2   28 1  
    31    3   29 1  
    32    3   30 1  
    33    4   31 1  
    34    6   32 1  
    35    7   33 1  
    36    7   34 1  
    37    8   35 1  
    38    8   36 1  
    39    9   37 1  
    40    9   38 1  
    41   10   39 1  
    42   11   40 1  
    43   14   41 1  
    44   17   42 1  
    45   19   43 1  
    46   20   44 1  
    47   25   45 1  
    48   25   46 1  
    49   26   47 1  
    50   26   48 1  
@<TRIPOS>SUBSTRUCTURE
     1 1LS         1

