### 
### Created by X-TOOL on Mon Sep 10 21:13:16 2018
### 

@<TRIPOS>MOLECULE
4jrg_ligand
   69    71     1     0     0
SMALL
GAST_HUCK


@<TRIPOS>ATOM
      1 C1         11.7810   10.7380   -1.0430 C.3       1 I09         0.0735
      2 C10        12.4140   11.9570   -0.4310 C.2       1 I09         0.2261
      3 N11        11.5560   12.8170    0.2200 N.am      1 I09        -0.2821
      4 C12        12.0330   14.0230    0.8900 C.3       1 I09         0.0335
      5 C13        12.2410   15.1490   -0.1230 C.3       1 I09        -0.0045
      6 C14        12.6460   16.4230    0.6160 C.3       1 I09         0.0801
      7 O14        11.5000   17.0540    1.1820 O.3       1 I09        -0.3895
      8 C15        13.4030   17.3850   -0.3100 C.3       1 I09         0.0702
      9 O15        12.5640   17.8250   -1.3690 O.3       1 I09        -0.3925
     10 O10        13.6340   12.1920   -0.4790 O.2       1 I09        -0.3907
     11 N1         10.3500   10.6320   -0.5890 N.4       1 I09         0.2453
     12 C2         12.4670    9.4660   -0.5490 C.3       1 I09         0.0638
     13 C21        13.5950    9.0070   -1.4350 C.ar      1 I09        -0.0374
     14 C26        13.6010    9.2920   -2.8020 C.ar      1 I09        -0.0603
     15 C25        14.6410    8.8170   -3.6130 C.ar      1 I09        -0.0681
     16 C22        14.6300    8.2690   -0.8770 C.ar      1 I09        -0.0466
     17 C23        15.6690    7.8010   -1.6850 C.ar      1 I09         0.0338
     18 CL2        16.9850    6.8940   -0.9550 Cl        1 I09        -0.0725
     19 C24        15.6780    8.0630   -3.0630 C.ar      1 I09        -0.0548
     20 C3         11.3300    8.4560   -0.4380 C.3       1 I09         0.1456
     21 C37        10.9650    7.9770   -1.7800 C.1       1 I09         0.0646
     22 N37        10.6890    7.6040   -2.8200 N.1       1 I09        -0.3137
     23 C31        11.6620    7.2930    0.4690 C.ar      1 I09        -0.0149
     24 C32        12.2180    7.5160    1.7450 C.ar      1 I09        -0.0370
     25 C33        12.5380    6.4290    2.5610 C.ar      1 I09        -0.0181
     26 C36        11.4260    5.9880    0.0240 C.ar      1 I09        -0.0370
     27 C35        11.7420    4.9010    0.8410 C.ar      1 I09        -0.0181
     28 C34        12.2990    5.1220    2.1040 C.ar      1 I09         0.0714
     29 CL3        12.7180    3.7450    3.1190 Cl        1 I09        -0.0420
     30 C4         10.1870    9.3030    0.0950 C.3       1 I09        -0.0102
     31 C41         8.8160    8.6700   -0.2080 C.3       1 I09        -0.0102
     32 C42         7.7200    9.1860    0.7580 C.3       1 I09        -0.0334
     33 C45         7.8030   10.7240    0.8970 C.3       1 I09        -0.0599
     34 C44         7.9010    8.5440    2.1420 C.3       1 I09        -0.0599
     35 C43         6.3360    8.7960    0.2100 C.3       1 I09        -0.0599
     36 H1         11.8367   10.8030   -2.1397 H         1 I09         0.1118
     37 H2         10.5780   12.6087    0.2338 H         1 I09         0.1852
     38 H3         12.9877   13.8056    1.3912 H         1 I09         0.0521
     39 H4         11.2906   14.3403    1.6371 H         1 I09         0.0521
     40 H5         11.3054   15.3253   -0.6740 H         1 I09         0.0310
     41 H6         13.0350   14.8658   -0.8297 H         1 I09         0.0310
     42 H7         13.3216   16.1411    1.4371 H         1 I09         0.0617
     43 H8         10.8889   17.2779    0.4899 H         1 I09         0.2099
     44 H9         14.2767   16.8673   -0.7325 H         1 I09         0.0583
     45 H10        13.7387   18.2566    0.2710 H         1 I09         0.0583
     46 H11        11.8095   18.2751   -1.0076 H         1 I09         0.2095
     47 H12         9.7323   10.6875   -1.3836 H         1 I09         0.2032
     48 H13        10.1375   11.3781    0.0546 H         1 I09         0.2032
     49 H14        12.8886    9.6473    0.4507 H         1 I09         0.0473
     50 H15        12.8011    9.8808   -3.2362 H         1 I09         0.0558
     51 H16        14.6395    9.0370   -4.6745 H         1 I09         0.0599
     52 H17        14.6319    8.0559    0.1858 H         1 I09         0.0562
     53 H18        16.4776    7.6858   -3.6903 H         1 I09         0.0565
     54 H19        12.3965    8.5275    2.0915 H         1 I09         0.0848
     55 H20        12.9687    6.5927    3.5422 H         1 I09         0.0703
     56 H21        10.9969    5.8204   -0.9572 H         1 I09         0.0848
     57 H22        11.5562    3.8898    0.4975 H         1 I09         0.0703
     58 H23        10.2845    9.4250    1.1839 H         1 I09         0.0773
     59 H24         8.8969    7.5779   -0.1044 H         1 I09         0.0317
     60 H25         8.5281    8.9201   -1.2398 H         1 I09         0.0317
     61 H26         7.0190   11.0728    1.5853 H         1 I09         0.0235
     62 H27         7.6588   11.1896   -0.0891 H         1 I09         0.0235
     63 H28         8.7901   11.0036    1.2938 H         1 I09         0.0235
     64 H29         7.8428    7.4495    2.0489 H         1 I09         0.0235
     65 H30         7.1073    8.8973    2.8167 H         1 I09         0.0235
     66 H31         8.8825    8.8255    2.5513 H         1 I09         0.0235
     67 H32         6.1932    9.2497   -0.7819 H         1 I09         0.0235
     68 H33         5.5551    9.1583    0.8947 H         1 I09         0.0235
     69 H34         6.2703    7.7012    0.1253 H         1 I09         0.0235
@<TRIPOS>BOND
     1    1    2 1  
     2    1   11 1  
     3    1   12 1  
     4    2    3 am 
     5    2   10 2  
     6    3    4 1  
     7    4    5 1  
     8    5    6 1  
     9    6    7 1  
    10    6    8 1  
    11    8    9 1  
    12   11   30 1  
    13   12   13 1  
    14   12   20 1  
    15   13   14 ar 
    16   13   16 ar 
    17   14   15 ar 
    18   15   19 ar 
    19   16   17 ar 
    20   17   18 1  
    21   17   19 ar 
    22   20   21 1  
    23   20   23 1  
    24   20   30 1  
    25   21   22 3  
    26   23   24 ar 
    27   23   26 ar 
    28   24   25 ar 
    29   25   28 ar 
    30   26   27 ar 
    31   27   28 ar 
    32   28   29 1  
    33   30   31 1  
    34   31   32 1  
    35   32   33 1  
    36   32   34 1  
    37   32   35 1  
    38    1   36 1  
    39    3   37 1  
    40    4   38 1  
    41    4   39 1  
    42    5   40 1  
    43    5   41 1  
    44    6   42 1  
    45    7   43 1  
    46    8   44 1  
    47    8   45 1  
    48    9   46 1  
    49   11   47 1  
    50   11   48 1  
    51   12   49 1  
    52   14   50 1  
    53   15   51 1  
    54   16   52 1  
    55   19   53 1  
    56   24   54 1  
    57   25   55 1  
    58   26   56 1  
    59   27   57 1  
    60   30   58 1  
    61   31   59 1  
    62   31   60 1  
    63   33   61 1  
    64   33   62 1  
    65   33   63 1  
    66   34   64 1  
    67   34   65 1  
    68   34   66 1  
    69   35   67 1  
    70   35   68 1  
    71   35   69 1  
@<TRIPOS>SUBSTRUCTURE
     1 I09         1

