### 
### Created by X-TOOL on Mon Sep 10 21:13:14 2018
### 

@<TRIPOS>MOLECULE
4jrv_ligand
   74    78     1     0     0
SMALL
GAST_HUCK


@<TRIPOS>ATOM
      1 C35       -26.7360  -48.0110   -7.9210 C.3       1 KJV        -0.0433
      2 N34       -26.4660  -49.4550   -8.0070 N.4       1 KJV         0.2310
      3 C36       -27.2270  -50.0130   -9.1360 C.3       1 KJV        -0.0433
      4 C33       -25.0120  -49.6800   -8.1880 C.3       1 KJV        -0.0303
      5 C32       -24.3630  -50.1710   -6.8890 C.3       1 KJV         0.0048
      6 C31       -22.8430  -50.0140   -6.9330 C.3       1 KJV         0.0479
      7 C29       -22.3710  -49.5790   -5.5370 C.2       1 KJV         0.2036
      8 O30       -21.9280  -48.4440   -5.3580 O.2       1 KJV        -0.3850
      9 N28       -22.5020  -50.5280   -4.5800 N.am      1 KJV        -0.2351
     10 C21       -22.1700  -50.2890   -3.2950 C.ar      1 KJV         0.0616
     11 C22       -21.9650  -51.3770   -2.4500 C.ar      1 KJV        -0.0415
     12 C20       -22.0720  -48.9950   -2.7650 C.ar      1 KJV        -0.0452
     13 C19       -21.7520  -48.8160   -1.4230 C.ar      1 KJV        -0.0790
     14 C18       -21.5450  -49.9120   -0.5880 C.ar      1 KJV        -0.0759
     15 C10       -21.6490  -51.2070   -1.0970 C.ar      1 KJV        -0.0449
     16 C7        -21.4590  -52.2770   -0.3020 C.2       1 KJV         0.0185
     17 C1        -22.4300  -53.1510    0.0770 C.ar      1 KJV         0.0755
     18 C8        -20.2980  -52.6620    0.2630 C.2       1 KJV         0.1435
     19 C11       -19.0500  -52.1600    0.2010 C.ar      1 KJV         0.0193
     20 C23       -18.6110  -51.2790   -0.7990 C.ar      1 KJV        -0.0510
     21 C24       -17.2920  -50.8190   -0.8130 C.ar      1 KJV        -0.0615
     22 C25       -16.3880  -51.2480    0.1550 C.ar      1 KJV        -0.0621
     23 C26       -16.8060  -52.1360    1.1410 C.ar      1 KJV        -0.0615
     24 C27       -18.1230  -52.5910    1.1580 C.ar      1 KJV        -0.0510
     25 O9        -20.5380  -53.7420    0.9600 O.3       1 KJV        -0.2284
     26 C2        -21.8100  -54.0550    0.8650 C.ar      1 KJV         0.2014
     27 N3        -22.4590  -55.0910    1.4260 N.ar      1 KJV        -0.2620
     28 C4        -23.8190  -55.2580    1.2080 C.ar      1 KJV         0.0554
     29 N5        -24.4560  -54.3310    0.3990 N.ar      1 KJV        -0.2685
     30 C6        -23.7660  -53.3120   -0.1530 C.ar      1 KJV         0.1280
     31 N         -24.4510  -52.4300   -0.9080 N.pl3     1 KJV        -0.2844
     32 CA        -25.8790  -52.6430   -1.2730 C.3       1 KJV         0.0981
     33 C         -26.3680  -51.5350   -2.1850 C.3       1 KJV         0.0773
     34 O         -25.3670  -51.4590   -3.2060 O.3       1 KJV        -0.3906
     35 C12       -26.7360  -52.6930   -0.1480 C.ar      1 KJV        -0.0152
     36 C13       -26.2830  -52.4990    1.1640 C.ar      1 KJV        -0.0580
     37 C14       -27.1710  -52.5690    2.2340 C.ar      1 KJV        -0.0685
     38 C15       -28.5210  -52.8220    2.0120 C.ar      1 KJV        -0.0687
     39 C16       -28.9790  -53.0110    0.7120 C.ar      1 KJV        -0.0685
     40 C17       -28.0900  -52.9470   -0.3600 C.ar      1 KJV        -0.0580
     41 H1        -27.8154  -47.8472   -7.7868 H         1 KJV         0.0777
     42 H2        -26.4031  -47.5199   -8.8472 H         1 KJV         0.0777
     43 H3        -26.1915  -47.5865   -7.0647 H         1 KJV         0.0777
     44 H4        -26.7634  -49.9026   -7.1542 H         1 KJV         0.2028
     45 H5        -27.0331  -51.0932   -9.2106 H         1 KJV         0.0777
     46 H6        -26.9151  -49.5193  -10.0682 H         1 KJV         0.0777
     47 H7        -28.3016  -49.8438   -8.9732 H         1 KJV         0.0777
     48 H8        -24.5374  -48.7353   -8.4917 H         1 KJV         0.0816
     49 H9        -24.8605  -50.4355   -8.9730 H         1 KJV         0.0816
     50 H10       -24.6093  -51.2333   -6.7447 H         1 KJV         0.0341
     51 H11       -24.7594  -49.5850   -6.0467 H         1 KJV         0.0341
     52 H12       -22.5677  -49.2501   -7.6751 H         1 KJV         0.0509
     53 H13       -22.3762  -50.9727   -7.2031 H         1 KJV         0.0509
     54 H14       -22.8540  -51.4293   -4.8326 H         1 KJV         0.2254
     55 H15       -22.0524  -52.3806   -2.8502 H         1 KJV         0.0458
     56 H16       -22.2455  -48.1342   -3.4006 H         1 KJV         0.0473
     57 H17       -21.6627  -47.8127   -1.0225 H         1 KJV         0.0568
     58 H18       -21.3031  -49.7586    0.4575 H         1 KJV         0.0459
     59 H19       -19.3018  -50.9523   -1.5678 H         1 KJV         0.0623
     60 H20       -16.9709  -50.1248   -1.5811 H         1 KJV         0.0616
     61 H21       -15.3642  -50.8921    0.1405 H         1 KJV         0.0614
     62 H22       -16.1065  -52.4743    1.8968 H         1 KJV         0.0616
     63 H23       -18.4352  -53.2904    1.9250 H         1 KJV         0.0623
     64 H24       -24.3628  -56.0829    1.6540 H         1 KJV         0.1000
     65 H25       -23.9717  -51.5821   -1.2430 H         1 KJV         0.1895
     66 H26       -25.9516  -53.6017   -1.8073 H         1 KJV         0.0750
     67 H27       -26.4422  -50.5831   -1.6387 H         1 KJV         0.0604
     68 H28       -27.3479  -51.7876   -2.6163 H         1 KJV         0.0604
     69 H29       -25.3105  -52.2941   -3.6553 H         1 KJV         0.2097
     70 H30       -25.2345  -52.2931    1.3468 H         1 KJV         0.0557
     71 H31       -26.8086  -52.4256    3.2455 H         1 KJV         0.0599
     72 H32       -29.2113  -52.8715    2.8463 H         1 KJV         0.0559
     73 H33       -30.0296  -53.2085    0.5322 H         1 KJV         0.0599
     74 H34       -28.4558  -53.0964   -1.3694 H         1 KJV         0.0557
@<TRIPOS>BOND
     1    1    2 1  
     2    2    3 1  
     3    2    4 1  
     4    4    5 1  
     5    5    6 1  
     6    6    7 1  
     7    7    8 2  
     8    7    9 am 
     9    9   10 1  
    10   10   11 ar 
    11   10   12 ar 
    12   11   15 ar 
    13   12   13 ar 
    14   13   14 ar 
    15   14   15 ar 
    16   15   16 1  
    17   16   17 1  
    18   16   18 2  
    19   17   26 ar 
    20   17   30 ar 
    21   18   19 1  
    22   18   25 1  
    23   19   20 ar 
    24   19   24 ar 
    25   20   21 ar 
    26   21   22 ar 
    27   22   23 ar 
    28   23   24 ar 
    29   25   26 1  
    30   26   27 ar 
    31   27   28 ar 
    32   28   29 ar 
    33   29   30 ar 
    34   30   31 1  
    35   31   32 1  
    36   32   33 1  
    37   32   35 1  
    38   33   34 1  
    39   35   36 ar 
    40   35   40 ar 
    41   36   37 ar 
    42   37   38 ar 
    43   38   39 ar 
    44   39   40 ar 
    45    1   41 1  
    46    1   42 1  
    47    1   43 1  
    48    2   44 1  
    49    3   45 1  
    50    3   46 1  
    51    3   47 1  
    52    4   48 1  
    53    4   49 1  
    54    5   50 1  
    55    5   51 1  
    56    6   52 1  
    57    6   53 1  
    58    9   54 1  
    59   11   55 1  
    60   12   56 1  
    61   13   57 1  
    62   14   58 1  
    63   20   59 1  
    64   21   60 1  
    65   22   61 1  
    66   23   62 1  
    67   24   63 1  
    68   28   64 1  
    69   31   65 1  
    70   32   66 1  
    71   33   67 1  
    72   33   68 1  
    73   34   69 1  
    74   36   70 1  
    75   37   71 1  
    76   38   72 1  
    77   39   73 1  
    78   40   74 1  
@<TRIPOS>SUBSTRUCTURE
     1 KJV         1

