### 
### Created by X-TOOL on Mon Sep 10 21:13:13 2018
### 

@<TRIPOS>MOLECULE
4jsa_ligand
   17    17     1     0     0
SMALL
GAST_HUCK


@<TRIPOS>ATOM
      1 C01        16.5460    4.5980   14.2460 C.ar      1 FB2        -0.0616
      2 C02        17.3480    3.5240   14.6260 C.ar      1 FB2        -0.0599
      3 C03        16.8700    2.4000   15.3100 C.ar      1 FB2        -0.0351
      4 C04        15.4820    2.4030   15.5800 C.ar      1 FB2         0.1079
      5 C05        14.6810    3.4610   15.1490 C.ar      1 FB2        -0.0351
      6 C06        15.2040    4.5910   14.4710 C.ar      1 FB2        -0.0599
      7 S07        14.9430    0.9370   16.4320 S.o2      1 FB2         0.0659
      8 O09        13.4490    1.0210   16.6330 O.2       1 FB2        -0.1505
      9 O08        15.5400    0.8390   17.8140 O.2       1 FB2        -0.1505
     10 NP0        15.4680   -0.4640   15.5280 N.am      1 FB2        -0.2609
     11 H1         16.9996    5.4553   13.7620 H         1 FB2         0.0618
     12 H2         18.4026    3.5608   14.3778 H         1 FB2         0.0618
     13 H3         17.5181    1.5850   15.6114 H         1 FB2         0.0637
     14 H4         13.6149    3.4172   15.3404 H         1 FB2         0.0637
     15 H5         14.5677    5.4072   14.1485 H         1 FB2         0.0618
     16 H6         15.2527   -1.3825   15.8596 H         1 FB2         0.1635
     17 H7         15.9836   -0.3470   14.6792 H         1 FB2         0.1635
@<TRIPOS>BOND
     1    1    2 ar 
     2    1    6 ar 
     3    2    3 ar 
     4    3    4 ar 
     5    4    5 ar 
     6    4    7 1  
     7    5    6 ar 
     8    7    8 2  
     9    7    9 2  
    10    7   10 am 
    11    1   11 1  
    12    2   12 1  
    13    3   13 1  
    14    5   14 1  
    15    6   15 1  
    16   10   16 1  
    17   10   17 1  
@<TRIPOS>SUBSTRUCTURE
     1 FB2         1

