### 
### Created by X-TOOL on Mon Sep 10 21:13:16 2018
### 

@<TRIPOS>MOLECULE
4jsc_ligand
   69    71     1     0     0
SMALL
GAST_HUCK


@<TRIPOS>ATOM
      1 C1        -11.5110   20.8680    0.8390 C.3       1 1OY         0.0724
      2 C10       -12.2880   22.0650    0.4180 C.2       1 1OY         0.2260
      3 N11       -11.6200   22.9450   -0.3750 N.am      1 1OY        -0.2821
      4 C12       -12.1560   24.2630   -0.7000 C.3       1 1OY         0.0335
      5 C13       -11.0050   25.2690   -0.6510 C.3       1 1OY        -0.0045
      6 C14       -11.4250   26.5980   -1.2560 C.3       1 1OY         0.0801
      7 O14       -10.2700   27.3480   -1.6630 O.3       1 1OY        -0.3895
      8 C15       -12.2870   27.3920   -0.2640 C.3       1 1OY         0.0702
      9 O15       -11.5350   27.7190    0.9060 O.3       1 1OY        -0.3925
     10 O10       -13.4430   22.3030    0.7910 O.2       1 1OY        -0.3907
     11 N1        -10.1840   20.8320    0.1460 N.4       1 1OY         0.2448
     12 C2        -12.1930   19.5750    0.4470 C.3       1 1OY         0.0624
     13 C21       -13.2610   19.1570    1.4000 C.ar      1 1OY        -0.0041
     14 C26       -13.1450   19.3740    2.7710 C.ar      1 1OY        -0.0620
     15 C25       -14.1610   18.9140    3.6300 C.ar      1 1OY        -0.0720
     16 C22       -14.3870   18.5340    0.9260 C.ar      1 1OY         0.1470
     17 F2        -14.5680   18.4350   -0.3950 F         1 1OY        -0.1883
     18 C23       -15.3710   18.0350    1.7360 C.ar      1 1OY         0.0668
     19 CL2       -16.7150   17.1480    1.0210 Cl        1 1OY        -0.0741
     20 C24       -15.2750   18.2330    3.1140 C.ar      1 1OY        -0.0566
     21 C3        -11.0330   18.6000    0.3470 C.3       1 1OY         0.1438
     22 C37       -10.4990   18.2800    1.6760 C.1       1 1OY         0.0612
     23 N37       -10.0660   18.0310    2.7070 N.1       1 1OY        -0.3145
     24 C31       -11.3580   17.3210   -0.3700 C.ar      1 1OY         0.0190
     25 C32       -11.9690   17.3190   -1.6070 C.ar      1 1OY         0.1640
     26 F3        -12.1800   18.5050   -2.2300 F         1 1OY        -0.1554
     27 C33       -12.3660   16.1710   -2.2490 C.ar      1 1OY         0.0169
     28 C36       -11.0680   16.0950    0.2300 C.ar      1 1OY        -0.0387
     29 C35       -11.4460   14.9080   -0.3980 C.ar      1 1OY        -0.0224
     30 C34       -12.1180   14.9590   -1.6270 C.ar      1 1OY         0.0695
     31 CL3       -12.6830   13.4820   -2.3790 Cl        1 1OY        -0.0435
     32 C4         -9.9990   19.4320   -0.3790 C.3       1 1OY        -0.0124
     33 C41        -8.5930   18.9140   -0.1070 C.3       1 1OY        -0.0108
     34 C42        -7.6640   19.2440   -1.2790 C.3       1 1OY        -0.0334
     35 C45        -8.0400   20.6030   -1.8770 C.3       1 1OY        -0.0599
     36 C44        -7.8180   18.1560   -2.3480 C.3       1 1OY        -0.0599
     37 C43        -6.2090   19.2820   -0.7840 C.3       1 1OY        -0.0599
     38 H1        -11.3704   20.9016    1.9295 H         1 1OY         0.1117
     39 H2        -10.7310   22.6799   -0.7483 H         1 1OY         0.1852
     40 H3        -12.9273   24.5429    0.0326 H         1 1OY         0.0521
     41 H4        -12.5958   24.2485   -1.7081 H         1 1OY         0.0521
     42 H5        -10.1514   24.8685   -1.2175 H         1 1OY         0.0310
     43 H6        -10.7083   25.4271    0.3964 H         1 1OY         0.0310
     44 H7        -12.0330   26.3940   -2.1497 H         1 1OY         0.0617
     45 H8         -9.7176   27.5114   -0.9076 H         1 1OY         0.2099
     46 H9        -13.1582   26.7854    0.0241 H         1 1OY         0.0583
     47 H10       -12.6293   28.3202   -0.7448 H         1 1OY         0.0583
     48 H11       -10.7831   28.2453    0.6609 H         1 1OY         0.2095
     49 H12        -9.4477   21.0579    0.7962 H         1 1OY         0.2031
     50 H13       -10.1734   21.4916   -0.6161 H         1 1OY         0.2031
     51 H14       -12.6611   19.6896   -0.5418 H         1 1OY         0.0458
     52 H15       -12.2813   19.8917    3.1723 H         1 1OY         0.0547
     53 H16       -14.0827   19.0868    4.6973 H         1 1OY         0.0565
     54 H17       -16.0501   17.8660    3.7770 H         1 1OY         0.0555
     55 H18       -12.8587   16.2128   -3.2137 H         1 1OY         0.0687
     56 H19       -10.5502   16.0650    1.1819 H         1 1OY         0.0828
     57 H20       -11.2214   13.9523    0.0616 H         1 1OY         0.0672
     58 H21       -10.1846   19.4074   -1.4629 H         1 1OY         0.0766
     59 H22        -8.6293   17.8232    0.0302 H         1 1OY         0.0316
     60 H23        -8.2039   19.3858    0.8073 H         1 1OY         0.0316
     61 H24        -7.3684   20.8322   -2.7175 H         1 1OY         0.0235
     62 H25        -7.9424   21.3822   -1.1068 H         1 1OY         0.0235
     63 H26        -9.0791   20.5707   -2.2363 H         1 1OY         0.0235
     64 H27        -7.5481   17.1797   -1.9190 H         1 1OY         0.0235
     65 H28        -7.1550   18.3794   -3.1968 H         1 1OY         0.0235
     66 H29        -8.8614   18.1281   -2.6951 H         1 1OY         0.0235
     67 H30        -6.1028   20.0637   -0.0174 H         1 1OY         0.0235
     68 H31        -5.5400   19.5035   -1.6286 H         1 1OY         0.0235
     69 H32        -5.9431   18.3061   -0.3518 H         1 1OY         0.0235
@<TRIPOS>BOND
     1    1    2 1  
     2    1   11 1  
     3    1   12 1  
     4    2    3 am 
     5    2   10 2  
     6    3    4 1  
     7    4    5 1  
     8    5    6 1  
     9    6    7 1  
    10    6    8 1  
    11    8    9 1  
    12   11   32 1  
    13   12   13 1  
    14   12   21 1  
    15   13   14 ar 
    16   13   16 ar 
    17   14   15 ar 
    18   15   20 ar 
    19   16   17 1  
    20   16   18 ar 
    21   18   19 1  
    22   18   20 ar 
    23   21   22 1  
    24   21   24 1  
    25   21   32 1  
    26   22   23 3  
    27   24   25 ar 
    28   24   28 ar 
    29   25   26 1  
    30   25   27 ar 
    31   27   30 ar 
    32   28   29 ar 
    33   29   30 ar 
    34   30   31 1  
    35   32   33 1  
    36   33   34 1  
    37   34   35 1  
    38   34   36 1  
    39   34   37 1  
    40    1   38 1  
    41    3   39 1  
    42    4   40 1  
    43    4   41 1  
    44    5   42 1  
    45    5   43 1  
    46    6   44 1  
    47    7   45 1  
    48    8   46 1  
    49    8   47 1  
    50    9   48 1  
    51   11   49 1  
    52   11   50 1  
    53   12   51 1  
    54   14   52 1  
    55   15   53 1  
    56   20   54 1  
    57   27   55 1  
    58   28   56 1  
    59   29   57 1  
    60   32   58 1  
    61   33   59 1  
    62   33   60 1  
    63   35   61 1  
    64   35   62 1  
    65   35   63 1  
    66   36   64 1  
    67   36   65 1  
    68   36   66 1  
    69   37   67 1  
    70   37   68 1  
    71   37   69 1  
@<TRIPOS>SUBSTRUCTURE
     1 1OY         1

