### 
### Created by X-TOOL on Mon Sep 10 21:13:14 2018
### 

@<TRIPOS>MOLECULE
4jsr_ligand
   59    62     1     0     0
SMALL
GAST_HUCK


@<TRIPOS>ATOM
      1 CAA        21.1630   54.2790   -6.4830 C.3       1 1NQ        -0.0450
      2 CAJ        21.3500   53.3760   -7.7050 C.3       1 1NQ         0.0272
      3 NAS        21.9500   52.1010   -7.2860 N.am      1 1NQ        -0.2867
      4 CAX        22.1560   51.8070   -6.0050 C.2       1 1NQ         0.2142
      5 OAD        21.8720   52.5560   -5.0720 O.2       1 1NQ        -0.3868
      6 CAZ        22.7890   50.4370   -5.7510 C.2       1 1NQ         0.1084
      7 SAU        23.2900   49.8570   -4.2580 S.3       1 1NQ        -0.0068
      8 CAG        23.0320   49.5080   -6.6850 C.2       1 1NQ        -0.0437
      9 CAH        23.5990   48.3780   -6.2060 C.2       1 1NQ        -0.0437
     10 CBA        23.8160   48.3910   -4.8850 C.2       1 1NQ         0.1084
     11 CAY        24.4430   47.2530   -4.0770 C.2       1 1NQ         0.2142
     12 OAE        24.7330   47.4040   -2.8910 O.2       1 1NQ        -0.3868
     13 NAT        24.6380   46.1250   -4.7530 N.am      1 1NQ        -0.2864
     14 CAK        25.2300   44.9340   -4.1270 C.3       1 1NQ         0.0303
     15 CAL        24.1200   44.0600   -3.5400 C.3       1 1NQ        -0.0299
     16 CBF        23.7960   44.4750   -2.1040 C.3       1 1NQ        -0.0355
     17 CAN        22.8210   43.4690   -1.4890 C.3       1 1NQ        -0.0294
     18 CAP        22.4780   43.8490   -0.0470 C.3       1 1NQ         0.0321
     19 CAM        25.0840   44.5090   -1.2790 C.3       1 1NQ        -0.0294
     20 CAO        24.7990   44.9150    0.1690 C.3       1 1NQ         0.0321
     21 NBG        23.7260   44.0560    0.7200 N.pl3     1 1NQ        -0.2873
     22 C6         23.8940   43.4400    1.9650 C.ar      1 1NQ         0.1466
     23 N1         24.7080   43.9750    2.8840 N.ar      1 1NQ        -0.2630
     24 C2         24.8640   43.3910    4.0590 C.ar      1 1NQ         0.0565
     25 N3         24.2340   42.2710    4.3740 N.ar      1 1NQ        -0.2966
     26 C4         23.3990   41.6660    3.5150 C.ar      1 1NQ         0.0518
     27 CAI        22.6840   40.5300    3.6770 C.2       1 1NQ        -0.0166
     28 C5         23.2190   42.2670    2.2650 C.ar      1 1NQ         0.1103
     29 SAV        22.1380   41.3090    1.4050 S.3       1 1NQ        -0.0063
     30 CBB        21.9360   40.1800    2.6250 C.2       1 1NQ         0.1162
     31 CAW        21.0380   38.9440    2.5490 C.2       1 1NQ         0.2205
     32 OAC        20.5150   38.6050    1.4890 O.2       1 1NQ        -0.3807
     33 NAB        20.8800   38.2920    3.6980 N.am      1 1NQ        -0.2984
     34 H1         20.7140   55.2328   -6.7972 H         1 1NQ         0.0249
     35 H2         22.1401   54.4702   -6.0153 H         1 1NQ         0.0249
     36 H3         20.5004   53.7830   -5.7585 H         1 1NQ         0.0249
     37 H4         22.0125   53.8722   -8.4295 H         1 1NQ         0.0516
     38 H5         20.3728   53.1850   -8.1726 H         1 1NQ         0.0516
     39 H6         22.2111   51.4349   -7.9847 H         1 1NQ         0.1839
     40 H7         22.7937   49.6505   -7.7380 H         1 1NQ         0.0541
     41 H8         23.8568   47.5307   -6.8397 H         1 1NQ         0.0541
     42 H9         24.3739   46.0855   -5.7167 H         1 1NQ         0.1839
     43 H10        25.9153   45.2441   -3.3244 H         1 1NQ         0.0519
     44 H11        25.7865   44.3608   -4.8832 H         1 1NQ         0.0519
     45 H12        24.4482   43.0101   -3.5455 H         1 1NQ         0.0287
     46 H13        23.2155   44.1647   -4.1572 H         1 1NQ         0.0287
     47 H14        23.3369   45.4746   -2.1067 H         1 1NQ         0.0303
     48 H15        23.2815   42.4701   -1.4979 H         1 1NQ         0.0288
     49 H16        21.8972   43.4522   -2.0860 H         1 1NQ         0.0288
     50 H17        21.8933   43.0404    0.4159 H         1 1NQ         0.0525
     51 H18        21.8874   44.7770   -0.0432 H         1 1NQ         0.0525
     52 H19        25.7782   45.2358   -1.7261 H         1 1NQ         0.0288
     53 H20        25.5433   43.5096   -1.2883 H         1 1NQ         0.0288
     54 H21        24.4783   45.9668    0.1987 H         1 1NQ         0.0525
     55 H22        25.7118   44.7929    0.7706 H         1 1NQ         0.0525
     56 H23        25.5281   43.8431    4.7867 H         1 1NQ         0.1014
     57 H24        22.7148   39.9443    4.5946 H         1 1NQ         0.0570
     58 H25        20.3076   37.4728    3.7334 H         1 1NQ         0.1807
     59 H26        21.3337   38.6212    4.5262 H         1 1NQ         0.1807
@<TRIPOS>BOND
     1    1    2 1  
     2    2    3 1  
     3    3    4 am 
     4    4    5 2  
     5    4    6 1  
     6    6    7 1  
     7    6    8 2  
     8    7   10 1  
     9    8    9 1  
    10    9   10 2  
    11   10   11 1  
    12   11   12 2  
    13   11   13 am 
    14   13   14 1  
    15   14   15 1  
    16   15   16 1  
    17   16   17 1  
    18   16   19 1  
    19   17   18 1  
    20   18   21 1  
    21   19   20 1  
    22   20   21 1  
    23   21   22 1  
    24   22   23 ar 
    25   22   28 ar 
    26   23   24 ar 
    27   24   25 ar 
    28   25   26 ar 
    29   26   27 1  
    30   26   28 ar 
    31   27   30 2  
    32   28   29 1  
    33   29   30 1  
    34   30   31 1  
    35   31   32 2  
    36   31   33 am 
    37    1   34 1  
    38    1   35 1  
    39    1   36 1  
    40    2   37 1  
    41    2   38 1  
    42    3   39 1  
    43    8   40 1  
    44    9   41 1  
    45   13   42 1  
    46   14   43 1  
    47   14   44 1  
    48   15   45 1  
    49   15   46 1  
    50   16   47 1  
    51   17   48 1  
    52   17   49 1  
    53   18   50 1  
    54   18   51 1  
    55   19   52 1  
    56   19   53 1  
    57   20   54 1  
    58   20   55 1  
    59   24   56 1  
    60   27   57 1  
    61   33   58 1  
    62   33   59 1  
@<TRIPOS>SUBSTRUCTURE
     1 1NQ         1

