### 
### Created by X-TOOL on Mon Sep 10 21:13:14 2018
### 

@<TRIPOS>MOLECULE
4jss_ligand
   15    15     1     0     0
SMALL
GAST_HUCK


@<TRIPOS>ATOM
      1 C4         16.0870    3.0630   12.9780 C.2       1 BEW        -0.0675
      2 C5         15.5330    3.7010   14.1080 C.2       1 BEW        -0.0773
      3 C6         14.7730    2.9540   15.0220 C.3       1 BEW         0.0366
      4 N2         15.4900    0.9020   13.9340 N.am      1 BEW        -0.1517
      5 O8         15.5950   -0.4810   13.9410 O.3       1 BEW        -0.2580
      6 C3         16.0990    1.6670   12.9050 C.3       1 BEW         0.0879
      7 C1         14.7620    1.5340   14.9300 C.2       1 BEW         0.0946
      8 S7         13.8040    0.6030   15.9880 S.2       1 BEW        -0.2846
      9 H1         16.5039    3.6561   12.1654 H         1 BEW         0.0491
     10 H2         15.6939    4.7658   14.2701 H         1 BEW         0.0474
     11 H3         13.7303    3.2891   14.9200 H         1 BEW         0.0637
     12 H4         15.1426    3.2064   16.0268 H         1 BEW         0.0637
     13 H5         15.2132   -0.8305   13.1444 H         1 BEW         0.2538
     14 H6         17.1542    1.3593   12.8613 H         1 BEW         0.0711
     15 H7         15.5978    1.3928   11.9650 H         1 BEW         0.0711
@<TRIPOS>BOND
     1    1    2 2  
     2    6    1 1  
     3    2    3 1  
     4    3    7 1  
     5    4    5 1  
     6    4    6 1  
     7    4    7 am 
     8    7    8 2  
     9    1    9 1  
    10    2   10 1  
    11    3   11 1  
    12    3   12 1  
    13    5   13 1  
    14    6   14 1  
    15    6   15 1  
@<TRIPOS>SUBSTRUCTURE
     1 BEW         1

