### 
### Created by X-TOOL on Mon Sep 10 21:13:13 2018
### 

@<TRIPOS>MOLECULE
4jsz_ligand
   17    17     1     0     0
SMALL
GAST_HUCK


@<TRIPOS>ATOM
      1 C01        34.8690   -2.1350   10.8780 C.ar      1 FB2        -0.0616
      2 C02        34.3000   -3.0810   11.7280 C.ar      1 FB2        -0.0599
      3 C03        33.3500   -2.6900   12.6900 C.ar      1 FB2        -0.0351
      4 C04        33.0010   -1.3190   12.8210 C.ar      1 FB2         0.1079
      5 C05        33.5630   -0.3670   11.9650 C.ar      1 FB2        -0.0351
      6 C06        34.4790   -0.7890   10.9820 C.ar      1 FB2        -0.0599
      7 S07        31.7320   -0.8530   14.1030 S.o2      1 FB2         0.0659
      8 O09        31.0260    0.3950   13.6750 O.2       1 FB2        -0.1505
      9 O08        32.4530   -0.6460   15.4910 O.2       1 FB2        -0.1505
     10 NP0        30.8470   -2.1460   14.0950 N.am      1 FB2        -0.2609
     11 H1         35.6066   -2.4349   10.1424 H         1 FB2         0.0618
     12 H2         34.5902   -4.1224   11.6481 H         1 FB2         0.0618
     13 H3         32.8860   -3.4326   13.3290 H         1 FB2         0.0637
     14 H4         33.2977    0.6800   12.0566 H         1 FB2         0.0637
     15 H5         34.8912   -0.0614   10.2922 H         1 FB2         0.0618
     16 H6         30.0523   -2.2117   14.6985 H         1 FB2         0.1635
     17 H7         31.0769   -2.9055   13.4864 H         1 FB2         0.1635
@<TRIPOS>BOND
     1    1    2 ar 
     2    1    6 ar 
     3    2    3 ar 
     4    3    4 ar 
     5    4    5 ar 
     6    4    7 1  
     7    5    6 ar 
     8    7    8 2  
     9    7    9 2  
    10    7   10 am 
    11    1   11 1  
    12    2   12 1  
    13    3   13 1  
    14    5   14 1  
    15    6   15 1  
    16   10   16 1  
    17   10   17 1  
@<TRIPOS>SUBSTRUCTURE
     1 FB2         1

