### 
### Created by X-TOOL on Mon Sep 10 21:13:15 2018
### 

@<TRIPOS>MOLECULE
4jt8_ligand
   54    56     1     0     0
SMALL
GAST_HUCK


@<TRIPOS>ATOM
      1 CAY        24.3620   48.1330  -15.7750 C.3       1 1NR        -0.0535
      2 CAX        23.4820   47.2480  -14.9290 C.3       1 1NR         0.0429
      3 CAZ        22.9140   48.0810  -13.7810 C.3       1 1NR        -0.0535
      4 CBA        22.3370   46.7530  -15.7980 C.3       1 1NR        -0.0535
      5 CAA        24.3160   46.0840  -14.3640 C.2       1 1NR         0.2010
      6 OAC        24.9770   46.2380  -13.3400 O.2       1 1NR        -0.3443
      7 NAB        24.2820   44.9270  -15.0450 N.am      1 1NR        -0.2858
      8 CAD        25.0530   43.7440  -14.6150 C.3       1 1NR         0.0312
      9 CAE        24.1740   42.7190  -13.8550 C.3       1 1NR        -0.0297
     10 CAF        23.7290   43.2310  -12.4550 C.3       1 1NR        -0.0355
     11 CAK        22.6360   42.2990  -11.9010 C.3       1 1NR        -0.0294
     12 CAJ        22.2080   42.7150  -10.4790 C.3       1 1NR         0.0321
     13 CAG        24.9320   43.3580  -11.4740 C.3       1 1NR        -0.0294
     14 CAH        24.4530   43.7810  -10.0640 C.3       1 1NR         0.0321
     15 NAI        23.4000   42.8280   -9.5890 N.pl3     1 1NR        -0.2873
     16 C6         23.5590   42.1400   -8.4180 C.ar      1 1NR         0.1466
     17 N1         24.4270   42.6770   -7.5330 N.ar      1 1NR        -0.2630
     18 C2         24.6810   42.0730   -6.3110 C.ar      1 1NR         0.0565
     19 N3         24.0030   40.8880   -6.0390 N.ar      1 1NR        -0.2966
     20 C4         23.1320   40.3560   -6.9220 C.ar      1 1NR         0.0518
     21 CAR        22.4150   39.2150   -6.7630 C.2       1 1NR        -0.0166
     22 C5         22.9170   40.9870   -8.1060 C.ar      1 1NR         0.1103
     23 SAT        21.7900   40.0240   -8.9220 S.3       1 1NR        -0.0063
     24 CAS        21.6170   38.8980   -7.7880 C.2       1 1NR         0.1162
     25 CAU        20.7890   37.8470   -7.8850 C.2       1 1NR         0.2205
     26 OAV        20.2420   37.5980   -8.9550 O.2       1 1NR        -0.3807
     27 NAW        20.5200   37.1670   -6.7650 N.am      1 1NR        -0.2984
     28 H1         23.7658   48.9647  -16.1786 H         1 1NR         0.0221
     29 H2         24.7821   47.5463  -16.6053 H         1 1NR         0.0221
     30 H3         25.1800   48.5337  -15.1584 H         1 1NR         0.0221
     31 H4         22.2687   47.4487  -13.1535 H         1 1NR         0.0221
     32 H5         22.3244   48.9149  -14.1897 H         1 1NR         0.0221
     33 H6         23.7399   48.4791  -13.1732 H         1 1NR         0.0221
     34 H7         22.7391   46.1522  -16.6270 H         1 1NR         0.0221
     35 H8         21.7854   47.6141  -16.2032 H         1 1NR         0.0221
     36 H9         21.6580   46.1345  -15.1926 H         1 1NR         0.0221
     37 H10        23.7174   44.8651  -15.8681 H         1 1NR         0.1857
     38 H11        25.8671   44.0730  -13.9524 H         1 1NR         0.0522
     39 H12        25.4785   43.2557  -15.5041 H         1 1NR         0.0522
     40 H13        24.7496   41.7909  -13.7236 H         1 1NR         0.0287
     41 H14        23.2761   42.5117  -14.4556 H         1 1NR         0.0287
     42 H15        23.2938   44.2336  -12.5795 H         1 1NR         0.0303
     43 H16        23.0245   41.2703  -11.8710 H         1 1NR         0.0288
     44 H17        21.7599   42.3409  -12.5648 H         1 1NR         0.0288
     45 H18        21.5217   41.9583  -10.0711 H         1 1NR         0.0525
     46 H19        21.6963   43.6876  -10.5245 H         1 1NR         0.0525
     47 H20        25.6319   44.1145  -11.8585 H         1 1NR         0.0288
     48 H21        25.4438   42.3868  -11.4041 H         1 1NR         0.0288
     49 H22        24.0348   44.7974  -10.1082 H         1 1NR         0.0525
     50 H23        25.3039   43.7645   -9.3672 H         1 1NR         0.0525
     51 H24        25.3761   42.5041   -5.5996 H         1 1NR         0.1014
     52 H25        22.4845   38.6019   -5.8657 H         1 1NR         0.0570
     53 H26        19.9075   36.3771   -6.7946 H         1 1NR         0.1807
     54 H27        20.9314   37.4485   -5.8981 H         1 1NR         0.1807
@<TRIPOS>BOND
     1    1    2 1  
     2    2    3 1  
     3    2    4 1  
     4    2    5 1  
     5    5    6 2  
     6    5    7 am 
     7    7    8 1  
     8    8    9 1  
     9    9   10 1  
    10   10   11 1  
    11   10   13 1  
    12   11   12 1  
    13   12   15 1  
    14   13   14 1  
    15   14   15 1  
    16   15   16 1  
    17   16   17 ar 
    18   16   22 ar 
    19   17   18 ar 
    20   18   19 ar 
    21   19   20 ar 
    22   20   21 1  
    23   20   22 ar 
    24   21   24 2  
    25   22   23 1  
    26   23   24 1  
    27   24   25 1  
    28   25   26 2  
    29   25   27 am 
    30    1   28 1  
    31    1   29 1  
    32    1   30 1  
    33    3   31 1  
    34    3   32 1  
    35    3   33 1  
    36    4   34 1  
    37    4   35 1  
    38    4   36 1  
    39    7   37 1  
    40    8   38 1  
    41    8   39 1  
    42    9   40 1  
    43    9   41 1  
    44   10   42 1  
    45   11   43 1  
    46   11   44 1  
    47   12   45 1  
    48   12   46 1  
    49   13   47 1  
    50   13   48 1  
    51   14   49 1  
    52   14   50 1  
    53   18   51 1  
    54   21   52 1  
    55   27   53 1  
    56   27   54 1  
@<TRIPOS>SUBSTRUCTURE
     1 1NR         1

