### 
### Created by X-TOOL on Mon Sep 10 21:13:14 2018
### 

@<TRIPOS>MOLECULE
4jt9_ligand
   46    48     1     0     0
SMALL
GAST_HUCK


@<TRIPOS>ATOM
      1 C01        25.3710   48.3880  -12.9830 C.3       1 1NS         0.0732
      2 S02        25.1120   47.8130  -14.6100 S.o2      1 1NS         0.0362
      3 N03        25.5350   46.2060  -14.8120 N.am      1 1NS        -0.2520
      4 C04        24.5380   45.2740  -14.5540 C.3       1 1NS         0.0264
      5 C05        24.9100   44.3190  -13.4170 C.3       1 1NS        -0.0332
      6 C06        24.4930   44.9190  -12.0900 C.3       1 1NS        -0.0359
      7 C07        23.3580   44.1370  -11.5840 C.3       1 1NS        -0.0294
      8 C08        22.9100   44.7520  -10.3010 C.3       1 1NS         0.0321
      9 N09        24.0420   44.8620   -9.3810 N.pl3     1 1NS        -0.2873
     10 C10        24.3440   44.2040   -8.1130 C.ar      1 1NS         0.1466
     11 C11        23.6990   43.0050   -7.7600 C.ar      1 1NS         0.1103
     12 C12        24.0090   42.4130   -6.5080 C.ar      1 1NS         0.0518
     13 C13        23.2530   41.1230   -6.2430 C.2       1 1NS        -0.0166
     14 C14        22.4230   40.8320   -7.3710 C.2       1 1NS         0.1162
     15 C15        21.5560   39.7110   -7.5090 C.2       1 1NS         0.2205
     16 N16        21.2030   38.9470   -6.3380 N.am      1 1NS        -0.2984
     17 O17        21.0900   39.4320   -8.6170 O.2       1 1NS        -0.3807
     18 S18        22.6080   42.0260   -8.5590 S.3       1 1NS        -0.0063
     19 N19        24.9030   43.0550   -5.6870 N.ar      1 1NS        -0.2966
     20 C20        25.4960   44.2020   -6.0290 C.ar      1 1NS         0.0565
     21 N21        25.2090   44.7900   -7.2300 N.ar      1 1NS        -0.2630
     22 C22        25.1870   45.6250   -9.8250 C.3       1 1NS         0.0321
     23 C23        25.6410   45.0860  -11.1540 C.3       1 1NS        -0.0294
     24 O24        23.8920   48.1640  -15.1430 O.2       1 1NS        -0.1558
     25 O25        26.0240   48.5720  -15.5770 O.2       1 1NS        -0.1558
     26 H1         25.0752   49.4454  -12.9164 H         1 1NS         0.0482
     27 H2         26.4353   48.2880  -12.7238 H         1 1NS         0.0482
     28 H3         24.7657   47.7932  -12.2831 H         1 1NS         0.0482
     29 H4         26.4523   45.9328  -15.1016 H         1 1NS         0.1668
     30 H5         24.3609   44.6850  -15.4659 H         1 1NS         0.0475
     31 H6         23.6173   45.8091  -14.2785 H         1 1NS         0.0475
     32 H7         25.9976   44.1547  -13.4184 H         1 1NS         0.0283
     33 H8         24.3939   43.3586  -13.5624 H         1 1NS         0.0283
     34 H9         24.1168   45.9333  -12.2889 H         1 1NS         0.0303
     35 H10        23.6694   43.0964  -11.4104 H         1 1NS         0.0288
     36 H11        22.5358   44.1567  -12.3145 H         1 1NS         0.0288
     37 H12        22.1306   44.1224   -9.8470 H         1 1NS         0.0525
     38 H13        22.5023   45.7542  -10.4994 H         1 1NS         0.0525
     39 H14        23.3302   40.5179   -5.3409 H         1 1NS         0.0570
     40 H15        20.5950   38.1574   -6.4207 H         1 1NS         0.1807
     41 H16        21.5662   39.2068   -5.4432 H         1 1NS         0.1807
     42 H17        26.2053   44.6672   -5.3541 H         1 1NS         0.1014
     43 H18        26.0007   45.5323   -9.0907 H         1 1NS         0.0525
     44 H19        24.9076   46.6836   -9.9311 H         1 1NS         0.0525
     45 H20        26.3653   45.7858  -11.5962 H         1 1NS         0.0288
     46 H21        26.1225   44.1092  -10.9992 H         1 1NS         0.0288
@<TRIPOS>BOND
     1    1    2 1  
     2    2    3 am 
     3    2   24 2  
     4    2   25 2  
     5    3    4 1  
     6    4    5 1  
     7    5    6 1  
     8    6    7 1  
     9    6   23 1  
    10    7    8 1  
    11    8    9 1  
    12    9   10 1  
    13    9   22 1  
    14   10   11 ar 
    15   10   21 ar 
    16   11   12 ar 
    17   11   18 1  
    18   12   13 1  
    19   12   19 ar 
    20   13   14 2  
    21   14   15 1  
    22   14   18 1  
    23   15   16 am 
    24   15   17 2  
    25   19   20 ar 
    26   20   21 ar 
    27   22   23 1  
    28    1   26 1  
    29    1   27 1  
    30    1   28 1  
    31    3   29 1  
    32    4   30 1  
    33    4   31 1  
    34    5   32 1  
    35    5   33 1  
    36    6   34 1  
    37    7   35 1  
    38    7   36 1  
    39    8   37 1  
    40    8   38 1  
    41   13   39 1  
    42   16   40 1  
    43   16   41 1  
    44   20   42 1  
    45   22   43 1  
    46   22   44 1  
    47   23   45 1  
    48   23   46 1  
@<TRIPOS>SUBSTRUCTURE
     1 1NS         1

