### 
### Created by X-TOOL on Mon Sep 10 21:13:16 2018
### 

@<TRIPOS>MOLECULE
4ju3_ligand
   45    47     1     0     0
SMALL
GAST_HUCK


@<TRIPOS>ATOM
      1 C1        -27.4370   47.6420   55.5520 C.ar      1 1O1        -0.0414
      2 C2        -27.9100   47.6400   54.2140 C.ar      1 1O1        -0.0587
      3 C3        -27.9150   48.8420   53.4390 C.ar      1 1O1        -0.0460
      4 C4        -27.4390   50.0530   54.0130 C.ar      1 1O1        -0.0587
      5 C5        -26.9660   50.0710   55.3480 C.ar      1 1O1        -0.0414
      6 C6        -26.9620   48.8590   56.1160 C.ar      1 1O1         0.1069
      7 S7        -26.3630   48.8770   57.8020 S.o2      1 1O1         0.0856
      8 O8        -26.4050   50.2600   58.2850 O.2       1 1O1        -0.1456
      9 O9        -27.1730   47.8840   58.4950 O.2       1 1O1        -0.1456
     10 N10       -24.7170   48.2860   57.7400 N.am      1 1O1        -0.1901
     11 C11       -23.7400   48.8420   56.8080 C.ar      1 1O1         0.0681
     12 C12       -22.8500   47.9900   56.0400 C.ar      1 1O1         0.0196
     13 C13       -21.9100   48.5930   55.1420 C.ar      1 1O1        -0.0290
     14 C14       -21.8660   50.0070   54.9540 C.ar      1 1O1         0.1036
     15 C15       -22.7540   50.8320   55.7150 C.ar      1 1O1        -0.0401
     16 C16       -23.6840   50.2530   56.6130 C.ar      1 1O1        -0.0476
     17 C17       -22.8800   46.5120   56.2120 C.2       1 1O1         0.0511
     18 O18       -21.7780   45.8770   55.7670 O.co2     1 1O1        -0.5663
     19 O19       -23.8090   45.8880   56.7050 O.co2     1 1O1        -0.5663
     20 O20       -20.9060   50.3940   54.0290 O.3       1 1O1        -0.2658
     21 C21       -20.5260   51.8040   54.1060 C.ar      1 1O1         0.1152
     22 C22       -21.0310   52.7390   53.1280 C.ar      1 1O1        -0.0255
     23 C23       -20.6520   54.1310   53.2000 C.ar      1 1O1        -0.0557
     24 C24       -19.7660   54.5930   54.2540 C.ar      1 1O1        -0.0008
     25 C25       -19.2620   53.6490   55.2310 C.ar      1 1O1        -0.0557
     26 C26       -19.6350   52.2660   55.1600 C.ar      1 1O1        -0.0255
     27 C27       -19.3880   55.9140   54.3310 C.2       1 1O1         0.0558
     28 C28       -28.4170   48.8250   52.0310 C.3       1 1O1        -0.0311
     29 O29       -18.2450   56.3280   54.5890 O.co2     1 1O1        -0.5636
     30 O30       -20.4100   56.7490   54.0830 O.co2     1 1O1        -0.5636
     31 H1        -27.4375   46.7290   56.1363 H         1 1O1         0.0619
     32 H2        -28.2715   46.7173   53.7746 H         1 1O1         0.0557
     33 H3        -27.4382   50.9650   53.4271 H         1 1O1         0.0557
     34 H4        -26.6089   50.9955   55.7871 H         1 1O1         0.0619
     35 H5        -24.4389   47.5501   58.3574 H         1 1O1         0.2146
     36 H6        -21.2186   47.9626   54.5946 H         1 1O1         0.0544
     37 H7        -22.7145   51.9095   55.6032 H         1 1O1         0.0537
     38 H8        -24.3648   50.8939   57.1614 H         1 1O1         0.0470
     39 H9        -21.6934   52.3967   52.3412 H         1 1O1         0.0557
     40 H10       -21.0299   54.8328   52.4653 H         1 1O1         0.0624
     41 H11       -18.6001   53.9896   56.0190 H         1 1O1         0.0624
     42 H12       -19.2529   51.5639   55.8922 H         1 1O1         0.0557
     43 H13       -28.7393   47.8064   51.7689 H         1 1O1         0.0391
     44 H14       -27.6123   49.1413   51.3510 H         1 1O1         0.0391
     45 H15       -29.2688   49.5146   51.9370 H         1 1O1         0.0391
@<TRIPOS>BOND
     1    1    2 ar 
     2    1    6 ar 
     3    2    3 ar 
     4    3    4 ar 
     5    3   28 1  
     6    4    5 ar 
     7    5    6 ar 
     8    6    7 1  
     9    7    8 2  
    10    7    9 2  
    11    7   10 am 
    12   10   11 1  
    13   11   12 ar 
    14   11   16 ar 
    15   12   13 ar 
    16   12   17 1  
    17   13   14 ar 
    18   14   15 ar 
    19   14   20 1  
    20   15   16 ar 
    21   17   18 ar 
    22   17   19 ar 
    23   20   21 1  
    24   21   22 ar 
    25   21   26 ar 
    26   22   23 ar 
    27   23   24 ar 
    28   24   25 ar 
    29   24   27 1  
    30   25   26 ar 
    31   27   29 ar 
    32   27   30 ar 
    33    1   31 1  
    34    2   32 1  
    35    4   33 1  
    36    5   34 1  
    37   10   35 1  
    38   13   36 1  
    39   15   37 1  
    40   16   38 1  
    41   22   39 1  
    42   23   40 1  
    43   25   41 1  
    44   26   42 1  
    45   28   43 1  
    46   28   44 1  
    47   28   45 1  
@<TRIPOS>SUBSTRUCTURE
     1 1O1         1

