### 
### Created by X-TOOL on Mon Sep 10 21:13:15 2018
### 

@<TRIPOS>MOLECULE
4ju4_ligand
   40    42     1     0     0
SMALL
GAST_HUCK


@<TRIPOS>ATOM
      1 C1        -27.3540   49.1110   56.0190 C.ar      1 1O3         0.1621
      2 C2        -27.7880   49.1330   54.6890 C.ar      1 1O3        -0.0165
      3 C3        -27.7730   50.3490   53.9830 C.ar      1 1O3         0.0113
      4 C4        -27.3220   51.5600   54.5890 C.ar      1 1O3        -0.0543
      5 C5        -26.8890   51.5360   55.9310 C.ar      1 1O3        -0.0335
      6 C6        -26.9050   50.2990   56.6540 C.ar      1 1O3         0.1499
      7 S7        -26.3840   50.2440   58.3340 S.o2      1 1O3         0.0906
      8 O8        -27.3310   49.4040   59.0490 O.2       1 1O3        -0.1450
      9 O9        -26.3040   51.6440   58.7640 O.2       1 1O3        -0.1450
     10 N10       -24.8220   49.5220   58.3940 N.am      1 1O3        -0.1896
     11 C11       -23.6870   50.0060   57.6240 C.ar      1 1O3         0.0681
     12 C12       -22.9560   49.1710   56.6860 C.ar      1 1O3         0.0195
     13 C13       -21.8530   49.7210   55.9580 C.ar      1 1O3        -0.0292
     14 C14       -21.4690   51.0610   56.1370 C.ar      1 1O3         0.1027
     15 C15       -22.1790   51.8930   57.0700 C.ar      1 1O3        -0.0403
     16 C16       -23.2800   51.3650   57.8000 C.ar      1 1O3        -0.0477
     17 C17       -23.3080   47.7650   56.4570 C.2       1 1O3         0.0511
     18 O18       -24.3900   47.2550   56.7230 O.co2     1 1O3        -0.5663
     19 O19       -22.2810   47.0660   55.9090 O.co2     1 1O3        -0.5663
     20 O20       -20.3800   51.4840   55.3650 O.3       1 1O3        -0.2679
     21 C21       -20.4950   52.5870   54.5200 C.ar      1 1O3         0.1120
     22 C22       -21.6410   52.8530   53.7040 C.ar      1 1O3        -0.0293
     23 C23       -21.6590   54.0060   52.8770 C.ar      1 1O3        -0.0701
     24 C24       -20.5440   54.8920   52.8590 C.ar      1 1O3        -0.0726
     25 C25       -19.4020   54.6290   53.6690 C.ar      1 1O3        -0.0701
     26 C26       -19.3800   53.4760   54.4990 C.ar      1 1O3        -0.0293
     27 F27       -27.3860   47.9290   56.6470 F         1 1O3        -0.1806
     28 BR1       -28.3650   50.3750   52.2110 Br        1 1O3        -0.0509
     29 H1        -28.1315   48.2239   54.2088 H         1 1O3         0.0631
     30 H2        -27.3124   52.4858   54.0253 H         1 1O3         0.0610
     31 H3        -26.5470   52.4456   56.4114 H         1 1O3         0.0634
     32 H4        -24.6884   48.7293   58.9887 H         1 1O3         0.2146
     33 H5        -21.3073   49.0963   55.2601 H         1 1O3         0.0543
     34 H6        -21.8753   52.9231   57.2173 H         1 1O3         0.0537
     35 H7        -23.8157   51.9996   58.4967 H         1 1O3         0.0469
     36 H8        -22.4892   52.1781   53.7178 H         1 1O3         0.0549
     37 H9        -22.5239   54.2130   52.2572 H         1 1O3         0.0589
     38 H10       -20.5645   55.7713   52.2254 H         1 1O3         0.0525
     39 H11       -18.5546   55.3047   53.6522 H         1 1O3         0.0589
     40 H12       -18.5137   53.2716   55.1177 H         1 1O3         0.0549
@<TRIPOS>BOND
     1    1    2 ar 
     2    1    6 ar 
     3    1   27 1  
     4    2    3 ar 
     5    3    4 ar 
     6    3   28 1  
     7    4    5 ar 
     8    5    6 ar 
     9    6    7 1  
    10    7    8 2  
    11    7    9 2  
    12    7   10 am 
    13   10   11 1  
    14   11   12 ar 
    15   11   16 ar 
    16   12   13 ar 
    17   12   17 1  
    18   13   14 ar 
    19   14   15 ar 
    20   14   20 1  
    21   15   16 ar 
    22   17   18 ar 
    23   17   19 ar 
    24   20   21 1  
    25   21   22 ar 
    26   21   26 ar 
    27   22   23 ar 
    28   23   24 ar 
    29   24   25 ar 
    30   25   26 ar 
    31    2   29 1  
    32    4   30 1  
    33    5   31 1  
    34   10   32 1  
    35   13   33 1  
    36   15   34 1  
    37   16   35 1  
    38   22   36 1  
    39   23   37 1  
    40   24   38 1  
    41   25   39 1  
    42   26   40 1  
@<TRIPOS>SUBSTRUCTURE
     1 1O3         1

