### 
### Created by X-TOOL on Mon Sep 10 21:13:16 2018
### 

@<TRIPOS>MOLECULE
4ju7_ligand
   57    59     1     0     0
SMALL
GAST_HUCK


@<TRIPOS>ATOM
      1 C1        -27.2340   48.8880   55.5040 C.3       1 1O6        -0.0325
      2 C2        -27.5880   49.2040   54.0540 C.3       1 1O6        -0.0481
      3 C3        -28.1340   50.6360   53.8950 C.3       1 1O6        -0.0436
      4 C4        -27.1420   51.6860   54.4690 C.3       1 1O6        -0.0481
      5 C5        -26.7380   51.3690   55.9290 C.3       1 1O6        -0.0325
      6 C6        -26.2260   49.9220   56.0850 C.3       1 1O6         0.0545
      7 C7        -25.9450   49.6030   57.5810 C.2       1 1O6         0.2082
      8 O8        -26.8990   49.2700   58.3180 O.2       1 1O6        -0.3850
      9 C9        -24.3890   49.3490   59.5600 C.3       1 1O6         0.0599
     10 N10       -24.5970   49.6890   58.0850 N.am      1 1O6        -0.2196
     11 C11       -23.4470   50.0740   57.2700 C.ar      1 1O6         0.0749
     12 C12       -22.7060   49.1500   56.4340 C.ar      1 1O6         0.0239
     13 C13       -21.5960   49.6210   55.6800 C.ar      1 1O6        -0.0269
     14 C14       -21.2040   50.9750   55.7320 C.ar      1 1O6         0.1047
     15 C15       -21.9260   51.8970   56.5490 C.ar      1 1O6        -0.0380
     16 C16       -23.0390   51.4440   57.3080 C.ar      1 1O6        -0.0434
     17 C17       -23.0600   47.7380   56.3260 C.2       1 1O6         0.0527
     18 O18       -21.9830   46.9280   56.3070 O.co2     1 1O6        -0.5656
     19 O19       -24.1860   47.2850   56.2410 O.co2     1 1O6        -0.5656
     20 O20       -20.1010   51.2930   54.9530 O.3       1 1O6        -0.2666
     21 C21       -19.9600   52.5320   54.3570 C.ar      1 1O6         0.1125
     22 C22       -18.9010   53.3990   54.7550 C.ar      1 1O6        -0.0292
     23 C23       -18.7540   54.6630   54.1360 C.ar      1 1O6        -0.0700
     24 C24       -19.6620   55.0680   53.1210 C.ar      1 1O6        -0.0726
     25 C25       -20.7230   54.2050   52.7190 C.ar      1 1O6        -0.0700
     26 C26       -20.8830   52.9260   53.3320 C.ar      1 1O6        -0.0292
     27 C28       -28.4060   50.9210   52.4200 C.3       1 1O6        -0.0624
     28 C29       -23.4410   48.1850   59.8850 C.3       1 1O6        -0.0371
     29 C30       -23.9420   50.5850   60.3930 C.3       1 1O6        -0.0371
     30 H1        -26.7843   47.8853   55.5515 H         1 1O6         0.0292
     31 H2        -28.1530   48.9067   56.1083 H         1 1O6         0.0292
     32 H3        -28.3529   48.4917   53.7113 H         1 1O6         0.0269
     33 H4        -26.6844   49.0973   53.4359 H         1 1O6         0.0269
     34 H5        -29.0806   50.7125   54.4501 H         1 1O6         0.0298
     35 H6        -27.6186   52.6769   54.4402 H         1 1O6         0.0269
     36 H7        -26.2363   51.6965   53.8448 H         1 1O6         0.0269
     37 H8        -27.6150   51.5074   56.5784 H         1 1O6         0.0292
     38 H9        -25.9414   52.0627   56.2358 H         1 1O6         0.0292
     39 H10       -25.2823   49.8322   55.5271 H         1 1O6         0.0543
     40 H11       -25.3798   49.0491   59.9320 H         1 1O6         0.0615
     41 H12       -21.0426   48.9288   55.0557 H         1 1O6         0.0548
     42 H13       -21.6265   52.9380   56.5902 H         1 1O6         0.0541
     43 H14       -23.5866   52.1474   57.9248 H         1 1O6         0.0490
     44 H15       -18.2093   53.0906   55.5306 H         1 1O6         0.0549
     45 H16       -17.9481   55.3227   54.4364 H         1 1O6         0.0590
     46 H17       -19.5474   56.0377   52.6502 H         1 1O6         0.0525
     47 H18       -21.4116   54.5216   51.9440 H         1 1O6         0.0590
     48 H19       -21.6868   52.2649   53.0287 H         1 1O6         0.0549
     49 H20       -29.1085   50.1722   52.0254 H         1 1O6         0.0232
     50 H21       -27.4624   50.8711   51.8568 H         1 1O6         0.0232
     51 H22       -28.8431   51.9250   52.3150 H         1 1O6         0.0232
     52 H23       -23.3848   48.0514   60.9754 H         1 1O6         0.0256
     53 H24       -22.4385   48.4075   59.4907 H         1 1O6         0.0256
     54 H25       -23.8208   47.2624   59.4217 H         1 1O6         0.0256
     55 H26       -23.8062   50.2893   61.4438 H         1 1O6         0.0256
     56 H27       -24.7118   51.3681   60.3291 H         1 1O6         0.0256
     57 H28       -22.9920   50.9713   59.9951 H         1 1O6         0.0256
@<TRIPOS>BOND
     1    1    2 1  
     2    1    6 1  
     3    2    3 1  
     4    3    4 1  
     5    3   27 1  
     6    4    5 1  
     7    5    6 1  
     8    6    7 1  
     9    7    8 2  
    10    7   10 am 
    11   10    9 1  
    12    9   28 1  
    13    9   29 1  
    14   10   11 1  
    15   11   12 ar 
    16   11   16 ar 
    17   12   13 ar 
    18   12   17 1  
    19   13   14 ar 
    20   14   15 ar 
    21   14   20 1  
    22   15   16 ar 
    23   17   18 ar 
    24   17   19 ar 
    25   20   21 1  
    26   21   22 ar 
    27   21   26 ar 
    28   22   23 ar 
    29   23   24 ar 
    30   24   25 ar 
    31   25   26 ar 
    32    1   30 1  
    33    1   31 1  
    34    2   32 1  
    35    2   33 1  
    36    3   34 1  
    37    4   35 1  
    38    4   36 1  
    39    5   37 1  
    40    5   38 1  
    41    6   39 1  
    42    9   40 1  
    43   13   41 1  
    44   15   42 1  
    45   16   43 1  
    46   22   44 1  
    47   23   45 1  
    48   24   46 1  
    49   25   47 1  
    50   26   48 1  
    51   27   49 1  
    52   27   50 1  
    53   27   51 1  
    54   28   52 1  
    55   28   53 1  
    56   28   54 1  
    57   29   55 1  
    58   29   56 1  
    59   29   57 1  
@<TRIPOS>SUBSTRUCTURE
     1 1O6         1

