### 
### Created by X-TOOL on Fri Sep 26 17:34:59 2014
### 

@<TRIPOS>MOLECULE
4jv6_ligand
   38    41     1     0     0
SMALL
GAST_HUCK


@<TRIPOS>ATOM
      1 CAR        19.4930  -16.7440   16.2510 C.ar      1 18F        -0.0578
      2 CAS        20.0370  -15.6060   16.8680 C.ar      1 18F        -0.0685
      3 CAT        20.7250  -14.6170   16.1790 C.ar      1 18F        -0.0687
      4 CAU        20.9190  -14.7670   14.7990 C.ar      1 18F        -0.0685
      5 CAV        20.3670  -15.8990   14.1730 C.ar      1 18F        -0.0578
      6 CAQ        19.6460  -16.8780   14.8750 C.ar      1 18F        -0.0142
      7 CAP        19.0330  -18.1330   14.1750 C.3       1 18F         0.0893
      8 NAE        19.2110  -18.1020   12.6900 N.pl3     1 18F        -0.2233
      9 CAD        20.2960  -18.6220   12.0670 C.ar      1 18F         0.0872
     10 CAI        21.4460  -19.2740   12.5480 C.ar      1 18F        -0.0387
     11 CAH        22.4440  -19.6820   11.6260 C.ar      1 18F        -0.0741
     12 CAG        22.2360  -19.4210   10.2490 C.ar      1 18F        -0.0758
     13 CAF        21.0840  -18.7530    9.7870 C.ar      1 18F        -0.0607
     14 CAC        20.1040  -18.3700   10.7100 C.ar      1 18F         0.0338
     15 NAB        18.9040  -17.6770   10.5530 N.2       1 18F        -0.3037
     16 CAA        18.3740  -17.5190   11.7700 C.2       1 18F         0.1455
     17 CAJ        17.1020  -16.9920   12.0360 C.ar      1 18F         0.0348
     18 CAK        16.0340  -17.5970   11.3610 C.ar      1 18F        -0.0441
     19 CAL        14.7040  -17.1780   11.5880 C.ar      1 18F        -0.0567
     20 CAM        14.5160  -16.1940   12.5630 C.ar      1 18F        -0.0580
     21 CAN        15.5670  -15.5970   13.2330 C.ar      1 18F        -0.0567
     22 CAO        16.8820  -16.0000   12.9860 C.ar      1 18F        -0.0441
     23 H1         18.9692  -17.4960   16.8300 H         1 18F         0.0557
     24 H2         19.9130  -15.4940   17.9391 H         1 18F         0.0599
     25 H3         21.1052  -13.7448   16.6984 H         1 18F         0.0559
     26 H4         21.4780  -14.0322   14.2310 H         1 18F         0.0599
     27 H5         20.5039  -16.0206   13.1046 H         1 18F         0.0557
     28 H6         17.9572  -18.1733   14.4010 H         1 18F         0.0765
     29 H7         19.5248  -19.0337   14.5709 H         1 18F         0.0765
     30 H8         21.5679  -19.4621   13.6086 H         1 18F         0.0548
     31 H9         23.3438  -20.1813   11.9667 H         1 18F         0.0547
     32 H10        22.9823  -19.7435    9.5320 H         1 18F         0.0525
     33 H11        20.9588  -18.5389    8.7317 H         1 18F         0.0555
     34 H12        16.2304  -18.3965   10.6558 H         1 18F         0.0663
     35 H13        13.8720  -17.5980   11.0345 H         1 18F         0.0628
     36 H14        13.5046  -15.8867   12.8033 H         1 18F         0.0649
     37 H15        15.3702  -14.8119   13.9540 H         1 18F         0.0628
     38 H16        17.7104  -15.5506   13.5216 H         1 18F         0.0663
@<TRIPOS>BOND
     1    1    2 ar 
     2    1    6 ar 
     3    2    3 ar 
     4    3    4 ar 
     5    4    5 ar 
     6    5    6 ar 
     7    6    7 1  
     8    7    8 1  
     9    8    9 1  
    10    8   16 1  
    11    9   10 ar 
    12    9   14 ar 
    13   10   11 ar 
    14   11   12 ar 
    15   12   13 ar 
    16   13   14 ar 
    17   14   15 1  
    18   15   16 2  
    19   16   17 1  
    20   17   18 ar 
    21   17   22 ar 
    22   18   19 ar 
    23   19   20 ar 
    24   20   21 ar 
    25   21   22 ar 
    26    1   23 1  
    27    2   24 1  
    28    3   25 1  
    29    4   26 1  
    30    5   27 1  
    31    7   28 1  
    32    7   29 1  
    33   10   30 1  
    34   11   31 1  
    35   12   32 1  
    36   13   33 1  
    37   18   34 1  
    38   19   35 1  
    39   20   36 1  
    40   21   37 1  
    41   22   38 1  
@<TRIPOS>SUBSTRUCTURE
     1 18F         1

