### 
### Created by X-TOOL on Mon Sep 10 21:13:15 2018
### 

@<TRIPOS>MOLECULE
4jv7_ligand
   50    53     1     0     0
SMALL
GAST_HUCK


@<TRIPOS>ATOM
      1 C3          4.6850  -33.5470    1.0860 C.ar      1 1MN        -0.0550
      2 C2          5.5010  -33.4470    2.1790 C.ar      1 1MN        -0.0589
      3 C1          6.6190  -32.6400    2.0390 C.ar      1 1MN         0.0056
      4 BR1         7.9080  -32.5810    3.3970 Br        1 1MN        -0.0561
      5 C4          6.8900  -31.9420    0.8610 C.ar      1 1MN        -0.0589
      6 C5          6.0400  -32.0560   -0.2580 C.ar      1 1MN        -0.0550
      7 C6          4.9120  -32.8900   -0.1430 C.ar      1 1MN        -0.0104
      8 C7          3.9890  -33.0780   -1.3550 C.3       1 1MN         0.1159
      9 N1          3.6770  -31.8270   -1.9150 N.am      1 1MN        -0.2546
     10 C8          2.7460  -30.9590   -1.1850 C.3       1 1MN         0.0255
     11 C9          4.2780  -31.4680   -3.0730 C.2       1 1MN         0.2121
     12 O1          4.0830  -30.3540   -3.5440 O.2       1 1MN        -0.3937
     13 C10         5.2740  -32.4550   -3.8400 C.3       1 1MN         0.1600
     14 C11         4.7170  -32.7330   -5.2730 C.3       1 1MN         0.0249
     15 C12         5.6980  -33.3860   -6.2350 C.ar      1 1MN        -0.0383
     16 C13         5.8930  -34.7890   -6.3840 C.ar      1 1MN        -0.0601
     17 C14         6.8310  -35.2740   -7.3280 C.ar      1 1MN        -0.0686
     18 C15         7.5680  -34.3800   -8.1160 C.ar      1 1MN        -0.0687
     19 C16         7.3750  -33.0060   -7.9670 C.ar      1 1MN        -0.0686
     20 C17         6.4580  -32.5180   -7.0440 C.ar      1 1MN        -0.0601
     21 O2          5.5070  -33.6210   -3.0610 O.3       1 1MN        -0.3336
     22 C18         4.3680  -34.1260   -2.3830 C.3       1 1MN         0.1304
     23 C19         4.8310  -35.4150   -1.7410 C.ar      1 1MN        -0.0071
     24 C20         3.8940  -36.3320   -1.2310 C.ar      1 1MN        -0.0548
     25 C21         4.3630  -37.5290   -0.6360 C.ar      1 1MN        -0.0589
     26 C22         5.7300  -37.7600   -0.5630 C.ar      1 1MN         0.0056
     27 BR2         6.2830  -39.2410    0.3890 Br        1 1MN        -0.0561
     28 C23         6.6850  -36.8780   -1.0700 C.ar      1 1MN        -0.0589
     29 C24         6.2150  -35.7080   -1.6540 C.ar      1 1MN        -0.0548
     30 H1          3.8041  -34.1732    1.1689 H         1 1MN         0.0565
     31 H2          5.2852  -33.9700    3.1037 H         1 1MN         0.0626
     32 H3          7.7649  -31.3044    0.8059 H         1 1MN         0.0626
     33 H4          6.2483  -31.5192   -1.1764 H         1 1MN         0.0565
     34 H5          3.0462  -33.4533   -0.9304 H         1 1MN         0.0778
     35 H6          2.6022  -30.0229   -1.7445 H         1 1MN         0.0488
     36 H7          3.1588  -30.7323   -0.1909 H         1 1MN         0.0488
     37 H8          1.7790  -31.4710   -1.0724 H         1 1MN         0.0488
     38 H9          6.2414  -31.9447   -3.9572 H         1 1MN         0.0866
     39 H10         4.4024  -31.7728   -5.7078 H         1 1MN         0.0477
     40 H11         3.8440  -33.3952   -5.1760 H         1 1MN         0.0477
     41 H12         5.3249  -35.4840   -5.7763 H         1 1MN         0.0557
     42 H13         6.9794  -36.3418   -7.4414 H         1 1MN         0.0599
     43 H14         8.2848  -34.7540   -8.8381 H         1 1MN         0.0559
     44 H15         7.9450  -32.3138   -8.5762 H         1 1MN         0.0599
     45 H16         6.3245  -31.4469   -6.9442 H         1 1MN         0.0557
     46 H17         3.5295  -34.3128   -3.0700 H         1 1MN         0.0816
     47 H18         2.8315  -36.1262   -1.2922 H         1 1MN         0.0565
     48 H19         3.6624  -38.2564   -0.2421 H         1 1MN         0.0626
     49 H20         7.7453  -37.0956   -1.0110 H         1 1MN         0.0626
     50 H21         6.9287  -34.9976   -2.0553 H         1 1MN         0.0565
@<TRIPOS>BOND
     1    1    2 ar 
     2    1    7 ar 
     3    2    3 ar 
     4    3    4 1  
     5    3    5 ar 
     6    5    6 ar 
     7    6    7 ar 
     8    7    8 1  
     9    8    9 1  
    10    8   22 1  
    11    9   10 1  
    12    9   11 am 
    13   11   12 2  
    14   11   13 1  
    15   13   14 1  
    16   13   21 1  
    17   14   15 1  
    18   15   16 ar 
    19   15   20 ar 
    20   16   17 ar 
    21   17   18 ar 
    22   18   19 ar 
    23   19   20 ar 
    24   21   22 1  
    25   22   23 1  
    26   23   24 ar 
    27   23   29 ar 
    28   24   25 ar 
    29   25   26 ar 
    30   26   27 1  
    31   26   28 ar 
    32   28   29 ar 
    33    1   30 1  
    34    2   31 1  
    35    5   32 1  
    36    6   33 1  
    37    8   34 1  
    38   10   35 1  
    39   10   36 1  
    40   10   37 1  
    41   13   38 1  
    42   14   39 1  
    43   14   40 1  
    44   16   41 1  
    45   17   42 1  
    46   18   43 1  
    47   19   44 1  
    48   20   45 1  
    49   22   46 1  
    50   24   47 1  
    51   25   48 1  
    52   28   49 1  
    53   29   50 1  
@<TRIPOS>SUBSTRUCTURE
     1 1MN         1

