### 
### Created by X-TOOL on Fri Sep 26 17:34:59 2014
### 

@<TRIPOS>MOLECULE
4jv8_ligand
   37    41     1     0     0
SMALL
GAST_HUCK


@<TRIPOS>ATOM
      1 CAS        23.4990   -8.5450  -15.9360 C.ar      1 1M1        -0.0274
      2 CAT        22.7650   -9.5290  -16.4750 C.ar      1 1M1        -0.0487
      3 CAU        23.0890  -10.8660  -16.4890 C.ar      1 1M1        -0.0410
      4 CAV        24.2050  -11.2500  -15.8690 C.ar      1 1M1         0.0030
      5 NAW        24.9670  -10.2790  -15.2320 N.ar      1 1M1        -0.2929
      6 CAR        24.6170   -8.9640  -15.2950 C.ar      1 1M1         0.0832
      7 CAQ        25.3790   -7.8380  -14.6190 C.3       1 1M1         0.1966
      8 NAE        24.7030   -7.4720  -13.3480 N.pl3     1 1M1        -0.2002
      9 CAD        23.4970   -6.8040  -13.1730 C.ar      1 1M1         0.0875
     10 CAI        22.6650   -6.1290  -14.1280 C.ar      1 1M1        -0.0398
     11 CAH        21.5000   -5.5560  -13.6380 C.ar      1 1M1        -0.0751
     12 CAG        21.1960   -5.6070  -12.2620 C.ar      1 1M1        -0.0769
     13 CAF        22.0390   -6.2890  -11.3410 C.ar      1 1M1        -0.0624
     14 CAC        23.1780   -6.9150  -11.8730 C.ar      1 1M1         0.0291
     15 NAB        24.1780   -7.5840  -11.1960 N.2       1 1M1        -0.3115
     16 CAA        25.0420   -8.0120  -12.1240 C.2       1 1M1         0.1402
     17 CAJ        26.2740   -8.6970  -11.9670 C.ar      1 1M1         0.0546
     18 CAK        26.6660   -9.1790  -10.6840 C.ar      1 1M1        -0.0543
     19 CAL        27.9500   -9.7470  -10.6140 C.ar      1 1M1        -0.0692
     20 CAM        28.8330   -9.8350  -11.7230 C.ar      1 1M1        -0.0689
     21 CAN        28.4190   -9.3060  -12.9210 C.ar      1 1M1        -0.0372
     22 CAO        27.1570   -8.6910  -13.0300 C.ar      1 1M1         0.0640
     23 NAP        26.7920   -8.1530  -14.3180 N.pl3     1 1M1        -0.2763
     24 H1         23.2209   -7.4997  -16.0071 H         1 1M1         0.0653
     25 H2         21.8295   -9.2448  -16.9432 H         1 1M1         0.0719
     26 H3         22.4542  -11.5875  -16.9905 H         1 1M1         0.0652
     27 H4         24.5091  -12.2905  -15.8622 H         1 1M1         0.0803
     28 H5         25.3618   -6.9701  -15.2946 H         1 1M1         0.1108
     29 H6         22.9326   -6.0699  -15.1768 H         1 1M1         0.0544
     30 H7         20.8163   -5.0639  -14.3203 H         1 1M1         0.0540
     31 H8         20.3007   -5.1160  -11.8981 H         1 1M1         0.0521
     32 H9         21.8134   -6.3237  -10.2813 H         1 1M1         0.0547
     33 H10        26.0164   -9.1119   -9.8188 H         1 1M1         0.0629
     34 H11        28.2848  -10.1396   -9.6607 H         1 1M1         0.0522
     35 H12        29.8047  -10.3057  -11.6268 H         1 1M1         0.0619
     36 H13        29.0676   -9.3623  -13.7877 H         1 1M1         0.0528
     37 H14        27.5178   -7.9879  -15.0299 H         1 1M1         0.1851
@<TRIPOS>BOND
     1    1    2 ar 
     2    1    6 ar 
     3    2    3 ar 
     4    3    4 ar 
     5    4    5 ar 
     6    5    6 ar 
     7    6    7 1  
     8    7    8 1  
     9    7   23 1  
    10    8    9 1  
    11    8   16 1  
    12    9   10 ar 
    13    9   14 ar 
    14   10   11 ar 
    15   11   12 ar 
    16   12   13 ar 
    17   13   14 ar 
    18   14   15 1  
    19   15   16 2  
    20   16   17 1  
    21   17   18 ar 
    22   17   22 ar 
    23   18   19 ar 
    24   19   20 ar 
    25   20   21 ar 
    26   21   22 ar 
    27   22   23 1  
    28    1   24 1  
    29    2   25 1  
    30    3   26 1  
    31    4   27 1  
    32    7   28 1  
    33   10   29 1  
    34   11   30 1  
    35   12   31 1  
    36   13   32 1  
    37   18   33 1  
    38   19   34 1  
    39   20   35 1  
    40   21   36 1  
    41   23   37 1  
@<TRIPOS>SUBSTRUCTURE
     1 1M1         1

