### 
### Created by X-TOOL on Mon Sep 10 21:13:15 2018
### 

@<TRIPOS>MOLECULE
4jv9_ligand
   50    53     1     0     0
SMALL
GAST_HUCK


@<TRIPOS>ATOM
      1 C3          4.6440  -33.5680    1.0790 C.ar      1 1MO        -0.0573
      2 C2          5.5310  -33.4550    2.1750 C.ar      1 1MO        -0.0545
      3 C1          6.6680  -32.6600    2.0640 C.ar      1 1MO         0.0330
      4 CL1         7.8140  -32.5990    3.3670 Cl        1 1MO        -0.0771
      5 C4          6.8980  -31.9670    0.8440 C.ar      1 1MO        -0.0545
      6 C5          6.0360  -32.0700   -0.2360 C.ar      1 1MO        -0.0573
      7 C6          4.9050  -32.8800   -0.1360 C.ar      1 1MO        -0.0130
      8 C7          3.9600  -33.0910   -1.3080 C.3       1 1MO         0.1144
      9 N1          3.6670  -31.8300   -1.9110 N.am      1 1MO        -0.2551
     10 C8          2.7270  -30.9560   -1.2050 C.3       1 1MO         0.0255
     11 C9          4.2810  -31.4550   -3.0990 C.2       1 1MO         0.2120
     12 O1          4.0740  -30.3440   -3.5840 O.2       1 1MO        -0.3937
     13 C10         5.2550  -32.4530   -3.8420 C.3       1 1MO         0.1599
     14 C11         4.7180  -32.7660   -5.2500 C.3       1 1MO         0.0249
     15 C12         5.7050  -33.3900   -6.2290 C.ar      1 1MO        -0.0383
     16 C13         5.8930  -34.7800   -6.3690 C.ar      1 1MO        -0.0601
     17 C14         6.8230  -35.2750   -7.3110 C.ar      1 1MO        -0.0686
     18 C15         7.5530  -34.3820   -8.1000 C.ar      1 1MO        -0.0687
     19 C16         7.3630  -33.0110   -7.9610 C.ar      1 1MO        -0.0686
     20 C17         6.4550  -32.5260   -7.0400 C.ar      1 1MO        -0.0601
     21 O2          5.4880  -33.6080   -3.0700 O.3       1 1MO        -0.3341
     22 C18         4.4010  -34.1430   -2.3850 C.3       1 1MO         0.1289
     23 C19         4.8330  -35.4320   -1.7880 C.ar      1 1MO        -0.0098
     24 C20         3.8930  -36.3510   -1.2610 C.ar      1 1MO        -0.0570
     25 C21         4.3520  -37.5240   -0.6290 C.ar      1 1MO        -0.0545
     26 C22         5.7430  -37.8030   -0.5140 C.ar      1 1MO         0.0330
     27 CL2         6.3040  -39.1850    0.3000 Cl        1 1MO        -0.0771
     28 C23         6.6590  -36.8810   -1.0550 C.ar      1 1MO        -0.0545
     29 C24         6.2200  -35.7100   -1.6890 C.ar      1 1MO        -0.0570
     30 H1          3.7572  -34.1851    1.1671 H         1 1MO         0.0558
     31 H2          5.3260  -33.9855    3.0978 H         1 1MO         0.0606
     32 H3          7.7762  -31.3377    0.7559 H         1 1MO         0.0606
     33 H4          6.2390  -31.5255   -1.1511 H         1 1MO         0.0558
     34 H5          3.0219  -33.4745   -0.8803 H         1 1MO         0.0772
     35 H6          2.5928  -30.0251   -1.7754 H         1 1MO         0.0488
     36 H7          3.1244  -30.7203   -0.2068 H         1 1MO         0.0488
     37 H8          1.7579  -31.4663   -1.1028 H         1 1MO         0.0488
     38 H9          6.2232  -31.9457   -3.9657 H         1 1MO         0.0866
     39 H10         4.3619  -31.8226   -5.6896 H         1 1MO         0.0477
     40 H11         3.8726  -33.4609   -5.1388 H         1 1MO         0.0477
     41 H12         5.3246  -35.4688   -5.7545 H         1 1MO         0.0557
     42 H13         6.9695  -36.3434   -7.4211 H         1 1MO         0.0599
     43 H14         8.2688  -34.7584   -8.8218 H         1 1MO         0.0559
     44 H15         7.9289  -32.3215   -8.5770 H         1 1MO         0.0599
     45 H16         6.3193  -31.4550   -6.9420 H         1 1MO         0.0557
     46 H17         3.5659  -34.3262   -3.0771 H         1 1MO         0.0810
     47 H18         2.8302  -36.1539   -1.3430 H         1 1MO         0.0558
     48 H19         3.6329  -38.2263   -0.2232 H         1 1MO         0.0606
     49 H20         7.7220  -37.0798   -0.9801 H         1 1MO         0.0606
     50 H21         6.9420  -35.0161   -2.1041 H         1 1MO         0.0558
@<TRIPOS>BOND
     1    1    2 ar 
     2    1    7 ar 
     3    2    3 ar 
     4    3    4 1  
     5    3    5 ar 
     6    5    6 ar 
     7    6    7 ar 
     8    7    8 1  
     9    8    9 1  
    10    8   22 1  
    11    9   10 1  
    12    9   11 am 
    13   11   12 2  
    14   11   13 1  
    15   13   14 1  
    16   13   21 1  
    17   14   15 1  
    18   15   16 ar 
    19   15   20 ar 
    20   16   17 ar 
    21   17   18 ar 
    22   18   19 ar 
    23   19   20 ar 
    24   21   22 1  
    25   22   23 1  
    26   23   24 ar 
    27   23   29 ar 
    28   24   25 ar 
    29   25   26 ar 
    30   26   27 1  
    31   26   28 ar 
    32   28   29 ar 
    33    1   30 1  
    34    2   31 1  
    35    5   32 1  
    36    6   33 1  
    37    8   34 1  
    38   10   35 1  
    39   10   36 1  
    40   10   37 1  
    41   13   38 1  
    42   14   39 1  
    43   14   40 1  
    44   16   41 1  
    45   17   42 1  
    46   18   43 1  
    47   19   44 1  
    48   20   45 1  
    49   22   46 1  
    50   24   47 1  
    51   25   48 1  
    52   28   49 1  
    53   29   50 1  
@<TRIPOS>SUBSTRUCTURE
     1 1MO         1

