### 
### Created by X-TOOL on Mon Sep 10 21:13:14 2018
### 

@<TRIPOS>MOLECULE
4jvb_ligand
   77    83     1     0     0
SMALL
GAST_HUCK


@<TRIPOS>ATOM
      1 CBK        24.6040   -8.6720  -16.3760 C.ar      1 1M0        -0.0578
      2 CBL        23.9030   -9.7190  -16.9840 C.ar      1 1M0        -0.0685
      3 CBM        23.3590  -10.8250  -16.3100 C.ar      1 1M0        -0.0687
      4 CBN        23.5910  -10.8230  -14.9100 C.ar      1 1M0        -0.0685
      5 CBO        24.2460   -9.7200  -14.3190 C.ar      1 1M0        -0.0578
      6 CBI        24.7630   -8.6550  -14.9910 C.ar      1 1M0        -0.0143
      7 CBH        25.5080   -7.5510  -14.3680 C.3       1 1M0         0.0889
      8 NBC        25.5820   -7.8320  -12.8900 N.pl3     1 1M0        -0.2252
      9 CBB        26.6060   -8.5470  -12.3020 C.ar      1 1M0         0.0855
     10 CBG        27.7650   -9.0690  -12.7880 C.ar      1 1M0        -0.0396
     11 CBF        28.6870   -9.7380  -11.9300 C.ar      1 1M0        -0.0748
     12 CBE        28.3050   -9.8340  -10.5680 C.ar      1 1M0        -0.0766
     13 CBD        27.1010   -9.2580  -10.0870 C.ar      1 1M0        -0.0619
     14 CBA        26.2760   -8.6350  -10.9590 C.ar      1 1M0         0.0302
     15 NAZ        25.0780   -7.9920  -10.7420 N.2       1 1M0        -0.3096
     16 CAY        24.6400   -7.5300  -11.9210 C.2       1 1M0         0.1376
     17 CAV        23.4970   -6.8380  -12.1980 C.ar      1 1M0         0.0248
     18 CAU        22.2260   -7.3530  -12.4840 C.ar      1 1M0        -0.0514
     19 CAT        21.1740   -6.4220  -12.8330 C.ar      1 1M0        -0.0262
     20 CAW        23.6350   -5.4660  -12.2620 C.ar      1 1M0        -0.0514
     21 CAX        22.6380   -4.5610  -12.5580 C.ar      1 1M0        -0.0262
     22 CAS        21.3910   -5.0240  -12.8700 C.ar      1 1M0         0.0978
     23 OAR        20.5910   -3.9290  -13.2210 O.3       1 1M0        -0.3108
     24 CAQ        19.2330   -3.6680  -13.3040 C.3       1 1M0         0.1012
     25 CAJ        18.5530   -3.8570  -14.6740 C.3       1 1M0         0.0945
     26 CBJ        17.0570   -3.5260  -14.4440 C.3       1 1M0        -0.0212
     27 CBP        16.8400   -2.4410  -13.3660 C.3       1 1M0        -0.0531
     28 CBQ        15.9270   -2.9940  -12.2480 C.3       1 1M0        -0.0652
     29 NAI        19.0160   -3.1840  -16.0240 N.pl3     1 1M0        -0.2292
     30 CAE        19.0530   -1.9210  -16.5500 C.ar      1 1M0         0.0855
     31 CAF        18.8040   -0.6970  -16.0530 C.ar      1 1M0        -0.0389
     32 CAA        18.9330    0.4730  -16.8150 C.ar      1 1M0        -0.0741
     33 CAB        19.3870    0.4210  -18.1490 C.ar      1 1M0        -0.0758
     34 CAC        19.6790   -0.8840  -18.6010 C.ar      1 1M0        -0.0607
     35 CAD        19.5070   -1.9980  -17.8390 C.ar      1 1M0         0.0336
     36 NAG        19.7330   -3.3000  -18.1020 N.2       1 1M0        -0.3038
     37 CAH        19.3850   -3.9970  -17.0300 C.2       1 1M0         0.1439
     38 CAK        19.5420   -5.3160  -16.9070 C.ar      1 1M0         0.0347
     39 CAL        20.7480   -5.7280  -16.3580 C.ar      1 1M0        -0.0441
     40 CAM        21.0590   -7.0680  -16.1560 C.ar      1 1M0        -0.0567
     41 CAN        20.1240   -8.0080  -16.5140 C.ar      1 1M0        -0.0580
     42 CAO        18.9150   -7.6020  -17.0600 C.ar      1 1M0        -0.0567
     43 CAP        18.6130   -6.2580  -17.2580 C.ar      1 1M0        -0.0441
     44 H1         25.0227   -7.8756  -16.9805 H         1 1M0         0.0557
     45 H2         23.7692   -9.6732  -18.0587 H         1 1M0         0.0599
     46 H3         22.8099  -11.6113  -16.8152 H         1 1M0         0.0559
     47 H4         23.2688  -11.6594  -14.3004 H         1 1M0         0.0599
     48 H5         24.3454   -9.7217  -13.2396 H         1 1M0         0.0557
     49 H6         24.9855   -6.5991  -14.5436 H         1 1M0         0.0764
     50 H7         26.5219   -7.4962  -14.7911 H         1 1M0         0.0764
     51 H8         27.9910   -8.9748  -13.8440 H         1 1M0         0.0545
     52 H9         29.6215  -10.1475  -12.2963 H         1 1M0         0.0542
     53 H10        28.9505  -10.3619   -9.8753 H         1 1M0         0.0522
     54 H11        26.8458   -9.3164   -9.0351 H         1 1M0         0.0549
     55 H12        22.0355   -8.4194  -12.4450 H         1 1M0         0.0641
     56 H13        20.1898   -6.8074  -13.0734 H         1 1M0         0.0560
     57 H14        24.6205   -5.0620  -12.0605 H         1 1M0         0.0641
     58 H15        22.8407   -3.4962  -12.5434 H         1 1M0         0.0560
     59 H16        19.0799   -2.6214  -13.0021 H         1 1M0         0.0647
     60 H17        18.7256   -4.3335  -12.5901 H         1 1M0         0.0647
     61 H18        18.6338   -4.9355  -14.8747 H         1 1M0         0.0664
     62 H19        16.5392   -4.4435  -14.1277 H         1 1M0         0.0294
     63 H20        16.6266   -3.1701  -15.3917 H         1 1M0         0.0294
     64 H21        16.3655   -1.5604  -13.8236 H         1 1M0         0.0264
     65 H22        17.8108   -2.1528  -12.9364 H         1 1M0         0.0264
     66 H23        15.7746   -2.2191  -11.4823 H         1 1M0         0.0230
     67 H24        16.4009   -3.8744  -11.7894 H         1 1M0         0.0230
     68 H25        14.9557   -3.2820  -12.6766 H         1 1M0         0.0230
     69 H26        18.4901   -0.6108  -15.0190 H         1 1M0         0.0548
     70 H27        18.6804    1.4299  -16.3728 H         1 1M0         0.0547
     71 H28        19.5012    1.3020  -18.7702 H         1 1M0         0.0525
     72 H29        20.0604   -1.0050  -19.6084 H         1 1M0         0.0555
     73 H30        21.4759   -4.9759  -16.0757 H         1 1M0         0.0663
     74 H31        22.0109   -7.3619  -15.7288 H         1 1M0         0.0628
     75 H32        20.3297   -9.0626  -16.3706 H         1 1M0         0.0649
     76 H33        18.1850   -8.3528  -17.3403 H         1 1M0         0.0628
     77 H34        17.6601   -5.9627  -17.6822 H         1 1M0         0.0663
@<TRIPOS>BOND
     1    1    2 ar 
     2    1    6 ar 
     3    2    3 ar 
     4    3    4 ar 
     5    4    5 ar 
     6    5    6 ar 
     7    6    7 1  
     8    7    8 1  
     9    8    9 1  
    10    8   16 1  
    11    9   10 ar 
    12    9   14 ar 
    13   10   11 ar 
    14   11   12 ar 
    15   12   13 ar 
    16   13   14 ar 
    17   14   15 1  
    18   15   16 2  
    19   16   17 1  
    20   17   18 ar 
    21   17   20 ar 
    22   18   19 ar 
    23   19   22 ar 
    24   20   21 ar 
    25   21   22 ar 
    26   22   23 1  
    27   23   24 1  
    28   24   25 1  
    29   25   26 1  
    30   25   29 1  
    31   26   27 1  
    32   27   28 1  
    33   29   30 1  
    34   29   37 1  
    35   30   31 ar 
    36   30   35 ar 
    37   31   32 ar 
    38   32   33 ar 
    39   33   34 ar 
    40   34   35 ar 
    41   35   36 1  
    42   36   37 2  
    43   37   38 1  
    44   38   39 ar 
    45   38   43 ar 
    46   39   40 ar 
    47   40   41 ar 
    48   41   42 ar 
    49   42   43 ar 
    50    1   44 1  
    51    2   45 1  
    52    3   46 1  
    53    4   47 1  
    54    5   48 1  
    55    7   49 1  
    56    7   50 1  
    57   10   51 1  
    58   11   52 1  
    59   12   53 1  
    60   13   54 1  
    61   18   55 1  
    62   19   56 1  
    63   20   57 1  
    64   21   58 1  
    65   24   59 1  
    66   24   60 1  
    67   25   61 1  
    68   26   62 1  
    69   26   63 1  
    70   27   64 1  
    71   27   65 1  
    72   28   66 1  
    73   28   67 1  
    74   28   68 1  
    75   31   69 1  
    76   32   70 1  
    77   33   71 1  
    78   34   72 1  
    79   39   73 1  
    80   40   74 1  
    81   41   75 1  
    82   42   76 1  
    83   43   77 1  
@<TRIPOS>SUBSTRUCTURE
     1 1M0         1

