### 
### Created by X-TOOL on Mon Sep 10 21:13:16 2018
### 

@<TRIPOS>MOLECULE
4jve_ligand
   61    64     1     0     0
SMALL
GAST_HUCK


@<TRIPOS>ATOM
      1 C3          5.2620  -12.9850   57.1290 C.ar      1 1MQ        -0.0573
      2 C2          6.5980  -13.2650   57.3210 C.ar      1 1MQ        -0.0545
      3 C1          7.4190  -13.4690   56.2100 C.ar      1 1MQ         0.0330
      4 CL1         9.0850  -13.7550   56.5450 Cl        1 1MQ        -0.0771
      5 C4          6.9520  -13.4120   54.8920 C.ar      1 1MQ        -0.0545
      6 C5          5.6040  -13.1270   54.7220 C.ar      1 1MQ        -0.0573
      7 C6          4.7540  -12.9110   55.8300 C.ar      1 1MQ        -0.0129
      8 C7          3.2900  -12.5750   55.7250 C.3       1 1MQ         0.1168
      9 N1          3.0980  -11.4210   54.8720 N.am      1 1MQ        -0.2361
     10 C8          3.3850  -10.0370   55.3250 C.3       1 1MQ         0.0997
     11 C9          2.6320  -11.6020   53.5890 C.2       1 1MQ         0.2139
     12 O1          2.3120  -10.6300   52.9050 O.2       1 1MQ        -0.3935
     13 C10         2.4920  -13.0140   52.9690 C.3       1 1MQ         0.1595
     14 C11         1.0710  -13.1040   52.3110 C.3       1 1MQ         0.0231
     15 C12         0.6140  -14.5070   52.0270 C.ar      1 1MQ        -0.0421
     16 C13        -0.1700  -15.2150   52.9450 C.ar      1 1MQ        -0.0618
     17 C14        -0.5790  -16.5280   52.6600 C.ar      1 1MQ        -0.0349
     18 C15        -0.1900  -17.1180   51.4420 C.ar      1 1MQ         0.1248
     19 C16         0.5960  -16.4040   50.5280 C.ar      1 1MQ        -0.0349
     20 C17         0.9940  -15.1030   50.8200 C.ar      1 1MQ        -0.0618
     21 O2          2.8120  -14.0540   53.8460 O.3       1 1MQ        -0.3341
     22 C18         2.4410  -13.7720   55.1840 C.3       1 1MQ         0.1290
     23 C19         2.5060  -14.9690   56.0850 C.ar      1 1MQ        -0.0098
     24 C20         1.8930  -14.9030   57.3460 C.ar      1 1MQ        -0.0570
     25 C21         1.9870  -15.9830   58.2480 C.ar      1 1MQ        -0.0545
     26 C22         2.7160  -17.1250   57.8350 C.ar      1 1MQ         0.0330
     27 CL2         2.9550  -18.5930   58.8080 Cl        1 1MQ        -0.0771
     28 C23         3.3260  -17.2080   56.5860 C.ar      1 1MQ        -0.0545
     29 C24         3.2150  -16.1250   55.7130 C.ar      1 1MQ        -0.0570
     30 C25         4.5540   -9.7770   56.3380 C.3       1 1MQ        -0.0178
     31 C26         2.0880   -9.5840   55.9560 C.2       1 1MQ         0.0605
     32 O3          1.2730   -8.8430   55.4600 O.co2     1 1MQ        -0.5666
     33 O4          1.9270  -10.1050   57.1880 O.co2     1 1MQ        -0.5666
     34 C27         5.7390   -8.8670   55.9160 C.3       1 1MQ        -0.0523
     35 C28         6.8540   -8.6990   56.9800 C.3       1 1MQ        -0.0651
     36 F1         -0.5500  -18.3770   51.1080 F         1 1MQ        -0.1893
     37 H1          4.6103  -12.8234   57.9800 H         1 1MQ         0.0558
     38 H2          7.0067  -13.3261   58.3231 H         1 1MQ         0.0606
     39 H3          7.6093  -13.5817   54.0469 H         1 1MQ         0.0606
     40 H4          5.1954  -13.0690   53.7196 H         1 1MQ         0.0558
     41 H5          2.9267  -12.3274   56.7333 H         1 1MQ         0.0774
     42 H6          3.5989   -9.4316   54.4318 H         1 1MQ         0.0730
     43 H7          3.2252  -13.0815   52.1518 H         1 1MQ         0.0865
     44 H8          1.0943  -12.5495   51.3613 H         1 1MQ         0.0469
     45 H9          0.3449  -12.6354   52.9915 H         1 1MQ         0.0469
     46 H10        -0.4624  -14.7486   53.8788 H         1 1MQ         0.0547
     47 H11        -1.1862  -17.0800   53.3683 H         1 1MQ         0.0587
     48 H12         0.8941  -16.8651   49.5933 H         1 1MQ         0.0587
     49 H13         1.5996  -14.5504   50.1108 H         1 1MQ         0.0547
     50 H14         1.3901  -13.4476   55.1673 H         1 1MQ         0.0810
     51 H15         1.3421  -14.0134   57.6292 H         1 1MQ         0.0558
     52 H16         1.5174  -15.9406   59.2241 H         1 1MQ         0.0606
     53 H17         3.8762  -18.0963   56.2975 H         1 1MQ         0.0606
     54 H18         3.6812  -16.1755   54.7357 H         1 1MQ         0.0558
     55 H19         4.9793  -10.7582   56.5955 H         1 1MQ         0.0305
     56 H20         4.1062   -9.3246   57.2351 H         1 1MQ         0.0305
     57 H21         5.3366   -7.8698   55.6845 H         1 1MQ         0.0264
     58 H22         6.1937   -9.2979   55.0118 H         1 1MQ         0.0264
     59 H23         7.6415   -8.0403   56.5850 H         1 1MQ         0.0230
     60 H24         7.2844   -9.6828   57.2186 H         1 1MQ         0.0230
     61 H25         6.4273   -8.2547   57.8913 H         1 1MQ         0.0230
@<TRIPOS>BOND
     1    1    2 ar 
     2    1    7 ar 
     3    2    3 ar 
     4    3    4 1  
     5    3    5 ar 
     6    5    6 ar 
     7    6    7 ar 
     8    7    8 1  
     9    8    9 1  
    10    8   22 1  
    11    9   10 1  
    12    9   11 am 
    13   10   30 1  
    14   10   31 1  
    15   11   12 2  
    16   11   13 1  
    17   13   14 1  
    18   13   21 1  
    19   14   15 1  
    20   15   16 ar 
    21   15   20 ar 
    22   16   17 ar 
    23   17   18 ar 
    24   18   19 ar 
    25   18   36 1  
    26   19   20 ar 
    27   21   22 1  
    28   22   23 1  
    29   23   24 ar 
    30   23   29 ar 
    31   24   25 ar 
    32   25   26 ar 
    33   26   27 1  
    34   26   28 ar 
    35   28   29 ar 
    36   30   34 1  
    37   31   32 ar 
    38   31   33 ar 
    39   34   35 1  
    40    1   37 1  
    41    2   38 1  
    42    5   39 1  
    43    6   40 1  
    44    8   41 1  
    45   10   42 1  
    46   13   43 1  
    47   14   44 1  
    48   14   45 1  
    49   16   46 1  
    50   17   47 1  
    51   19   48 1  
    52   20   49 1  
    53   22   50 1  
    54   24   51 1  
    55   25   52 1  
    56   28   53 1  
    57   29   54 1  
    58   30   55 1  
    59   30   56 1  
    60   34   57 1  
    61   34   58 1  
    62   35   59 1  
    63   35   60 1  
    64   35   61 1  
@<TRIPOS>SUBSTRUCTURE
     1 1MQ         1

