### 
### Created by X-TOOL on Mon Sep 10 21:13:15 2018
### 

@<TRIPOS>MOLECULE
4jvi_ligand
   47    48     1     0     0
SMALL
GAST_HUCK


@<TRIPOS>ATOM
      1 CAA       -40.7710   53.4920    7.1100 C.3       1 QZN        -0.0653
      2 CAH       -39.7020   54.3530    7.7590 C.3       1 QZN        -0.0559
      3 CAI       -38.5730   53.4950    8.3000 C.3       1 QZN        -0.0533
      4 CAJ       -37.4700   54.4480    8.6420 C.3       1 QZN        -0.0531
      5 CAK       -37.3420   54.4680   10.1410 C.3       1 QZN        -0.0531
      6 CAL       -35.9100   54.1830   10.4840 C.3       1 QZN        -0.0529
      7 CAM       -35.4240   55.2270   11.4640 C.3       1 QZN        -0.0502
      8 CAN       -34.4650   56.1820   10.7400 C.3       1 QZN        -0.0326
      9 CAO       -33.0150   56.0090   11.2250 C.3       1 QZN         0.0438
     10 CAR       -32.1900   56.7270   10.2020 C.2       1 QZN         0.1890
     11 NAP       -32.1870   58.0450   10.3220 N.2       1 QZN        -0.3039
     12 CAT       -31.5060   58.7960    9.4450 C.ar      1 QZN         0.0133
     13 CAG       -31.5170   60.1700    9.5980 C.ar      1 QZN        -0.0399
     14 CAQ       -30.8300   60.9930    8.7000 C.ar      1 QZN         0.0361
     15 CL        -30.8830   62.7460    8.8870 Cl        1 QZN        -0.0693
     16 CAE       -30.1220   60.4020    7.6610 C.ar      1 QZN        -0.0514
     17 CAF       -30.1050   59.0220    7.4850 C.ar      1 QZN        -0.0497
     18 CAU       -30.7960   58.2230    8.3820 C.ar      1 QZN         0.0649
     19 CAS       -30.8050   56.8460    8.2270 C.2       1 QZN         0.2787
     20 OAC       -30.2020   56.3030    7.3150 O.2       1 QZN        -0.3803
     21 NAV       -31.4920   56.0680    9.1380 N.am      1 QZN        -0.1440
     22 NAB       -31.4500   54.8410    8.9770 N.4       1 QZN         0.3930
     23 H1        -41.5768   54.1351    6.7264 H         1 QZN         0.0230
     24 H2        -41.1818   52.7942    7.8545 H         1 QZN         0.0230
     25 H3        -40.3289   52.9230    6.2789 H         1 QZN         0.0230
     26 H4        -40.1507   54.9220    8.5866 H         1 QZN         0.0263
     27 H5        -39.2978   55.0508    7.0109 H         1 QZN         0.0263
     28 H6        -38.2371   52.7771    7.5373 H         1 QZN         0.0265
     29 H7        -38.9012   52.9500    9.1973 H         1 QZN         0.0265
     30 H8        -37.7145   55.4546    8.2720 H         1 QZN         0.0265
     31 H9        -36.5266   54.1098    8.1885 H         1 QZN         0.0265
     32 H10       -37.9925   53.6984   10.5822 H         1 QZN         0.0265
     33 H11       -37.6295   55.4568   10.5277 H         1 QZN         0.0265
     34 H12       -35.2973   54.2198    9.5712 H         1 QZN         0.0265
     35 H13       -35.8309   53.1845   10.9387 H         1 QZN         0.0265
     36 H14       -34.8976   54.7358   12.2956 H         1 QZN         0.0267
     37 H15       -36.2819   55.7928   11.8562 H         1 QZN         0.0267
     38 H16       -34.7830   57.2178   10.9295 H         1 QZN         0.0300
     39 H17       -34.5063   55.9775    9.6600 H         1 QZN         0.0300
     40 H18       -32.7431   54.9439   11.2661 H         1 QZN         0.0566
     41 H19       -32.8809   56.4603   12.2191 H         1 QZN         0.0566
     42 H20       -32.0636   60.6138   10.4222 H         1 QZN         0.0559
     43 H21       -29.5701   61.0306    6.9715 H         1 QZN         0.0559
     44 H22       -29.5599   58.5788    6.6594 H         1 QZN         0.0643
     45 H23       -31.9862   54.3886    9.7008 H         1 QZN         0.2332
     46 H24       -30.4927   54.5286    9.0230 H         1 QZN         0.2332
     47 H25       -31.8369   54.6069    8.0762 H         1 QZN         0.2332
@<TRIPOS>BOND
     1    1    2 1  
     2    2    3 1  
     3    3    4 1  
     4    4    5 1  
     5    5    6 1  
     6    6    7 1  
     7    7    8 1  
     8    8    9 1  
     9    9   10 1  
    10   10   11 2  
    11   10   21 1  
    12   11   12 1  
    13   12   13 ar 
    14   12   18 ar 
    15   13   14 ar 
    16   14   15 1  
    17   14   16 ar 
    18   16   17 ar 
    19   17   18 ar 
    20   18   19 1  
    21   19   20 2  
    22   19   21 am 
    23   21   22 1  
    24    1   23 1  
    25    1   24 1  
    26    1   25 1  
    27    2   26 1  
    28    2   27 1  
    29    3   28 1  
    30    3   29 1  
    31    4   30 1  
    32    4   31 1  
    33    5   32 1  
    34    5   33 1  
    35    6   34 1  
    36    6   35 1  
    37    7   36 1  
    38    7   37 1  
    39    8   38 1  
    40    8   39 1  
    41    9   40 1  
    42    9   41 1  
    43   13   42 1  
    44   16   43 1  
    45   17   44 1  
    46   22   45 1  
    47   22   46 1  
    48   22   47 1  
@<TRIPOS>SUBSTRUCTURE
     1 QZN         1

