### 
### Created by X-TOOL on Mon Sep 10 21:13:18 2018
### 

@<TRIPOS>MOLECULE
4jvq_ligand
   75    78     1     0     0
SMALL
GAST_HUCK


@<TRIPOS>ATOM
      1 C01       -22.8910   49.0130   56.4120 C.ar      1 1ML         0.0236
      2 C02       -21.7980   49.5550   55.6760 C.ar      1 1ML        -0.0276
      3 C03       -21.4260   50.9070   55.7650 C.ar      1 1ML         0.1010
      4 C04       -22.1560   51.7870   56.6250 C.ar      1 1ML        -0.0388
      5 C05       -23.2510   51.2910   57.3710 C.ar      1 1ML        -0.0437
      6 C06       -23.6410   49.9050   57.2870 C.ar      1 1ML         0.0746
      7 O07       -20.3370   51.2550   54.9770 O.3       1 1ML        -0.2760
      8 C08       -19.8910   52.5590   54.8220 C.ar      1 1ML         0.0976
      9 C09       -18.7170   53.0380   55.4610 C.ar      1 1ML        -0.0417
     10 C10       -18.2830   54.3760   55.2540 C.ar      1 1ML        -0.0482
     11 C11       -19.0150   55.2530   54.4100 C.ar      1 1ML         0.0558
     12 C12       -20.1990   54.7560   53.7780 C.ar      1 1ML        -0.0482
     13 C13       -20.6410   53.4260   53.9760 C.ar      1 1ML        -0.0417
     14 C14       -23.1640   47.5400   56.2080 C.2       1 1ML         0.0526
     15 O15       -22.1720   46.8320   55.8220 O.co2     1 1ML        -0.5657
     16 O16       -24.3320   47.1180   56.4230 O.co2     1 1ML        -0.5657
     17 N17       -24.7930   49.5040   58.0980 N.am      1 1ML        -0.2198
     18 C18       -24.6140   49.1280   59.5590 C.3       1 1ML         0.0599
     19 C19       -23.5130   48.0830   59.8040 C.3       1 1ML        -0.0371
     20 C20       -24.3260   50.3220   60.5060 C.3       1 1ML        -0.0371
     21 C21       -26.1300   49.4630   57.5630 C.2       1 1ML         0.2081
     22 C23       -26.3580   49.8530   56.0650 C.3       1 1ML         0.0545
     23 O22       -27.1100   49.1270   58.2630 O.2       1 1ML        -0.3850
     24 C24       -27.3000   48.8350   55.3480 C.3       1 1ML        -0.0325
     25 C25       -27.5860   49.2580   53.8940 C.3       1 1ML        -0.0481
     26 C26       -28.1370   50.7050   53.8230 C.3       1 1ML        -0.0436
     27 C27       -27.1850   51.7140   54.5260 C.3       1 1ML        -0.0481
     28 C28       -26.9010   51.3040   55.9830 C.3       1 1ML        -0.0325
     29 C29       -28.3700   51.1110   52.3680 C.3       1 1ML        -0.0624
     30 N30       -18.6250   56.5830   54.1310 N.am      1 1ML        -0.2406
     31 C31       -19.3750   57.6570   53.6870 C.2       1 1ML         0.2216
     32 O32       -20.5800   57.6880   53.4400 O.2       1 1ML        -0.3796
     33 C33       -18.5620   58.8930   53.4720 C.ar      1 1ML         0.0440
     34 C34       -17.5340   59.2900   54.3730 C.ar      1 1ML        -0.0500
     35 C35       -16.7770   60.4640   54.1120 C.ar      1 1ML        -0.0269
     36 C36       -17.0350   61.2610   52.9510 C.ar      1 1ML         0.0962
     37 C37       -18.0680   60.8580   52.0550 C.ar      1 1ML        -0.0269
     38 C38       -18.8220   59.6820   52.3220 C.ar      1 1ML        -0.0500
     39 O39       -16.2190   62.3620   52.8120 O.3       1 1ML        -0.3178
     40 C40       -16.7370   63.6420   53.1490 C.3       1 1ML         0.0607
     41 H         -21.2325   48.9000   55.0232 H         1 1ML         0.0545
     42 H         -21.8712   52.8299   56.7047 H         1 1ML         0.0538
     43 H         -23.8055   51.9632   58.0158 H         1 1ML         0.0489
     44 H         -18.1491   52.3807   56.1095 H         1 1ML         0.0515
     45 H         -17.3841   54.7305   55.7454 H         1 1ML         0.0480
     46 H         -20.7705   55.4133   53.1327 H         1 1ML         0.0480
     47 H         -21.5416   53.0704   53.4886 H         1 1ML         0.0515
     48 H         -25.5684   48.6823   59.8758 H         1 1ML         0.0615
     49 H         -23.4465   47.8659   60.8803 H         1 1ML         0.0256
     50 H         -22.5489   48.4760   59.4490 H         1 1ML         0.0256
     51 H         -23.7560   47.1595   59.2581 H         1 1ML         0.0256
     52 H         -24.2121   49.9537   61.5362 H         1 1ML         0.0256
     53 H         -25.1624   51.0350   60.4619 H         1 1ML         0.0256
     54 H         -23.3992   50.8241   60.1916 H         1 1ML         0.0256
     55 H         -25.3851   49.8248   55.5524 H         1 1ML         0.0543
     56 H         -28.2511   48.7796   55.8978 H         1 1ML         0.0292
     57 H         -26.8202   47.8452   55.3445 H         1 1ML         0.0292
     58 H         -28.3280   48.5711   53.4609 H         1 1ML         0.0269
     59 H         -26.6525   49.2019   53.3149 H         1 1ML         0.0269
     60 H         -29.1041   50.7282   54.3467 H         1 1ML         0.0298
     61 H         -27.6525   52.7097   54.5200 H         1 1ML         0.0269
     62 H         -26.2343   51.7519   53.9740 H         1 1ML         0.0269
     63 H         -26.1547   51.9905   56.4093 H         1 1ML         0.0292
     64 H         -27.8338   51.3708   56.5622 H         1 1ML         0.0292
     65 H         -29.0446   50.3864   51.8887 H         1 1ML         0.0232
     66 H         -27.4089   51.1265   51.8332 H         1 1ML         0.0232
     67 H         -28.8242   52.1123   52.3349 H         1 1ML         0.0232
     68 H         -17.6552   56.7777   54.2776 H         1 1ML         0.2216
     69 H         -17.3288   58.6975   55.2572 H         1 1ML         0.0642
     70 H         -15.9941   60.7599   54.8009 H         1 1ML         0.0556
     71 H         -18.2788   61.4478   51.1703 H         1 1ML         0.0556
     72 H         -19.6071   59.3841   51.6365 H         1 1ML         0.0642
     73 H         -15.9635   64.4061   52.9821 H         1 1ML         0.0580
     74 H         -17.0371   63.6491   54.2072 H         1 1ML         0.0580
     75 H         -17.6112   63.8614   52.5184 H         1 1ML         0.0580
@<TRIPOS>BOND
     1    1    2 ar 
     2    1    6 ar 
     3    1   14 1  
     4    2    3 ar 
     5    3    4 ar 
     6    3    7 1  
     7    4    5 ar 
     8    5    6 ar 
     9    6   17 1  
    10    7    8 1  
    11    8    9 ar 
    12    8   13 ar 
    13    9   10 ar 
    14   10   11 ar 
    15   11   12 ar 
    16   11   30 1  
    17   12   13 ar 
    18   14   15 ar 
    19   14   16 ar 
    20   17   18 1  
    21   17   21 am 
    22   18   19 1  
    23   18   20 1  
    24   21   22 1  
    25   21   23 2  
    26   22   24 1  
    27   22   28 1  
    28   24   25 1  
    29   25   26 1  
    30   26   27 1  
    31   26   29 1  
    32   27   28 1  
    33   30   31 am 
    34   31   32 2  
    35   31   33 1  
    36   33   34 ar 
    37   33   38 ar 
    38   34   35 ar 
    39   35   36 ar 
    40   36   37 ar 
    41   36   39 1  
    42   37   38 ar 
    43   39   40 1  
    44    2   41 1  
    45    4   42 1  
    46    5   43 1  
    47    9   44 1  
    48   10   45 1  
    49   12   46 1  
    50   13   47 1  
    51   18   48 1  
    52   19   49 1  
    53   19   50 1  
    54   19   51 1  
    55   20   52 1  
    56   20   53 1  
    57   20   54 1  
    58   22   55 1  
    59   24   56 1  
    60   24   57 1  
    61   25   58 1  
    62   25   59 1  
    63   26   60 1  
    64   27   61 1  
    65   27   62 1  
    66   28   63 1  
    67   28   64 1  
    68   29   65 1  
    69   29   66 1  
    70   29   67 1  
    71   30   68 1  
    72   34   69 1  
    73   35   70 1  
    74   37   71 1  
    75   38   72 1  
    76   40   73 1  
    77   40   74 1  
    78   40   75 1  
@<TRIPOS>SUBSTRUCTURE
     1 1ML         1

