### 
### Created by X-TOOL on Mon Sep 10 21:13:13 2018
### 

@<TRIPOS>MOLECULE
4jwk_ligand
   31    32     1     0     0
SMALL
GAST_HUCK


@<TRIPOS>ATOM
      1 O5'        -1.0750   12.3730   25.3260 O.3       1 CTN        -0.3924
      2 C5'        -0.5530   13.6980   25.5890 C.3       1 CTN         0.0730
      3 C4'        -0.0030   13.7640   27.0110 C.3       1 CTN         0.1134
      4 O4'         1.1770   14.5570   27.2290 O.3       1 CTN        -0.3380
      5 C1'         1.3810   14.5620   28.6540 C.3       1 CTN         0.1988
      6 N1          1.9470   15.7830   29.2660 N.am      1 CTN        -0.1787
      7 C6          2.4740   15.6380   30.4950 C.2       1 CTN         0.0347
      8 C5          3.0270   16.7060   31.1910 C.2       1 CTN         0.0021
      9 C4          3.0350   17.9630   30.6030 C.cat     1 CTN         0.2477
     10 N3          2.4990   18.1300   29.3670 N.am      1 CTN        -0.1994
     11 C2          1.9550   17.0860   28.6760 C.2       1 CTN         0.3024
     12 O2          1.4840   17.3100   27.5370 O.2       1 CTN        -0.3877
     13 N4          3.5790   19.0090   31.2800 N.pl3     1 CTN        -0.2260
     14 C2'        -0.0100   14.3050   29.2340 C.3       1 CTN         0.1370
     15 O2'         0.0120   13.0300   29.8930 O.3       1 CTN        -0.3838
     16 C3'        -0.9510   14.2910   28.0440 C.3       1 CTN         0.1144
     17 O3'        -2.0440   13.3870   28.1980 O.3       1 CTN        -0.3864
     18 H1         -0.3786   11.7343   25.4240 H         1 CTN         0.2095
     19 H2         -1.3593   14.4375   25.4747 H         1 CTN         0.0584
     20 H3          0.2533   13.9212   24.8749 H         1 CTN         0.0584
     21 H4          0.2421   12.7243   27.2736 H         1 CTN         0.0647
     22 H5          2.0531   13.7289   28.9074 H         1 CTN         0.0976
     23 H6          2.4671   14.6528   30.9591 H         1 CTN         0.0999
     24 H7          3.4484   16.5586   32.1843 H         1 CTN         0.0163
     25 H8          2.5028   19.0401   28.9526 H         1 CTN         0.1927
     26 H9          3.9810   18.8629   32.2170 H         1 CTN         0.4596
     27 H10         3.5891   19.9476   30.8559 H         1 CTN         0.4596
     28 H11        -0.2973   15.0934   29.9452 H         1 CTN         0.0674
     29 H12        -0.8450   12.8504   30.2614 H         1 CTN         0.2101
     30 H13        -1.3276   15.2963   27.8042 H         1 CTN         0.0648
     31 H14        -1.7103   12.5045   28.3095 H         1 CTN         0.2100
@<TRIPOS>BOND
     1    1    2 1  
     2    2    3 1  
     3    3    4 1  
     4    3   16 1  
     5    4    5 1  
     6    5    6 1  
     7    5   14 1  
     8    6    7 1  
     9    6   11 am 
    10    7    8 2  
    11    8    9 1  
    12    9   10 ar 
    13    9   13 ar 
    14   10   11 am 
    15   11   12 2  
    16   14   15 1  
    17   14   16 1  
    18   16   17 1  
    19    1   18 1  
    20    2   19 1  
    21    2   20 1  
    22    3   21 1  
    23    5   22 1  
    24    7   23 1  
    25    8   24 1  
    26   10   25 1  
    27   13   26 1  
    28   13   27 1  
    29   14   28 1  
    30   15   29 1  
    31   16   30 1  
    32   17   31 1  
@<TRIPOS>SUBSTRUCTURE
     1 CTN         1

