### 
### Created by X-TOOL on Mon Sep 10 21:13:15 2018
### 

@<TRIPOS>MOLECULE
4jwr_ligand
   52    54     1     0     0
SMALL
GAST_HUCK


@<TRIPOS>ATOM
      1 C20         4.9710  -11.2980   -2.1870 C.ar      1 1MY        -0.0438
      2 C19         3.6130  -11.1410   -2.4690 C.ar      1 1MY         0.0339
      3 CL2         2.7990  -12.3050   -3.4520 Cl        1 1MY        -0.0725
      4 C18         2.9150  -10.0490   -1.9610 C.ar      1 1MY        -0.0548
      5 C17         3.5740   -9.1160   -1.1650 C.ar      1 1MY        -0.0680
      6 C16         4.9290   -9.2670   -0.8800 C.ar      1 1MY        -0.0575
      7 C10         5.6280  -10.3580   -1.3870 C.ar      1 1MY        -0.0096
      8 C6          7.1190  -10.4980   -1.0700 C.3       1 1MY         0.1287
      9 O1          7.8100  -11.0850   -2.1930 O.3       1 1MY        -0.3345
     10 C7          9.2480  -10.9200   -2.1160 C.3       1 1MY         0.1618
     11 C21         9.6870   -9.4730   -2.4850 C.3       1 1MY         0.0441
     12 C22         9.2100   -9.1110   -3.8990 C.2       1 1MY         0.0396
     13 O5          8.4750   -8.1050   -3.9980 O.co2     1 1MY        -0.5688
     14 O4          9.5770   -9.8480   -4.8460 O.co2     1 1MY        -0.5688
     15 C8          9.7580  -11.3320   -0.7280 C.2       1 1MY         0.2122
     16 O2         10.9690  -11.5020   -0.6030 O.2       1 1MY        -0.3937
     17 N1          8.8590  -11.5500    0.3570 N.am      1 1MY        -0.2469
     18 C1          9.3180  -11.9380    1.7150 C.3       1 1MY         0.0706
     19 C3         10.3670  -13.0810    1.7210 C.3       1 1MY        -0.0302
     20 C4          9.8380  -14.4260    1.1910 C.3       1 1MY        -0.0631
     21 C2          9.8630  -10.6990    2.4460 C.3       1 1MY         0.0675
     22 O3          8.9090   -9.6300    2.3620 O.3       1 1MY        -0.3927
     23 C5          7.4040  -11.3150    0.2050 C.3       1 1MY         0.1150
     24 C9          6.6090  -12.6320    0.2380 C.ar      1 1MY        -0.0130
     25 C11         5.6230  -12.7660    1.2160 C.ar      1 1MY        -0.0573
     26 C12         4.8870  -13.9460    1.2840 C.ar      1 1MY        -0.0545
     27 C13         5.1210  -14.9760    0.3710 C.ar      1 1MY         0.0330
     28 CL1         4.1790  -16.4220    0.4750 Cl        1 1MY        -0.0771
     29 C14         6.1040  -14.8450   -0.6150 C.ar      1 1MY        -0.0545
     30 C15         6.8510  -13.6670   -0.6750 C.ar      1 1MY        -0.0573
     31 H1          5.5147  -12.1462   -2.5870 H         1 1MY         0.0563
     32 H2          1.8615   -9.9254   -2.1845 H         1 1MY         0.0565
     33 H3          3.0299   -8.2680   -0.7651 H         1 1MY         0.0599
     34 H4          5.4385   -8.5351   -0.2637 H         1 1MY         0.0559
     35 H5          7.5193   -9.4859   -0.9108 H         1 1MY         0.0809
     36 H6          9.7014  -11.5987   -2.8534 H         1 1MY         0.0861
     37 H7         10.7842   -9.4061   -2.4448 H         1 1MY         0.0481
     38 H8          9.2499   -8.7669   -1.7636 H         1 1MY         0.0481
     39 H9          8.4391  -12.3008    2.2680 H         1 1MY         0.0583
     40 H10        10.7101  -13.2289    2.7556 H         1 1MY         0.0286
     41 H11        11.2163  -12.7730    1.0935 H         1 1MY         0.0286
     42 H12        10.6411  -15.1767    1.2297 H         1 1MY         0.0230
     43 H13         9.5006  -14.3033    0.1512 H         1 1MY         0.0230
     44 H14         8.9944  -14.7591    1.8134 H         1 1MY         0.0230
     45 H15        10.8073  -10.3841    1.9780 H         1 1MY         0.0580
     46 H16        10.0422  -10.9470    3.5026 H         1 1MY         0.0580
     47 H17         9.2493   -8.8671    2.8145 H         1 1MY         0.2095
     48 H18         7.0735  -10.7128    1.0641 H         1 1MY         0.0772
     49 H19         5.4320  -11.9601    1.9154 H         1 1MY         0.0558
     50 H20         4.1288  -14.0655    2.0494 H         1 1MY         0.0606
     51 H21         6.2834  -15.6465   -1.3225 H         1 1MY         0.0606
     52 H22         7.6204  -13.5528   -1.4300 H         1 1MY         0.0558
@<TRIPOS>BOND
     1    1    2 ar 
     2    1    7 ar 
     3    2    3 1  
     4    2    4 ar 
     5    4    5 ar 
     6    5    6 ar 
     7    6    7 ar 
     8    7    8 1  
     9    8    9 1  
    10    8   23 1  
    11    9   10 1  
    12   10   11 1  
    13   10   15 1  
    14   11   12 1  
    15   12   13 ar 
    16   12   14 ar 
    17   15   16 2  
    18   15   17 am 
    19   17   18 1  
    20   17   23 1  
    21   18   19 1  
    22   18   21 1  
    23   19   20 1  
    24   21   22 1  
    25   23   24 1  
    26   24   25 ar 
    27   24   30 ar 
    28   25   26 ar 
    29   26   27 ar 
    30   27   28 1  
    31   27   29 ar 
    32   29   30 ar 
    33    1   31 1  
    34    4   32 1  
    35    5   33 1  
    36    6   34 1  
    37    8   35 1  
    38   10   36 1  
    39   11   37 1  
    40   11   38 1  
    41   18   39 1  
    42   19   40 1  
    43   19   41 1  
    44   20   42 1  
    45   20   43 1  
    46   20   44 1  
    47   21   45 1  
    48   21   46 1  
    49   22   47 1  
    50   23   48 1  
    51   25   49 1  
    52   26   50 1  
    53   29   51 1  
    54   30   52 1  
@<TRIPOS>SUBSTRUCTURE
     1 1MY         1

