### 
### Created by X-TOOL on Mon Sep 10 21:13:14 2018
### 

@<TRIPOS>MOLECULE
4jx7_ligand
   52    55     1     0     0
SMALL
GAST_HUCK


@<TRIPOS>ATOM
      1 FAC        22.2860  -41.6210   -5.8780 F         1 1N6        -0.2206
      2 CBD        21.5900  -40.8570   -4.9470 C.3       1 1N6         0.3738
      3 FAD        20.4030  -41.4230   -4.7580 F         1 1N6        -0.2206
      4 FAE        21.3960  -39.5570   -5.4060 F         1 1N6        -0.2206
      5 CAV        22.3030  -40.8130   -3.7300 C.ar      1 1N6         0.0381
      6 CAK        21.6370  -40.4090   -2.5590 C.ar      1 1N6        -0.0085
      7 CAI        23.6640  -41.1630   -3.6830 C.ar      1 1N6        -0.0415
      8 CAF        24.3500  -41.1130   -2.4670 C.ar      1 1N6        -0.0396
      9 CAH        23.6670  -40.7110   -1.3040 C.ar      1 1N6        -0.0082
     10 CAU        22.3140  -40.3410   -1.3380 C.ar      1 1N6         0.0948
     11 NAR        21.7100  -39.9900   -0.1840 N.pl3     1 1N6        -0.2478
     12 C6         20.8550  -38.9490   -0.0160 C.ar      1 1N6         0.1471
     13 N1         20.3180  -38.1920   -1.0210 N.ar      1 1N6        -0.2399
     14 C5         20.5170  -38.6700    1.3260 C.ar      1 1N6         0.1034
     15 CAY        21.0130  -39.4050    2.4310 C.2       1 1N6         0.1841
     16 OAB        21.8000  -40.3590    2.2860 O.2       1 1N6        -0.3881
     17 NAT        20.5940  -39.0470    3.7470 N.2       1 1N6        -0.2507
     18 CAG        19.7540  -38.0380    3.9540 C.2       1 1N6         0.0402
     19 CAJ        19.2560  -37.3000    2.8910 C.3       1 1N6         0.0647
     20 C4         19.6320  -37.6160    1.5850 C.ar      1 1N6         0.0607
     21 N3         19.1370  -36.9000    0.5620 N.ar      1 1N6        -0.2622
     22 C2         19.4540  -37.1830   -0.7250 C.ar      1 1N6         0.1717
     23 NAS        18.8940  -36.3490   -1.6100 N.pl3     1 1N6        -0.2880
     24 CBC        18.3950  -36.5190   -2.9820 C.3       1 1N6         0.0429
     25 CAN        19.1890  -35.5330   -3.8510 C.3       1 1N6        -0.0243
     26 CAL        18.5770  -35.4660   -5.2470 C.3       1 1N6        -0.0076
     27 CBB        18.6310  -36.8560   -5.8910 C.3       1 1N6        -0.0242
     28 NAA        18.0680  -36.7850   -7.2340 N.4       1 1N6         0.2207
     29 CAM        17.9440  -37.9530   -5.0130 C.3       1 1N6        -0.0076
     30 CAO        18.4610  -37.9400   -3.5590 C.3       1 1N6        -0.0243
     31 H1         20.5860  -40.1472   -2.6039 H         1 1N6         0.0754
     32 H2         24.1787  -41.4702   -4.5862 H         1 1N6         0.0770
     33 H3         25.3992  -41.3815   -2.4197 H         1 1N6         0.0673
     34 H4         24.1988  -40.6866   -0.3597 H         1 1N6         0.0790
     35 H5         21.9164  -40.5644    0.6456 H         1 1N6         0.2185
     36 H6         19.4533  -37.7880    4.9704 H         1 1N6         0.1331
     37 H7         19.5535  -36.2551    3.0629 H         1 1N6         0.0797
     38 H8         18.1598  -37.3810    2.9341 H         1 1N6         0.0797
     39 H9         18.7914  -35.3874   -1.2553 H         1 1N6         0.1879
     40 H10        17.3356  -36.2231   -2.9905 H         1 1N6         0.0562
     41 H11        20.2331  -35.8710   -3.9259 H         1 1N6         0.0290
     42 H12        19.1589  -34.5344   -3.3908 H         1 1N6         0.0290
     43 H13        19.1446  -34.7533   -5.8633 H         1 1N6         0.0320
     44 H14        17.5304  -35.1353   -5.1740 H         1 1N6         0.0320
     45 H15        19.6899  -37.1377   -5.9873 H         1 1N6         0.0850
     46 H16        18.1017  -37.6974   -7.6611 H         1 1N6         0.1997
     47 H17        18.6024  -36.1346   -7.7884 H         1 1N6         0.1997
     48 H18        17.1107  -36.4740   -7.1810 H         1 1N6         0.1997
     49 H19        18.1490  -38.9398   -5.4536 H         1 1N6         0.0320
     50 H20        16.8589  -37.7731   -5.0053 H         1 1N6         0.0320
     51 H21        17.8388  -38.6094   -2.9468 H         1 1N6         0.0290
     52 H22        19.5035  -38.2905   -3.5416 H         1 1N6         0.0290
@<TRIPOS>BOND
     1    1    2 1  
     2    2    3 1  
     3    2    4 1  
     4    2    5 1  
     5    5    6 ar 
     6    5    7 ar 
     7    6   10 ar 
     8    7    8 ar 
     9    8    9 ar 
    10    9   10 ar 
    11   10   11 1  
    12   11   12 1  
    13   12   13 ar 
    14   12   14 ar 
    15   13   22 ar 
    16   14   15 1  
    17   14   20 ar 
    18   15   16 2  
    19   15   17 1  
    20   17   18 2  
    21   18   19 1  
    22   19   20 1  
    23   20   21 ar 
    24   21   22 ar 
    25   22   23 1  
    26   23   24 1  
    27   24   25 1  
    28   24   30 1  
    29   25   26 1  
    30   26   27 1  
    31   27   28 1  
    32   27   29 1  
    33   29   30 1  
    34    6   31 1  
    35    7   32 1  
    36    8   33 1  
    37    9   34 1  
    38   11   35 1  
    39   18   36 1  
    40   19   37 1  
    41   19   38 1  
    42   23   39 1  
    43   24   40 1  
    44   25   41 1  
    45   25   42 1  
    46   26   43 1  
    47   26   44 1  
    48   27   45 1  
    49   28   46 1  
    50   28   47 1  
    51   28   48 1  
    52   29   49 1  
    53   29   50 1  
    54   30   51 1  
    55   30   52 1  
@<TRIPOS>SUBSTRUCTURE
     1 1N6         1

