### 
### Created by X-TOOL on Mon Sep 10 21:13:14 2018
### 

@<TRIPOS>MOLECULE
4jx9_ligand
   29    30     1     0     0
SMALL
GAST_HUCK


@<TRIPOS>ATOM
      1 N1          2.4070   15.9010   31.0260 N.am      1 URI        -0.1592
      2 C2          2.8060   17.1980   31.3390 C.2       1 URI         0.3328
      3 N3          3.6210   17.4470   32.3280 N.am      1 URI        -0.1865
      4 C4          4.1530   16.4440   33.0410 C.2       1 URI         0.1822
      5 C5          3.7850   15.1350   32.7600 C.2       1 URI         0.0062
      6 C6          2.9310   14.8900   31.6830 C.2       1 URI         0.0591
      7 O2          2.3230   18.1570   30.6760 O.2       1 URI        -0.3815
      8 O4          4.9530   16.6410   34.0200 O.2       1 URI        -0.4124
      9 C1'         1.4450   15.7230   29.9060 C.3       1 URI         0.2058
     10 C2'         2.2330   15.3050   28.7630 C.3       1 URI         0.1387
     11 C3'         1.8840   13.9540   28.9190 C.3       1 URI         0.1145
     12 C4'         0.4250   13.9670   28.7880 C.3       1 URI         0.1135
     13 O2'         1.6640   16.1170   27.7590 O.3       1 URI        -0.3836
     14 O3'         2.5680   13.0440   28.3530 O.3       1 URI        -0.3864
     15 O4'         0.3900   14.7280   29.9630 O.3       1 URI        -0.3367
     16 C5'        -0.0810   12.5370   28.5300 C.3       1 URI         0.0730
     17 O5'         0.0760   12.4530   27.1010 O.3       1 URI        -0.3924
     18 H1          3.8503   18.3934   32.5555 H         1 URI         0.2259
     19 H2          4.1565   14.3127   33.3698 H         1 URI         0.0258
     20 H3          2.7002   13.8672   31.3888 H         1 URI         0.1178
     21 H4          0.9742   16.7002   29.7231 H         1 URI         0.0997
     22 H5          3.3205   15.4596   28.8206 H         1 URI         0.0676
     23 H6          2.0680   13.7388   29.9819 H         1 URI         0.0648
     24 H7          0.0527   14.5715   27.9478 H         1 URI         0.0647
     25 H8          0.7224   16.1547   27.8796 H         1 URI         0.2101
     26 H9          2.4227   13.0775   27.4147 H         1 URI         0.2100
     27 H10        -1.1327   12.4187   28.8300 H         1 URI         0.0584
     28 H11         0.5351   11.7888   29.0502 H         1 URI         0.0584
     29 H12         0.9900   12.5813   26.8759 H         1 URI         0.2095
@<TRIPOS>BOND
     1    1    2 am 
     2    1    6 1  
     3    1    9 1  
     4    2    3 am 
     5    2    7 2  
     6    3    4 am 
     7    4    5 1  
     8    4    8 2  
     9    5    6 2  
    10    9   10 1  
    11    9   15 1  
    12   10   11 1  
    13   10   13 1  
    14   11   12 1  
    15   11   14 1  
    16   12   15 1  
    17   12   16 1  
    18   16   17 1  
    19    3   18 1  
    20    5   19 1  
    21    6   20 1  
    22    9   21 1  
    23   10   22 1  
    24   11   23 1  
    25   12   24 1  
    26   13   25 1  
    27   14   26 1  
    28   16   27 1  
    29   16   28 1  
    30   17   29 1  
@<TRIPOS>SUBSTRUCTURE
     1 URI         1

