### 
### Created by X-TOOL on Mon Sep 10 21:13:17 2018
### 

@<TRIPOS>MOLECULE
4jxs_ligand
   31    32     1     0     0
SMALL
GAST_HUCK


@<TRIPOS>ATOM
      1 C4         81.4410    4.3400   33.3640 C.ar      1 18U        -0.0550
      2 C6         82.1210    4.0510   34.5500 C.ar      1 18U        -0.0542
      3 C8         83.5060    4.2480   34.6170 C.ar      1 18U         0.0032
      4 C9         84.3080    3.9220   35.8790 C.2       1 18U         0.0584
      5 O10        85.3430    3.2860   35.6680 O.co2     1 18U        -0.5625
      6 O11        83.9250    4.2480   37.0190 O.co2     1 18U        -0.5625
      7 C7         84.2010    4.7380   33.5060 C.ar      1 18U        -0.0542
      8 C5         83.5320    5.0290   32.3160 C.ar      1 18U        -0.0550
      9 C3         82.1450    4.8300   32.2520 C.ar      1 18U        -0.0218
     10 C2         81.4240    5.1590   30.9390 C.3       1 18U         0.0613
     11 N1         80.1520    4.3990   30.8310 N.am      1 18U        -0.2375
     12 S13        78.9000    5.4490   30.6160 S.o2      1 18U         0.0622
     13 O16        77.5920    4.7150   30.6840 O.2       1 18U        -0.1522
     14 O17        78.9900    6.4970   31.6990 O.2       1 18U        -0.1522
     15 C15        79.0990    6.2350   29.0700 C.2       1 18U         0.1075
     16 C19        79.1530    7.5770   28.9860 C.2       1 18U        -0.0449
     17 C22        79.3120    8.0790   27.7540 C.2       1 18U        -0.0009
     18 S20        79.3810    6.7720   26.6680 S.3       1 18U        -0.0302
     19 C18        79.2230    5.5900   27.8420 C.2       1 18U         0.0873
     20 C21        79.2240    4.1120   27.4840 C.2       1 18U         0.0698
     21 O24        78.9770    3.2680   28.3610 O.co2     1 18U        -0.5629
     22 O23        79.4630    3.8550   26.2790 O.co2     1 18U        -0.5629
     23 H          80.3698    4.1859   33.3022 H         1 18U         0.0565
     24 H          81.5805    3.6770   35.4120 H         1 18U         0.0634
     25 H          85.2719    4.8935   33.5701 H         1 18U         0.0634
     26 H          84.0753    5.4026   31.4556 H         1 18U         0.0565
     27 H          82.0756    4.8936   30.0934 H         1 18U         0.0645
     28 H          81.2041    6.2363   30.9084 H         1 18U         0.0645
     29 H          80.0684    3.4038   30.8810 H         1 18U         0.1699
     30 H          79.0725    8.2152   29.8647 H         1 18U         0.0442
     31 H          79.3841    9.1342   27.4947 H         1 18U         0.0765
@<TRIPOS>BOND
     1    1    2 ar 
     2    1    9 ar 
     3    2    3 ar 
     4    3    4 1  
     5    3    7 ar 
     6    4    5 ar 
     7    4    6 ar 
     8    7    8 ar 
     9    8    9 ar 
    10    9   10 1  
    11   10   11 1  
    12   11   12 am 
    13   12   13 2  
    14   12   14 2  
    15   12   15 1  
    16   15   16 1  
    17   15   19 2  
    18   16   17 2  
    19   17   18 1  
    20   18   19 1  
    21   19   20 1  
    22   20   21 ar 
    23   20   22 ar 
    24    1   23 1  
    25    2   24 1  
    26    7   25 1  
    27    8   26 1  
    28   10   27 1  
    29   10   28 1  
    30   11   29 1  
    31   16   30 1  
    32   17   31 1  
@<TRIPOS>SUBSTRUCTURE
     1 18U         1

