### 
### Created by X-TOOL on Mon Sep 10 21:13:18 2018
### 

@<TRIPOS>MOLECULE
4jxv_ligand
   34    35     1     0     0
SMALL
GAST_HUCK


@<TRIPOS>ATOM
      1 CAI        23.4070    6.1610   10.4880 C.ar      1 1MU        -0.0565
      2 CAK        23.2750    5.9920    9.1200 C.ar      1 1MU        -0.0543
      3 CAT        22.7130    4.8140    8.6250 C.ar      1 1MU         0.0032
      4 CAQ        22.5730    4.5240    7.1180 C.2       1 1MU         0.0584
      5 OAE        21.4440    4.1730    6.7220 O.co2     1 1MU        -0.5625
      6 OAA        23.5660    4.5940    6.3770 O.co2     1 1MU        -0.5625
      7 CAL        22.2770    3.8330    9.5100 C.ar      1 1MU        -0.0543
      8 CAJ        22.3940    4.0120   10.8700 C.ar      1 1MU        -0.0565
      9 CAS        22.9460    5.1710   11.3510 C.ar      1 1MU        -0.0387
     10 CAN        23.0550    5.3100   12.8510 C.3       1 1MU        -0.0009
     11 CAM        24.1890    4.3590   13.2450 C.3       1 1MU         0.0364
     12 NAO        24.6760    4.7240   14.5610 N.am      1 1MU        -0.2472
     13 SAW        25.9250    5.7100   14.4130 S.o2      1 1MU         0.0606
     14 OAC        25.7970    6.5290   13.1610 O.2       1 1MU        -0.1524
     15 OAD        27.1860    4.9080   14.3910 O.2       1 1MU        -0.1524
     16 CAU        25.8290    6.7340   15.8040 C.2       1 1MU         0.1073
     17 CAH        25.8040    8.0710   15.6610 C.2       1 1MU        -0.0449
     18 CAG        25.7210    8.7600   16.8070 C.2       1 1MU        -0.0009
     19 SAP        25.6470    7.6440   18.0890 S.3       1 1MU        -0.0302
     20 CAV        25.7400    6.3030   17.1330 C.2       1 1MU         0.0873
     21 CAR        25.6930    4.9150   17.7260 C.2       1 1MU         0.0698
     22 OAF        25.5520    4.8530   18.9730 O.co2     1 1MU        -0.5629
     23 OAB        25.7430    3.9530   16.9520 O.co2     1 1MU        -0.5629
     24 H          23.8667    7.0591   10.8845 H         1 1MU         0.0564
     25 H          23.6054    6.7681    8.4391 H         1 1MU         0.0634
     26 H          21.8408    2.9185    9.1248 H         1 1MU         0.0634
     27 H          22.0528    3.2436   11.5542 H         1 1MU         0.0564
     28 H          22.1138    5.0149   13.3379 H         1 1MU         0.0448
     29 H          23.3024    6.3453   13.1282 H         1 1MU         0.0448
     30 H          25.0072    4.4381   12.5141 H         1 1MU         0.0499
     31 H          23.8133    3.3253   13.2645 H         1 1MU         0.0499
     32 H          24.2899    4.4076   15.4275 H         1 1MU         0.1672
     33 H          25.8479    8.5568   14.6874 H         1 1MU         0.0442
     34 H          25.7039    9.8448   16.9014 H         1 1MU         0.0765
@<TRIPOS>BOND
     1    1    2 ar 
     2    1    9 ar 
     3    2    3 ar 
     4    3    4 1  
     5    3    7 ar 
     6    4    5 ar 
     7    4    6 ar 
     8    7    8 ar 
     9    8    9 ar 
    10    9   10 1  
    11   10   11 1  
    12   11   12 1  
    13   12   13 am 
    14   13   14 2  
    15   13   15 2  
    16   13   16 1  
    17   16   17 1  
    18   16   20 2  
    19   17   18 2  
    20   18   19 1  
    21   19   20 1  
    22   20   21 1  
    23   21   22 ar 
    24   21   23 ar 
    25    1   24 1  
    26    2   25 1  
    27    7   26 1  
    28    8   27 1  
    29   10   28 1  
    30   10   29 1  
    31   11   30 1  
    32   11   31 1  
    33   12   32 1  
    34   17   33 1  
    35   18   34 1  
@<TRIPOS>SUBSTRUCTURE
     1 1MU         1

