### 
### Created by X-TOOL on Mon Sep 10 21:13:18 2018
### 

@<TRIPOS>MOLECULE
4jxw_ligand
   37    38     1     0     0
SMALL
GAST_HUCK


@<TRIPOS>ATOM
      1 CAI        20.9990    3.8200    9.1250 C.ar      1 1MW        -0.0566
      2 CAK        19.8250    3.0870    8.7820 C.ar      1 1MW        -0.0543
      3 CAU        19.0500    2.5750    9.8490 C.ar      1 1MW         0.0032
      4 CAR        17.7110    1.7830    9.7010 C.2       1 1MW         0.0584
      5 OAE        17.3260    1.1450   10.7240 O.co2     1 1MW        -0.5625
      6 OAA        17.0780    1.8740    8.5910 O.co2     1 1MW        -0.5625
      7 CAL        19.4350    2.7900   11.1470 C.ar      1 1MW        -0.0543
      8 CAJ        20.5630    3.5150   11.4470 C.ar      1 1MW        -0.0566
      9 CAT        21.3910    4.0260   10.4740 C.ar      1 1MW        -0.0401
     10 CAO        22.6410    4.7840   10.9670 C.3       1 1MW        -0.0164
     11 CAM        23.1970    4.1090   12.2620 C.3       1 1MW        -0.0260
     12 CAN        23.2380    5.0240   13.5570 C.3       1 1MW         0.0282
     13 NAP        24.3010    4.6020   14.5150 N.am      1 1MW        -0.2490
     14 SAX        25.7680    5.5610   14.5290 S.o2      1 1MW         0.0605
     15 OAC        25.7660    6.3050   13.2100 O.2       1 1MW        -0.1524
     16 OAD        27.0070    4.7360   14.7300 O.2       1 1MW        -0.1524
     17 CAV        25.6210    6.6280   15.8960 C.2       1 1MW         0.1073
     18 CAH        25.6620    7.9740   15.7320 C.2       1 1MW        -0.0449
     19 CAG        25.4880    8.7160   16.8550 C.2       1 1MW        -0.0009
     20 SAQ        25.2730    7.6450   18.1970 S.3       1 1MW        -0.0302
     21 CAW        25.4150    6.2190   17.2350 C.2       1 1MW         0.0873
     22 CAS        25.2920    4.8390   17.8800 C.2       1 1MW         0.0698
     23 OAF        25.1060    4.8860   19.1340 O.co2     1 1MW        -0.5629
     24 OAB        25.3860    3.7940   17.1910 O.co2     1 1MW        -0.5629
     25 H          21.6111    4.2327    8.3313 H         1 1MW         0.0564
     26 H          19.5388    2.9289    7.7485 H         1 1MW         0.0634
     27 H          18.8374    2.3797   11.9530 H         1 1MW         0.0634
     28 H          20.8095    3.6908   12.4879 H         1 1MW         0.0564
     29 H          22.3715    5.8276   11.1868 H         1 1MW         0.0432
     30 H          23.4133    4.7618   10.1840 H         1 1MW         0.0432
     31 H          24.2238    3.7741   12.0533 H         1 1MW         0.0303
     32 H          22.5651    3.2368   12.4855 H         1 1MW         0.0303
     33 H          22.2628    4.9655   14.0625 H         1 1MW         0.0477
     34 H          23.4304    6.0627   13.2503 H         1 1MW         0.0477
     35 H          24.1827    3.8130   15.1178 H         1 1MW         0.1671
     36 H          25.8248    8.4318   14.7574 H         1 1MW         0.0442
     37 H          25.4843    9.8039   16.9034 H         1 1MW         0.0765
@<TRIPOS>BOND
     1    1    2 ar 
     2    1    9 ar 
     3    2    3 ar 
     4    3    4 1  
     5    3    7 ar 
     6    4    5 ar 
     7    4    6 ar 
     8    7    8 ar 
     9    8    9 ar 
    10    9   10 1  
    11   10   11 1  
    12   11   12 1  
    13   12   13 1  
    14   13   14 am 
    15   14   15 2  
    16   14   16 2  
    17   14   17 1  
    18   17   18 1  
    19   17   21 2  
    20   18   19 2  
    21   19   20 1  
    22   20   21 1  
    23   21   22 1  
    24   22   23 ar 
    25   22   24 ar 
    26    1   25 1  
    27    2   26 1  
    28    7   27 1  
    29    8   28 1  
    30   10   29 1  
    31   10   30 1  
    32   11   31 1  
    33   11   32 1  
    34   12   33 1  
    35   12   34 1  
    36   13   35 1  
    37   18   36 1  
    38   19   37 1  
@<TRIPOS>SUBSTRUCTURE
     1 1MW         1

