### 
### Created by X-TOOL on Mon Sep 10 21:13:13 2018
### 

@<TRIPOS>MOLECULE
4jym_ligand
   19    20     1     0     0
SMALL
GAST_HUCK


@<TRIPOS>ATOM
      1 O01        88.8790  -54.0540  -28.3900 O.3       1 KKN        -0.3196
      2 C02        88.3840  -53.0320  -27.5110 C.3       1 KKN         0.1280
      3 C03        87.1510  -53.3350  -26.7030 C.2       1 KKN         0.1275
      4 C04        86.5020  -54.5870  -26.8080 C.2       1 KKN        -0.0269
      5 C05        86.9990  -55.6180  -27.6920 C.2       1 KKN        -0.0752
      6 C06        88.2090  -55.3270  -28.4870 C.2       1 KKN         0.0382
      7 C07        85.3570  -54.6130  -25.9320 C.3       1 KKN         0.0729
      8 C08        85.3420  -53.3060  -25.2840 C.2       1 KKN         0.2602
      9 O09        84.5340  -52.9070  -24.4620 O.2       1 KKN        -0.3688
     10 O10        86.4870  -52.4570  -25.7610 O.3       1 KKN        -0.2179
     11 C11        84.3960  -55.7410  -25.7340 C.3       1 KKN        -0.0403
     12 H1         88.1626  -52.1485  -28.1277 H         1 KKN         0.0808
     13 H2         89.1896  -52.7915  -26.8016 H         1 KKN         0.0808
     14 H3         86.4958  -56.5807  -27.7691 H         1 KKN         0.0284
     15 H4         88.6026  -56.0881  -29.1591 H         1 KKN         0.0874
     16 H5         84.6938  -54.2574  -26.7343 H         1 KKN         0.0629
     17 H6         84.6877  -56.5876  -26.3729 H         1 KKN         0.0272
     18 H7         83.3821  -55.4105  -26.0036 H         1 KKN         0.0272
     19 H8         84.4112  -56.0550  -24.6799 H         1 KKN         0.0272
@<TRIPOS>BOND
     1    1    2 1  
     2    1    6 1  
     3    2    3 1  
     4    3    4 2  
     5    3   10 1  
     6    4    5 1  
     7    4    7 1  
     8    5    6 2  
     9    7    8 1  
    10    7   11 1  
    11    8    9 2  
    12    8   10 1  
    13    2   12 1  
    14    2   13 1  
    15    5   14 1  
    16    6   15 1  
    17    7   16 1  
    18   11   17 1  
    19   11   18 1  
    20   11   19 1  
@<TRIPOS>SUBSTRUCTURE
     1 KKN         1

