### 
### Created by X-TOOL on Mon Sep 10 21:13:19 2018
### 

@<TRIPOS>MOLECULE
4jyt_ligand
   66    70     1     0     0
SMALL
GAST_HUCK


@<TRIPOS>ATOM
      1 O4         17.9750   64.1320   19.8210 O.2       1 N4A        -0.1451
      2 S1         16.9890   64.5920   20.7760 S.o2      1 N4A         0.0874
      3 O3         17.7560   65.4220   21.6500 O.2       1 N4A        -0.1451
      4 C18        15.9130   65.6130   20.1730 C.ar      1 N4A         0.1141
      5 C23        15.3370   66.6580   20.9110 C.ar      1 N4A        -0.0340
      6 C22        14.4460   67.5480   20.3020 C.ar      1 N4A        -0.0522
      7 C21        14.1590   67.4030   18.9540 C.ar      1 N4A        -0.0178
      8 C27        13.2790   68.2800   18.3140 C.ar      1 N4A        -0.0540
      9 C26        13.0130   68.1180   16.9610 C.ar      1 N4A        -0.0612
     10 C25        13.6250   67.1060   16.2490 C.ar      1 N4A        -0.0612
     11 C24        14.4990   66.2360   16.8880 C.ar      1 N4A        -0.0540
     12 C20        14.7650   66.3850   18.2290 C.ar      1 N4A        -0.0160
     13 C19        15.6510   65.5050   18.8210 C.ar      1 N4A        -0.0269
     14 N2         16.8360   63.5170   21.9050 N.am      1 N4A        -0.1877
     15 C1         16.1920   63.5190   23.0810 C.ar      1 N4A         0.1143
     16 C2         16.5500   62.4110   23.7970 C.ar      1 N4A         0.1979
     17 O1         17.4980   61.6340   23.1850 O.3       1 N4A        -0.2489
     18 C7         18.1650   60.6890   23.9030 C.ar      1 N4A         0.1160
     19 C12        18.2210   59.3800   23.4280 C.ar      1 N4A        -0.0286
     20 C11        18.8830   58.4220   24.1810 C.ar      1 N4A        -0.0645
     21 C10        19.4700   58.7890   25.3990 C.ar      1 N4A         0.0151
     22 C28        20.1780   57.7350   26.1680 C.cat     1 N4A         0.2298
     23 N4         20.7980   57.9980   27.3080 N.pl3     1 N4A        -0.2733
     24 N3         20.1600   56.5760   25.6990 N.pl3     1 N4A        -0.2733
     25 C9         19.4080   60.1000   25.8700 C.ar      1 N4A        -0.0645
     26 C8         18.7480   61.0540   25.1210 C.ar      1 N4A        -0.0286
     27 C5         15.2360   64.3980   23.5770 C.ar      1 N4A        -0.0407
     28 C4         14.6670   64.1080   24.8110 C.ar      1 N4A        -0.0276
     29 C3         15.0500   62.9610   25.5280 C.ar      1 N4A         0.1606
     30 N1         15.9900   62.1280   25.0030 N.ar      1 N4A        -0.2596
     31 O2         14.4910   62.6750   26.7650 O.3       1 N4A        -0.2533
     32 C6         14.7260   63.5160   27.8370 C.ar      1 N4A         0.1155
     33 C17        14.8850   63.0280   29.1450 C.ar      1 N4A        -0.0287
     34 C16        15.1140   63.9290   30.2110 C.ar      1 N4A        -0.0646
     35 C15        15.1780   65.3130   29.9790 C.ar      1 N4A         0.0151
     36 C29        15.4000   66.3540   31.0450 C.cat     1 N4A         0.2297
     37 N6         15.9600   67.4500   30.7270 N.pl3     1 N4A        -0.2733
     38 N5         14.9820   66.1680   32.3020 N.pl3     1 N4A        -0.2733
     39 C14        15.0110   65.7820   28.6870 C.ar      1 N4A        -0.0646
     40 C13        14.7930   64.9030   27.6390 C.ar      1 N4A        -0.0287
     41 H          15.5840   66.7765   21.9598 H         1 N4A         0.0637
     42 H          13.9852   68.3422   20.8781 H         1 N4A         0.0624
     43 H          12.8071   69.0817   18.8705 H         1 N4A         0.0624
     44 H          12.3225   68.7884   16.4621 H         1 N4A         0.0618
     45 H          13.4233   66.9902   15.1902 H         1 N4A         0.0618
     46 H          14.9726   65.4376   16.3283 H         1 N4A         0.0624
     47 H          16.1361   64.7368   18.2297 H         1 N4A         0.0643
     48 H          17.3129   62.6599   21.7102 H         1 N4A         0.2118
     49 H          17.7549   59.1152   22.4858 H         1 N4A         0.0552
     50 H          18.9457   57.3982   23.8303 H         1 N4A         0.0590
     51 H          21.2803   57.2441   27.8178 H         1 N4A         0.3180
     52 H          20.7980   58.9565   27.6850 H         1 N4A         0.3180
     53 H          19.6734   56.3873   24.8110 H         1 N4A         0.3180
     54 H          20.6318   55.8100   26.2007 H         1 N4A         0.3180
     55 H          19.8722   60.3669   26.8125 H         1 N4A         0.0590
     56 H          18.6822   62.0769   25.4738 H         1 N4A         0.0552
     57 H          14.9441   65.2806   23.0194 H         1 N4A         0.0533
     58 H          13.9190   64.7740   25.2257 H         1 N4A         0.0511
     59 H          14.8322   61.9624   29.3369 H         1 N4A         0.0551
     60 H          15.2415   63.5475   31.2176 H         1 N4A         0.0590
     61 H          16.1199   68.1733   31.4427 H         1 N4A         0.3180
     62 H          16.2538   67.6148   29.7536 H         1 N4A         0.3180
     63 H          14.5273   65.2829   32.5679 H         1 N4A         0.3180
     64 H          15.1148   66.9099   33.0040 H         1 N4A         0.3180
     65 H          15.0513   66.8479   28.4937 H         1 N4A         0.0590
     66 H          14.6707   65.2983   26.6371 H         1 N4A         0.0551
@<TRIPOS>BOND
     1    1    2 2  
     2    2    3 2  
     3    2    4 1  
     4    2   14 am 
     5    4    5 ar 
     6    4   13 ar 
     7    5    6 ar 
     8    6    7 ar 
     9    7    8 ar 
    10    7   12 ar 
    11    8    9 ar 
    12    9   10 ar 
    13   10   11 ar 
    14   11   12 ar 
    15   12   13 ar 
    16   14   15 1  
    17   15   16 ar 
    18   15   27 ar 
    19   16   17 1  
    20   16   30 ar 
    21   17   18 1  
    22   18   19 ar 
    23   18   26 ar 
    24   19   20 ar 
    25   20   21 ar 
    26   21   22 1  
    27   21   25 ar 
    28   22   23 ar 
    29   22   24 ar 
    30   25   26 ar 
    31   27   28 ar 
    32   28   29 ar 
    33   29   30 ar 
    34   29   31 1  
    35   31   32 1  
    36   32   33 ar 
    37   32   40 ar 
    38   33   34 ar 
    39   34   35 ar 
    40   35   36 1  
    41   35   39 ar 
    42   36   37 ar 
    43   36   38 ar 
    44   39   40 ar 
    45    5   41 1  
    46    6   42 1  
    47    8   43 1  
    48    9   44 1  
    49   10   45 1  
    50   11   46 1  
    51   13   47 1  
    52   14   48 1  
    53   19   49 1  
    54   20   50 1  
    55   23   51 1  
    56   23   52 1  
    57   24   53 1  
    58   24   54 1  
    59   25   55 1  
    60   26   56 1  
    61   27   57 1  
    62   28   58 1  
    63   33   59 1  
    64   34   60 1  
    65   37   61 1  
    66   37   62 1  
    67   38   63 1  
    68   38   64 1  
    69   39   65 1  
    70   40   66 1  
@<TRIPOS>SUBSTRUCTURE
     1 N4A         1

