### 
### Created by X-TOOL on Mon Sep 10 21:13:13 2018
### 

@<TRIPOS>MOLECULE
4jyu_ligand
   68    71     1     0     0
SMALL
GAST_HUCK


@<TRIPOS>ATOM
      1 C13         9.4140   33.7690   28.6870 C.ar      1 1OK         0.0242
      2 C18         9.5970   33.3860   27.3270 C.ar      1 1OK        -0.0511
      3 C17         9.2020   34.1950   26.3030 C.ar      1 1OK        -0.0354
      4 C16         8.5830   35.4190   26.5570 C.ar      1 1OK         0.0446
      5 C15         8.3870   35.8370   27.8580 C.ar      1 1OK        -0.0391
      6 C21         7.3350   37.3890   25.7060 C.3       1 1OK         0.1537
      7 C22         5.8600   37.0720   25.9150 C.ar      1 1OK        -0.0191
      8 C23         7.3550   38.2210   24.4690 C.2       1 1OK         0.2311
      9 C24         5.1750   36.3120   24.9660 C.ar      1 1OK        -0.0353
     10 C11         8.6550   35.4570   30.2890 C.ar      1 1OK        -0.0566
     11 C12         8.7990   35.0320   28.9480 C.ar      1 1OK        -0.0283
     12 C34        -0.4390   36.4350   27.0370 C.3       1 1OK        -0.0351
     13 C27         3.8140   37.3490   27.1740 C.ar      1 1OK        -0.0474
     14 C33         0.9740   36.5580   27.4940 C.3       1 1OK         0.0718
     15 N1          6.9920   39.5190   24.6590 N.am      1 1OK        -0.1505
     16 S2          6.7880   40.5710   23.4320 S.o2      1 1OK         0.0909
     17 C3          5.4640   39.8680   22.4970 C.ar      1 1OK         0.1132
     18 C4          4.4300   39.2160   23.1610 C.ar      1 1OK        -0.0347
     19 C5          3.4110   38.6340   22.4210 C.ar      1 1OK        -0.0599
     20 C6          3.4130   38.7160   21.0400 C.ar      1 1OK        -0.0616
     21 C7          4.4330   39.3830   20.3910 C.ar      1 1OK        -0.0599
     22 C8          5.4710   39.9610   21.1120 C.ar      1 1OK        -0.0347
     23 N9          9.6950   33.4620   31.0860 N.ar      1 1OK        -0.2974
     24 C10         9.1200   34.6580   31.2890 C.ar      1 1OK        -0.0195
     25 C14         9.8430   33.0020   29.8400 C.ar      1 1OK         0.1155
     26 N19        10.4320   31.7970   29.6820 N.pl3     1 1OK        -0.3167
     27 N20         8.1420   36.1990   25.4890 N.pl3     1 1OK        -0.2910
     28 C25         3.8220   36.0530   25.1180 C.ar      1 1OK         0.1140
     29 C26         3.1260   36.5830   26.2340 C.ar      1 1OK         0.1133
     30 C28         5.1700   37.5760   27.0110 C.ar      1 1OK        -0.0756
     31 O29         1.7840   36.2660   26.3060 O.3       1 1OK        -0.3234
     32 O30         3.0950   35.2120   24.3060 O.3       1 1OK        -0.3235
     33 C31         3.7410   34.5900   23.1770 C.3       1 1OK         0.0650
     34 C32         2.7630   33.7310   22.5170 C.3       1 1OK        -0.0375
     35 C35         1.2940   35.6270   28.6210 C.3       1 1OK        -0.0351
     36 O36         7.6950   37.7830   23.3730 O.2       1 1OK        -0.3903
     37 O37         6.3120   41.7820   24.0350 O.2       1 1OK        -0.1455
     38 O38         7.9670   40.5990   22.6190 O.2       1 1OK        -0.1455
     39 H1         10.0597   32.4319   27.1017 H         1 1OK         0.0651
     40 H2          9.3711   33.8831   25.2787 H         1 1OK         0.0561
     41 H3          7.9121   36.7928   28.0476 H         1 1OK         0.0458
     42 H4          7.7320   37.9476   26.5665 H         1 1OK         0.0933
     43 H5          5.7045   35.9217   24.1044 H         1 1OK         0.0455
     44 H6          8.1814   36.4049   30.5176 H         1 1OK         0.0523
     45 H7         -1.1160   36.6413   27.8791 H         1 1OK         0.0258
     46 H8         -0.6167   35.4151   26.6652 H         1 1OK         0.0258
     47 H9         -0.6275   37.1578   26.2295 H         1 1OK         0.0258
     48 H10         3.2904   37.7644   28.0274 H         1 1OK         0.0493
     49 H11         1.1648   37.5875   27.8312 H         1 1OK         0.0637
     50 H12         6.8439   39.8414   25.5939 H         1 1OK         0.2147
     51 H13         4.4206   39.1633   24.2437 H         1 1OK         0.0637
     52 H14         2.6080   38.1116   22.9282 H         1 1OK         0.0618
     53 H15         2.6147   38.2571   20.4680 H         1 1OK         0.0618
     54 H16         4.4241   39.4565   19.3095 H         1 1OK         0.0618
     55 H17         6.2749   40.4773   20.5999 H         1 1OK         0.0637
     56 H18         9.0199   35.0087   32.3098 H         1 1OK         0.0707
     57 H19        10.7336   31.2591   30.5070 H         1 1OK         0.1819
     58 H20        10.5796   31.4159   28.7365 H         1 1OK         0.1819
     59 H21         8.3926   35.9271   24.5277 H         1 1OK         0.1829
     60 H22         5.7041   38.1584   27.7530 H         1 1OK         0.0441
     61 H23         4.5954   33.9882   23.5202 H         1 1OK         0.0606
     62 H24         4.0936   35.3614   22.4766 H         1 1OK         0.0606
     63 H25         3.2305   33.2424   21.6494 H         1 1OK         0.0255
     64 H26         1.9098   34.3381   22.1802 H         1 1OK         0.0255
     65 H27         2.4116   32.9649   23.2239 H         1 1OK         0.0255
     66 H28         2.3449   35.7586   28.9181 H         1 1OK         0.0258
     67 H29         1.1321   34.5886   28.2961 H         1 1OK         0.0258
     68 H30         0.6403   35.8495   29.4773 H         1 1OK         0.0258
@<TRIPOS>BOND
     1    2    1 ar 
     2   11    1 ar 
     3    1   25 ar 
     4    3    2 ar 
     5    4    3 ar 
     6    4    5 ar 
     7   27    4 1  
     8    5   11 ar 
     9    7    6 1  
    10    6    8 1  
    11    6   27 1  
    12    9    7 ar 
    13   30    7 ar 
    14    8   15 am 
    15    8   36 2  
    16   28    9 ar 
    17   11   10 ar 
    18   10   24 ar 
    19   14   12 1  
    20   29   13 ar 
    21   13   30 ar 
    22   31   14 1  
    23   14   35 1  
    24   15   16 am 
    25   16   17 1  
    26   16   37 2  
    27   16   38 2  
    28   17   18 ar 
    29   17   22 ar 
    30   18   19 ar 
    31   19   20 ar 
    32   21   20 ar 
    33   22   21 ar 
    34   24   23 ar 
    35   25   23 ar 
    36   25   26 1  
    37   29   28 ar 
    38   28   32 1  
    39   29   31 1  
    40   32   33 1  
    41   33   34 1  
    42    2   39 1  
    43    3   40 1  
    44    5   41 1  
    45    6   42 1  
    46    9   43 1  
    47   10   44 1  
    48   12   45 1  
    49   12   46 1  
    50   12   47 1  
    51   13   48 1  
    52   14   49 1  
    53   15   50 1  
    54   18   51 1  
    55   19   52 1  
    56   20   53 1  
    57   21   54 1  
    58   22   55 1  
    59   24   56 1  
    60   26   57 1  
    61   26   58 1  
    62   27   59 1  
    63   30   60 1  
    64   33   61 1  
    65   33   62 1  
    66   34   63 1  
    67   34   64 1  
    68   34   65 1  
    69   35   66 1  
    70   35   67 1  
    71   35   68 1  
@<TRIPOS>SUBSTRUCTURE
     1 1OK         1

