### 
### Created by X-TOOL on Mon Sep 10 21:13:14 2018
### 

@<TRIPOS>MOLECULE
4jyv_ligand
   71    74     1     0     0
SMALL
GAST_HUCK


@<TRIPOS>ATOM
      1 C13         7.1830   38.2750   24.3170 C.2       1 1OJ         0.2311
      2 C18         3.8120   36.2650   25.1010 C.ar      1 1OJ         0.1140
      3 C17         5.1740   36.4310   24.9260 C.ar      1 1OJ        -0.0353
      4 C16         5.9210   37.1750   25.8340 C.ar      1 1OJ        -0.0190
      5 C19         3.1660   36.8800   26.2050 C.ar      1 1OJ         0.1133
      6 C20         3.9260   37.5880   27.1350 C.ar      1 1OJ        -0.0474
      7 C21         5.2900   37.7300   26.9400 C.ar      1 1OJ        -0.0755
      8 C24         3.6750   35.0850   23.0230 C.3       1 1OJ         0.0650
      9 C12         7.3860   37.4600   25.5340 C.3       1 1OJ         0.1538
     10 C34         4.2970   38.9290   20.6590 C.ar      1 1OJ        -0.0580
     11 C27         1.3760   36.2050   28.6360 C.3       1 1OJ        -0.0351
     12 C33         5.3590   39.5850   21.2700 C.ar      1 1OJ        -0.0346
     13 C1         10.3450   32.3460   29.5310 C.ar      1 1OJ         0.0015
     14 N2          9.9820   33.0200   30.6280 N.ar      1 1OJ        -0.3041
     15 C3          9.3950   34.1930   30.4580 C.ar      1 1OJ         0.0133
     16 C4          9.1230   34.7600   29.1950 C.ar      1 1OJ         0.0005
     17 C5          9.5420   34.0350   28.0550 C.ar      1 1OJ        -0.0167
     18 C6         10.1700   32.7990   28.2590 C.ar      1 1OJ        -0.0388
     19 C7          8.4300   35.9670   29.0170 C.ar      1 1OJ        -0.0492
     20 C8          8.1610   36.4380   27.7740 C.ar      1 1OJ        -0.0315
     21 C9          8.5650   35.7390   26.6360 C.ar      1 1OJ         0.0488
     22 C10         9.2630   34.5580   26.7690 C.ar      1 1OJ        -0.0333
     23 N11         8.1900   36.2540   25.4010 N.pl3     1 1OJ        -0.2903
     24 O14         7.1660   37.7890   23.1930 O.2       1 1OJ        -0.3903
     25 N15         6.9500   39.5950   24.5930 N.am      1 1OJ        -0.1505
     26 O22         1.7850   36.8870   26.2050 O.3       1 1OJ        -0.3234
     27 O23         3.0860   35.4270   24.2880 O.3       1 1OJ        -0.3235
     28 C25         2.8460   34.2130   22.3970 C.3       1 1OJ        -0.0375
     29 C26         0.9830   36.1400   27.1830 C.3       1 1OJ         0.0718
     30 C28        -0.4230   36.5950   26.9460 C.3       1 1OJ        -0.0351
     31 S29         6.6090   40.6990   23.4400 S.o2      1 1OJ         0.0910
     32 O30         6.1860   41.9160   24.0630 O.2       1 1OJ        -0.1455
     33 O31         7.7490   40.7030   22.5760 O.2       1 1OJ        -0.1455
     34 C32         5.2300   39.9950   22.5890 C.ar      1 1OJ         0.1150
     35 C35         3.1130   38.6890   21.3440 C.ar      1 1OJ        -0.0350
     36 C36         2.9910   39.1240   22.6570 C.ar      1 1OJ         0.1098
     37 C37         4.0480   39.7710   23.2840 C.ar      1 1OJ        -0.0080
     38 S38         1.4500   38.9120   23.5060 S.o2      1 1OJ         0.0659
     39 O39         1.5910   39.4760   24.8170 O.2       1 1OJ        -0.1505
     40 O40         1.0700   37.5340   23.3880 O.2       1 1OJ        -0.1505
     41 N41         0.3340   39.7720   22.7420 N.am      1 1OJ        -0.2609
     42 H1          5.6645   35.9768   24.0727 H         1 1OJ         0.0455
     43 H2          3.4519   38.0251   28.0063 H         1 1OJ         0.0493
     44 H3          5.8759   38.2846   27.6640 H         1 1OJ         0.0441
     45 H4          4.6574   34.6168   23.1830 H         1 1OJ         0.0606
     46 H5          3.7958   35.9906   22.4104 H         1 1OJ         0.0606
     47 H6          7.8411   38.0699   26.3283 H         1 1OJ         0.0933
     48 H7          4.3944   38.5993   19.6310 H         1 1OJ         0.0619
     49 H8          0.6800   35.5961   29.2317 H         1 1OJ         0.0258
     50 H9          1.3367   37.2490   28.9802 H         1 1OJ         0.0258
     51 H10         2.3982   35.8172   28.7571 H         1 1OJ         0.0258
     52 H11         6.2758   39.7738   20.7233 H         1 1OJ         0.0637
     53 H12        10.8090   31.3753   29.6635 H         1 1OJ         0.0759
     54 H13         9.1059   34.7515   31.3409 H         1 1OJ         0.0856
     55 H14        10.5121   32.2111   27.4149 H         1 1OJ         0.0674
     56 H15         8.1054   36.5304   29.8844 H         1 1OJ         0.0651
     57 H16         7.6234   37.3727   27.6628 H         1 1OJ         0.0600
     58 H17         9.5997   34.0275   25.8857 H         1 1OJ         0.0482
     59 H18         8.4503   35.8321   24.4981 H         1 1OJ         0.1831
     60 H19         6.9905   39.8973   25.5454 H         1 1OJ         0.2147
     61 H20         3.2748   33.9342   21.4231 H         1 1OJ         0.0255
     62 H21         1.8646   34.6857   22.2437 H         1 1OJ         0.0255
     63 H22         2.7263   33.3119   23.0163 H         1 1OJ         0.0255
     64 H23         1.0505   35.0770   26.9083 H         1 1OJ         0.0637
     65 H24        -0.6545   36.5266   25.8728 H         1 1OJ         0.0258
     66 H25        -0.5320   37.6377   27.2788 H         1 1OJ         0.0258
     67 H26        -1.1159   35.9551   27.5120 H         1 1OJ         0.0258
     68 H27         2.2945   38.1687   20.8598 H         1 1OJ         0.0637
     69 H28         3.9511   40.1001   24.3123 H         1 1OJ         0.0657
     70 H29        -0.6084   39.7781   23.0765 H         1 1OJ         0.1635
     71 H30         0.5801   40.3025   21.9308 H         1 1OJ         0.1635
@<TRIPOS>BOND
     1    1    9 1  
     2    1   24 2  
     3   25    1 am 
     4    3    2 ar 
     5    2    5 ar 
     6    2   27 1  
     7    4    3 ar 
     8    4    7 ar 
     9    9    4 1  
    10    6    5 ar 
    11    5   26 1  
    12    7    6 ar 
    13   27    8 1  
    14    8   28 1  
    15    9   23 1  
    16   12   10 ar 
    17   10   35 ar 
    18   29   11 1  
    19   34   12 ar 
    20   13   14 ar 
    21   18   13 ar 
    22   15   14 ar 
    23   16   15 ar 
    24   17   16 ar 
    25   19   16 ar 
    26   17   18 ar 
    27   22   17 ar 
    28   20   19 ar 
    29   21   20 ar 
    30   21   22 ar 
    31   23   21 1  
    32   31   25 am 
    33   26   29 1  
    34   29   30 1  
    35   31   32 2  
    36   31   33 2  
    37   31   34 1  
    38   34   37 ar 
    39   35   36 ar 
    40   36   37 ar 
    41   36   38 1  
    42   38   39 2  
    43   38   40 2  
    44   38   41 am 
    45    3   42 1  
    46    6   43 1  
    47    7   44 1  
    48    8   45 1  
    49    8   46 1  
    50    9   47 1  
    51   10   48 1  
    52   11   49 1  
    53   11   50 1  
    54   11   51 1  
    55   12   52 1  
    56   13   53 1  
    57   15   54 1  
    58   18   55 1  
    59   19   56 1  
    60   20   57 1  
    61   22   58 1  
    62   23   59 1  
    63   25   60 1  
    64   28   61 1  
    65   28   62 1  
    66   28   63 1  
    67   29   64 1  
    68   30   65 1  
    69   30   66 1  
    70   30   67 1  
    71   35   68 1  
    72   37   69 1  
    73   41   70 1  
    74   41   71 1  
@<TRIPOS>SUBSTRUCTURE
     1 1OJ         1

