### 
### Created by X-TOOL on Mon Sep 10 21:13:19 2018
### 

@<TRIPOS>MOLECULE
4jz1_ligand
   60    63     1     0     0
SMALL
GAST_HUCK


@<TRIPOS>ATOM
      1 O4         18.0270   63.9700   19.9250 O.2       1 F4D        -0.1456
      2 S1         17.0260   64.4780   20.8280 S.o2      1 F4D         0.0856
      3 O3         17.8590   65.2170   21.6980 O.2       1 F4D        -0.1456
      4 C18        16.0120   65.6210   20.3290 C.ar      1 F4D         0.1095
      5 C23        15.6010   66.5810   21.2650 C.ar      1 F4D        -0.0365
      6 C22        14.6950   67.5740   20.9300 C.ar      1 F4D        -0.0263
      7 C21        14.1860   67.6280   19.6500 C.ar      1 F4D         0.1325
      8 F1         13.3020   68.6040   19.3380 F         1 F4D        -0.1834
      9 C20        14.5760   66.6780   18.7090 C.ar      1 F4D        -0.0263
     10 C19        15.4830   65.6730   19.0520 C.ar      1 F4D        -0.0365
     11 N2         16.3450   63.9130   22.0590 N.am      1 F4D        -0.1881
     12 C1         16.2450   63.7630   23.3500 C.ar      1 F4D         0.1143
     13 C2         16.9020   62.7940   24.0230 C.ar      1 F4D         0.1979
     14 O1         17.9420   62.1560   23.4230 O.3       1 F4D        -0.2489
     15 C6         18.4810   61.0760   24.0730 C.ar      1 F4D         0.1160
     16 C12        19.1510   61.2990   25.2650 C.ar      1 F4D        -0.0286
     17 C11        19.7110   60.2370   25.9480 C.ar      1 F4D        -0.0645
     18 C10        19.6220   58.9420   25.4450 C.ar      1 F4D         0.0151
     19 C25        20.2500   57.8050   26.1890 C.cat     1 F4D         0.2298
     20 N6         20.2100   56.6440   25.7050 N.pl3     1 F4D        -0.2733
     21 N5         20.8750   58.0070   27.3400 N.pl3     1 F4D        -0.2733
     22 C9         18.9430   58.7110   24.2470 C.ar      1 F4D        -0.0645
     23 C8         18.3680   59.7840   23.5640 C.ar      1 F4D        -0.0286
     24 C5         15.1050   64.3870   23.8740 C.ar      1 F4D        -0.0407
     25 C4         14.7270   64.1150   25.1570 C.ar      1 F4D        -0.0276
     26 C3         15.4560   63.1590   25.8360 C.ar      1 F4D         0.1606
     27 N1         16.5170   62.5310   25.2780 N.ar      1 F4D        -0.2596
     28 O2         15.1830   62.8990   27.1360 O.3       1 F4D        -0.2533
     29 C7         14.0480   62.4650   27.6800 C.ar      1 F4D         0.1155
     30 C17        12.8760   62.3870   26.9460 C.ar      1 F4D        -0.0287
     31 C16        11.7540   61.9000   27.5700 C.ar      1 F4D        -0.0646
     32 C15        11.8360   61.5080   28.8940 C.ar      1 F4D         0.0151
     33 C24        10.6220   60.9660   29.5410 C.cat     1 F4D         0.2297
     34 N4         10.7580   60.0000   30.3380 N.pl3     1 F4D        -0.2733
     35 N3          9.4350   61.4770   29.2390 N.pl3     1 F4D        -0.2733
     36 C14        13.0130   61.5870   29.6230 C.ar      1 F4D        -0.0646
     37 C13        14.1460   62.0710   29.0050 C.ar      1 F4D        -0.0287
     38 H          16.0007   66.5453   22.2720 H         1 F4D         0.0627
     39 H          14.3881   68.3043   21.6700 H         1 F4D         0.0604
     40 H          14.1728   66.7190   17.7036 H         1 F4D         0.0604
     41 H          15.7731   64.9320   18.3159 H         1 F4D         0.0627
     42 H          15.5798   63.3838   21.6925 H         1 F4D         0.2117
     43 H          19.2355   62.3046   25.6607 H         1 F4D         0.0552
     44 H          20.2253   60.4138   26.8857 H         1 F4D         0.0590
     45 H          20.6409   55.8588   26.2137 H         1 F4D         0.3180
     46 H          19.7464   56.4789   24.8002 H         1 F4D         0.3180
     47 H          20.9142   58.9529   27.7457 H         1 F4D         0.3180
     48 H          21.3216   57.2181   27.8289 H         1 F4D         0.3180
     49 H          18.8630   57.7054   23.8501 H         1 F4D         0.0590
     50 H          17.8332   59.6119   22.6369 H         1 F4D         0.0552
     51 H          14.5301   65.0776   23.2676 H         1 F4D         0.0533
     52 H          13.8920   64.6265   25.6220 H         1 F4D         0.0511
     53 H          12.8454   62.7013   25.9090 H         1 F4D         0.0551
     54 H          10.8160   61.8237   27.0320 H         1 F4D         0.0590
     55 H           9.9330   59.5983   30.8059 H         1 F4D         0.3180
     56 H          11.6942   59.6118   30.5217 H         1 F4D         0.3180
     57 H           9.3666   62.2675   28.5822 H         1 F4D         0.3180
     58 H           8.5822   61.0831   29.6614 H         1 F4D         0.3180
     59 H          13.0415   61.2737   30.6604 H         1 F4D         0.0590
     60 H          15.0863   62.1414   29.5398 H         1 F4D         0.0551
@<TRIPOS>BOND
     1    1    2 2  
     2    2    3 2  
     3    2    4 1  
     4    2   11 am 
     5    4    5 ar 
     6    4   10 ar 
     7    5    6 ar 
     8    6    7 ar 
     9    7    8 1  
    10    7    9 ar 
    11    9   10 ar 
    12   11   12 1  
    13   12   13 ar 
    14   12   24 ar 
    15   13   14 1  
    16   13   27 ar 
    17   14   15 1  
    18   15   16 ar 
    19   15   23 ar 
    20   16   17 ar 
    21   17   18 ar 
    22   18   19 1  
    23   18   22 ar 
    24   19   20 ar 
    25   19   21 ar 
    26   22   23 ar 
    27   24   25 ar 
    28   25   26 ar 
    29   26   27 ar 
    30   26   28 1  
    31   28   29 1  
    32   29   30 ar 
    33   29   37 ar 
    34   30   31 ar 
    35   31   32 ar 
    36   32   33 1  
    37   32   36 ar 
    38   33   34 ar 
    39   33   35 ar 
    40   36   37 ar 
    41    5   38 1  
    42    6   39 1  
    43    9   40 1  
    44   10   41 1  
    45   11   42 1  
    46   16   43 1  
    47   17   44 1  
    48   20   45 1  
    49   20   46 1  
    50   21   47 1  
    51   21   48 1  
    52   22   49 1  
    53   23   50 1  
    54   24   51 1  
    55   25   52 1  
    56   30   53 1  
    57   31   54 1  
    58   34   55 1  
    59   34   56 1  
    60   35   57 1  
    61   35   58 1  
    62   36   59 1  
    63   37   60 1  
@<TRIPOS>SUBSTRUCTURE
     1 F4D         1

