### 
### Created by X-TOOL on Mon Sep 10 21:13:13 2018
### 

@<TRIPOS>MOLECULE
4jzd_ligand
   70    72     1     0     0
SMALL
GAST_HUCK


@<TRIPOS>ATOM
      1 O1         86.1770   39.6170   55.0000 O.2       1 1NJ        -0.3676
      2 C2         85.2330   40.0400   54.3390 C.2       1 1NJ         0.2487
      3 N3         83.9650   39.5890   54.5090 N.am      1 1NJ        -0.2313
      4 C5         83.3660   39.0670   55.6870 C.ar      1 1NJ         0.0662
      5 C6         83.9110   39.2290   56.9580 C.ar      1 1NJ        -0.0412
      6 C8         83.2380   38.7580   58.0750 C.ar      1 1NJ        -0.0703
      7 C10        82.0210   38.0870   57.9440 C.ar      1 1NJ         0.0102
      8 C11        81.2390   37.6320   59.1510 C.cat     1 1NJ         0.2272
      9 N12        81.9140   37.7160   60.3630 N.pl3     1 1NJ        -0.2738
     10 N15        80.0060   37.2430   58.9870 N.pl3     1 1NJ        -0.2738
     11 C17        81.5170   37.8650   56.6630 C.ar      1 1NJ        -0.0703
     12 C19        82.1820   38.3490   55.5460 C.ar      1 1NJ        -0.0412
     13 C21        85.4760   40.9730   53.1850 C.ar      1 1NJ         0.1258
     14 N22        84.5690   41.9500   53.0120 N.ar      1 1NJ        -0.2510
     15 C23        84.8060   42.8480   52.0540 C.ar      1 1NJ         0.1711
     16 O24        83.8680   43.7680   51.7500 O.3       1 1NJ        -0.2999
     17 C25        82.6830   43.8100   52.5460 C.3       1 1NJ         0.0637
     18 C29        85.9510   42.8460   51.2550 C.ar      1 1NJ         0.0016
     19 C31        86.8580   41.8090   51.4140 C.ar      1 1NJ        -0.0361
     20 C33        86.6520   40.8170   52.3790 C.ar      1 1NJ         0.0231
     21 C34        87.6390   39.6900   52.4760 C.ar      1 1NJ         0.0037
     22 C35        88.9790   40.0120   52.7370 C.ar      1 1NJ        -0.0455
     23 C37        89.9540   39.0240   52.7940 C.ar      1 1NJ        -0.0395
     24 C39        87.3060   38.3300   52.2920 C.ar      1 1NJ         0.0227
     25 C40        85.9360   37.8540   51.9020 C.2       1 1NJ         0.0639
     26 O41        85.4310   38.4010   50.8180 O.co2     1 1NJ        -0.5609
     27 O43        85.3590   36.9830   52.5480 O.co2     1 1NJ        -0.5609
     28 C44        88.2880   37.3400   52.3890 C.ar      1 1NJ        -0.0278
     29 C46        89.6180   37.6820   52.6230 C.ar      1 1NJ         0.0527
     30 C47        90.6410   36.5920   52.6570 C.2       1 1NJ         0.2053
     31 O48        91.4880   36.5420   53.5470 O.2       1 1NJ        -0.3851
     32 N49        90.5610   35.6590   51.6900 N.am      1 1NJ        -0.2805
     33 C51        91.3630   34.4430   51.6040 C.3       1 1NJ         0.0694
     34 C53        92.1570   34.4330   50.2320 C.3       1 1NJ         0.0676
     35 O56        92.7410   35.6950   49.9690 O.3       1 1NJ        -0.3927
     36 C58        90.6050   33.1250   51.9370 C.3       1 1NJ        -0.0126
     37 C59        89.9240   33.2250   53.3130 C.3       1 1NJ        -0.0579
     38 C63        89.5340   32.8390   50.8740 C.3       1 1NJ        -0.0579
     39 C67        91.5960   31.9510   51.9620 C.3       1 1NJ        -0.0579
     40 H1         83.3763   39.6290   53.7017 H         1 1NJ         0.2256
     41 H2         84.8671   39.7263   57.0749 H         1 1NJ         0.0503
     42 H3         83.6616   38.9125   59.0608 H         1 1NJ         0.0577
     43 H4         81.4475   37.4239   61.2336 H         1 1NJ         0.3179
     44 H5         82.8808   38.0703   60.3906 H         1 1NJ         0.3179
     45 H6         79.5958   37.2159   58.0426 H         1 1NJ         0.3179
     46 H7         79.4417   36.9627   59.8018 H         1 1NJ         0.3179
     47 H8         80.5954   37.3081   56.5387 H         1 1NJ         0.0577
     48 H9         81.7770   38.1669   54.5571 H         1 1NJ         0.0503
     49 H10        82.0209   44.6068   52.1761 H         1 1NJ         0.0584
     50 H11        82.9517   44.0132   53.5931 H         1 1NJ         0.0584
     51 H12        82.1636   42.8425   52.4818 H         1 1NJ         0.0584
     52 H13        86.1261   43.6331   50.5305 H         1 1NJ         0.0675
     53 H14        87.7380   41.7664   50.7824 H         1 1NJ         0.0733
     54 H15        89.2580   41.0473   52.8966 H         1 1NJ         0.0640
     55 H16        90.9869   39.2996   52.9733 H         1 1NJ         0.0687
     56 H17        88.0123   36.2972   52.2812 H         1 1NJ         0.0702
     57 H18        89.8906   35.8133   50.9642 H         1 1NJ         0.1848
     58 H19        92.1263   34.5319   52.3911 H         1 1NJ         0.0583
     59 H20        91.4619   34.1826   49.4171 H         1 1NJ         0.0580
     60 H21        92.9513   33.6738   50.2827 H         1 1NJ         0.0580
     61 H22        93.2091   35.6601   49.1431 H         1 1NJ         0.2095
     62 H23        89.3947   32.2853   53.5293 H         1 1NJ         0.0236
     63 H24        89.2052   34.0576   53.3068 H         1 1NJ         0.0236
     64 H25        90.6852   33.4035   54.0868 H         1 1NJ         0.0236
     65 H26        90.0096   32.7653   49.8849 H         1 1NJ         0.0236
     66 H27        88.7973   33.6559   50.8666 H         1 1NJ         0.0236
     67 H28        89.0280   31.8910   51.1090 H         1 1NJ         0.0236
     68 H29        92.3705   32.1411   52.7196 H         1 1NJ         0.0236
     69 H30        92.0675   31.8480   50.9735 H         1 1NJ         0.0236
     70 H31        91.0595   31.0235   52.2109 H         1 1NJ         0.0236
@<TRIPOS>BOND
     1    1    2 2  
     2    2    3 am 
     3    2   13 1  
     4    3    4 1  
     5    4    5 ar 
     6    4   12 ar 
     7    5    6 ar 
     8    6    7 ar 
     9    7    8 1  
    10    7   11 ar 
    11    8    9 ar 
    12    8   10 ar 
    13   11   12 ar 
    14   13   14 ar 
    15   13   20 ar 
    16   14   15 ar 
    17   15   16 1  
    18   15   18 ar 
    19   16   17 1  
    20   18   19 ar 
    21   19   20 ar 
    22   20   21 1  
    23   21   22 ar 
    24   21   24 ar 
    25   22   23 ar 
    26   23   29 ar 
    27   24   25 1  
    28   24   28 ar 
    29   25   26 ar 
    30   25   27 ar 
    31   28   29 ar 
    32   29   30 1  
    33   30   31 2  
    34   30   32 am 
    35   32   33 1  
    36   33   34 1  
    37   33   36 1  
    38   34   35 1  
    39   36   37 1  
    40   36   38 1  
    41   36   39 1  
    42    3   40 1  
    43    5   41 1  
    44    6   42 1  
    45    9   43 1  
    46    9   44 1  
    47   10   45 1  
    48   10   46 1  
    49   11   47 1  
    50   12   48 1  
    51   17   49 1  
    52   17   50 1  
    53   17   51 1  
    54   18   52 1  
    55   19   53 1  
    56   22   54 1  
    57   23   55 1  
    58   28   56 1  
    59   32   57 1  
    60   33   58 1  
    61   34   59 1  
    62   34   60 1  
    63   35   61 1  
    64   37   62 1  
    65   37   63 1  
    66   37   64 1  
    67   38   65 1  
    68   38   66 1  
    69   38   67 1  
    70   39   68 1  
    71   39   69 1  
    72   39   70 1  
@<TRIPOS>SUBSTRUCTURE
     1 1NJ         1

