### 
### Created by X-TOOL on Mon Sep 10 21:13:14 2018
### 

@<TRIPOS>MOLECULE
4jze_ligand
   71    74     1     0     0
SMALL
GAST_HUCK


@<TRIPOS>ATOM
      1 C1         15.9810   43.0750   22.2980 C.3       1 1NK        -0.0579
      2 C2         14.6890   42.2610   22.5020 C.3       1 1NK        -0.0126
      3 C3         14.7450   41.1200   21.4680 C.3       1 1NK        -0.0579
      4 C4         14.6970   41.6110   23.8940 C.3       1 1NK        -0.0579
      5 C5         13.4070   43.1410   22.4970 C.3       1 1NK         0.0694
      6 C6         13.3380   44.0430   21.2460 C.3       1 1NK         0.0676
      7 O7         12.1000   44.7570   21.1200 O.3       1 1NK        -0.3927
      8 N8         12.1460   42.3730   22.5790 N.am      1 1NK        -0.2805
      9 C9         11.2840   42.5110   23.6180 C.2       1 1NK         0.2053
     10 O10        11.3670   43.3780   24.4750 O.2       1 1NK        -0.3851
     11 C11        10.1340   41.5460   23.6580 C.ar      1 1NK         0.0527
     12 C12         8.8030   41.8960   23.9640 C.ar      1 1NK        -0.0395
     13 C13         7.7770   40.9310   23.9460 C.ar      1 1NK        -0.0454
     14 C14         8.0660   39.5920   23.6390 C.ar      1 1NK         0.0037
     15 C15         9.4110   39.2500   23.3720 C.ar      1 1NK         0.0227
     16 C16        10.4300   40.2080   23.3480 C.ar      1 1NK        -0.0278
     17 C17         9.8470   37.8720   22.9770 C.2       1 1NK         0.0639
     18 O18        10.7280   37.2870   23.6000 O.co2     1 1NK        -0.5609
     19 O19         9.2380   37.2960   21.9540 O.co2     1 1NK        -0.5609
     20 C20         6.9690   38.5590   23.6420 C.ar      1 1NK         0.0231
     21 C21         5.9470   38.7600   22.6920 C.ar      1 1NK        -0.0361
     22 C22         4.8790   37.8710   22.5270 C.ar      1 1NK         0.0016
     23 C23         4.8940   36.6970   23.3030 C.ar      1 1NK         0.1711
     24 N24         5.8890   36.4720   24.2220 N.ar      1 1NK        -0.2510
     25 C25         6.9080   37.3710   24.3940 C.ar      1 1NK         0.1263
     26 C26         7.9070   37.0480   25.4590 C.2       1 1NK         0.2507
     27 O27         8.4100   37.9100   26.1540 O.2       1 1NK        -0.3665
     28 N28         8.2660   35.7400   25.5510 N.am      1 1NK        -0.2285
     29 C29         8.8130   35.0920   26.6200 C.ar      1 1NK         0.0696
     30 C30         9.4200   33.8330   26.4460 C.ar      1 1NK        -0.0315
     31 C31         9.8690   33.0560   27.5220 C.ar      1 1NK        -0.0519
     32 C32         9.7580   33.5490   28.8320 C.ar      1 1NK         0.0226
     33 C33         9.2220   34.8400   29.0520 C.ar      1 1NK        -0.0306
     34 C34         8.7370   35.5710   27.9480 C.ar      1 1NK        -0.0368
     35 C35         9.1290   35.3900   30.3370 C.ar      1 1NK        -0.0578
     36 C36         9.6030   34.6270   31.4150 C.ar      1 1NK        -0.0205
     37 N37        10.1560   33.3960   31.2190 N.ar      1 1NK        -0.2986
     38 C38        10.2220   32.8570   29.9710 C.ar      1 1NK         0.1142
     39 N39        10.7490   31.6220   29.8970 N.pl3     1 1NK        -0.3170
     40 O40         3.8590   35.8800   23.0520 O.3       1 1NK        -0.2999
     41 C41         3.8520   34.5640   23.6980 C.3       1 1NK         0.0637
     42 H1         16.8473   42.3973   22.3116 H         1 1NK         0.0236
     43 H2         16.0806   43.8136   23.1070 H         1 1NK         0.0236
     44 H3         15.9376   43.5952   21.3298 H         1 1NK         0.0236
     45 H4         13.8439   40.4961   21.5613 H         1 1NK         0.0236
     46 H5         15.6379   40.5039   21.6498 H         1 1NK         0.0236
     47 H6         14.7931   41.5454   20.4547 H         1 1NK         0.0236
     48 H7         14.6578   42.3948   24.6648 H         1 1NK         0.0236
     49 H8         15.6169   41.0207   24.0178 H         1 1NK         0.0236
     50 H9         13.8220   40.9522   23.9961 H         1 1NK         0.0236
     51 H10        13.4603   43.7896   23.3838 H         1 1NK         0.0583
     52 H11        13.4675   43.4117   20.3546 H         1 1NK         0.0580
     53 H12        14.1575   44.7748   21.2993 H         1 1NK         0.0580
     54 H13        11.3825   44.1369   21.0632 H         1 1NK         0.2095
     55 H14        11.9213   41.7315   21.8455 H         1 1NK         0.1848
     56 H15         8.5656   42.9230   24.2169 H         1 1NK         0.0687
     57 H16         6.7579   41.2242   24.1706 H         1 1NK         0.0640
     58 H17        11.4429   39.9195   23.0915 H         1 1NK         0.0702
     59 H18         5.9903   39.6412   22.0622 H         1 1NK         0.0733
     60 H19         4.0742   38.0778   21.8309 H         1 1NK         0.0675
     61 H20         8.1099   35.1842   24.7345 H         1 1NK         0.2282
     62 H21         9.5447   33.4500   25.4396 H         1 1NK         0.0558
     63 H22        10.3005   32.0777   27.3437 H         1 1NK         0.0648
     64 H23         8.2869   36.5411   28.1250 H         1 1NK         0.0436
     65 H24         8.7039   36.3748   30.4938 H         1 1NK         0.0517
     66 H25         9.5283   35.0231   32.4213 H         1 1NK         0.0704
     67 H26        11.0767   31.1498   30.7517 H         1 1NK         0.1818
     68 H27        10.8250   31.1482   28.9856 H         1 1NK         0.1818
     69 H28         2.9482   34.0133   23.3984 H         1 1NK         0.0584
     70 H29         3.8582   34.6918   24.7905 H         1 1NK         0.0584
     71 H30         4.7443   33.9995   23.3898 H         1 1NK         0.0584
@<TRIPOS>BOND
     1    1    2 1  
     2    2    3 1  
     3    2    4 1  
     4    2    5 1  
     5    5    6 1  
     6    5    8 1  
     7    6    7 1  
     8    8    9 am 
     9    9   10 2  
    10    9   11 1  
    11   11   12 ar 
    12   11   16 ar 
    13   12   13 ar 
    14   13   14 ar 
    15   14   15 ar 
    16   14   20 1  
    17   15   16 ar 
    18   15   17 1  
    19   17   18 ar 
    20   17   19 ar 
    21   20   21 ar 
    22   20   25 ar 
    23   21   22 ar 
    24   22   23 ar 
    25   23   24 ar 
    26   23   40 1  
    27   24   25 ar 
    28   25   26 1  
    29   26   27 2  
    30   26   28 am 
    31   28   29 1  
    32   29   30 ar 
    33   29   34 ar 
    34   30   31 ar 
    35   31   32 ar 
    36   32   33 ar 
    37   32   38 ar 
    38   33   34 ar 
    39   33   35 ar 
    40   35   36 ar 
    41   36   37 ar 
    42   37   38 ar 
    43   38   39 1  
    44   40   41 1  
    45    1   42 1  
    46    1   43 1  
    47    1   44 1  
    48    3   45 1  
    49    3   46 1  
    50    3   47 1  
    51    4   48 1  
    52    4   49 1  
    53    4   50 1  
    54    5   51 1  
    55    6   52 1  
    56    6   53 1  
    57    7   54 1  
    58    8   55 1  
    59   12   56 1  
    60   13   57 1  
    61   16   58 1  
    62   21   59 1  
    63   22   60 1  
    64   28   61 1  
    65   30   62 1  
    66   31   63 1  
    67   34   64 1  
    68   35   65 1  
    69   36   66 1  
    70   39   67 1  
    71   39   68 1  
    72   41   69 1  
    73   41   70 1  
    74   41   71 1  
@<TRIPOS>SUBSTRUCTURE
     1 1NK         1

