### 
### Created by X-TOOL on Mon Sep 10 21:13:13 2018
### 

@<TRIPOS>MOLECULE
4jzf_ligand
   68    70     1     0     0
SMALL
GAST_HUCK


@<TRIPOS>ATOM
      1 C1         14.7740   41.9080   23.7590 C.3       1 1NL        -0.0579
      2 C2         14.7230   42.4460   22.3180 C.3       1 1NL        -0.0126
      3 C3         16.0050   43.2760   22.1320 C.3       1 1NL        -0.0579
      4 C4         14.8530   41.2580   21.3410 C.3       1 1NL        -0.0579
      5 C5         13.4020   43.2350   22.1690 C.3       1 1NL         0.0694
      6 C6         13.2630   44.1230   20.9170 C.3       1 1NL         0.0676
      7 O7         12.0300   44.8540   20.9740 O.3       1 1NL        -0.3927
      8 N8         12.1700   42.5160   22.5100 N.am      1 1NL        -0.2805
      9 C9         11.3510   42.6270   23.5700 C.2       1 1NL         0.2053
     10 O10        11.4640   43.4870   24.4280 O.2       1 1NL        -0.3851
     11 C11        10.1970   41.6780   23.6420 C.ar      1 1NL         0.0527
     12 C12         8.8800   42.0590   23.9400 C.ar      1 1NL        -0.0395
     13 C13         7.8280   41.1330   23.9330 C.ar      1 1NL        -0.0455
     14 C14         8.0660   39.7920   23.5870 C.ar      1 1NL         0.0037
     15 C15         9.3790   39.4160   23.2700 C.ar      1 1NL         0.0227
     16 C16        10.4410   40.3350   23.2840 C.ar      1 1NL        -0.0278
     17 C17         9.8300   38.0470   22.8720 C.2       1 1NL         0.0639
     18 O18         9.2160   37.5020   21.9580 O.co2     1 1NL        -0.5609
     19 O19        10.7890   37.3710   23.4620 O.co2     1 1NL        -0.5609
     20 C20         6.9310   38.8090   23.5460 C.ar      1 1NL         0.0231
     21 C21         5.9440   39.0190   22.5620 C.ar      1 1NL        -0.0361
     22 C22         4.8710   38.1370   22.3840 C.ar      1 1NL         0.0016
     23 C23         4.8630   36.9640   23.1590 C.ar      1 1NL         0.1711
     24 N24         5.8430   36.7410   24.0750 N.ar      1 1NL        -0.2510
     25 C25         6.8470   37.6230   24.2740 C.ar      1 1NL         0.1257
     26 C26         7.7770   37.1550   25.3270 C.2       1 1NL         0.2486
     27 O27         8.2440   38.0620   26.0140 O.2       1 1NL        -0.3677
     28 N28         8.1620   35.9020   25.6200 N.am      1 1NL        -0.2305
     29 C29         8.9280   35.3050   26.5480 C.ar      1 1NL         0.0717
     30 C30         9.9840   34.4280   26.2700 C.ar      1 1NL        -0.0368
     31 C31        10.7750   33.8850   27.2870 C.ar      1 1NL        -0.0698
     32 C32        10.5480   34.2350   28.6190 C.ar      1 1NL        -0.0573
     33 C33         9.5160   35.1290   28.9310 C.ar      1 1NL         0.0362
     34 C34         8.7280   35.6770   27.9050 C.ar      1 1NL        -0.0214
     35 C35         9.2360   35.4980   30.3630 C.2       1 1NL         0.1990
     36 O36         8.7890   36.6040   30.6440 O.2       1 1NL        -0.3849
     37 N37         9.4870   34.5970   31.3230 N.am      1 1NL        -0.3002
     38 O38         3.8740   36.0980   22.9330 O.3       1 1NL        -0.2999
     39 C39         3.8100   34.8050   23.6140 C.3       1 1NL         0.0637
     40 H1         15.7036   41.3383   23.9050 H         1 1NL         0.0236
     41 H2         13.9097   41.2510   23.9359 H         1 1NL         0.0236
     42 H3         14.7453   42.7501   24.4661 H         1 1NL         0.0236
     43 H4         16.0284   43.6913   21.1137 H         1 1NL         0.0236
     44 H5         16.8839   42.6327   22.2859 H         1 1NL         0.0236
     45 H6         16.0193   44.0975   22.8634 H         1 1NL         0.0236
     46 H7         13.9624   40.6175   21.4221 H         1 1NL         0.0236
     47 H8         15.7497   40.6727   21.5927 H         1 1NL         0.0236
     48 H9         14.9394   41.6372   20.3121 H         1 1NL         0.0236
     49 H10        13.4831   43.9736   22.9801 H         1 1NL         0.0583
     50 H11        13.2708   43.4899   20.0175 H         1 1NL         0.0580
     51 H12        14.1049   44.8298   20.8753 H         1 1NL         0.0580
     52 H13        11.9502   45.3991   20.2000 H         1 1NL         0.2095
     53 H14        11.8924   41.8267   21.8408 H         1 1NL         0.1848
     54 H15         8.6710   43.0949   24.1816 H         1 1NL         0.0687
     55 H16         6.8261   41.4527   24.1957 H         1 1NL         0.0640
     56 H17        11.4426   40.0144   23.0212 H         1 1NL         0.0702
     57 H18         6.0179   39.8912   21.9225 H         1 1NL         0.0733
     58 H19         4.0778   38.3502   21.6766 H         1 1NL         0.0675
     59 H20         7.7769   35.2388   24.9782 H         1 1NL         0.2255
     60 H21        10.1934   34.1634   25.2399 H         1 1NL         0.0538
     61 H22        11.5683   33.1889   27.0399 H         1 1NL         0.0589
     62 H23        11.1658   33.8180   29.4061 H         1 1NL         0.0540
     63 H24         7.9548   36.3953   28.1525 H         1 1NL         0.0554
     64 H25         9.3076   34.8233   32.2804 H         1 1NL         0.1808
     65 H26         9.8537   33.6984   31.0819 H         1 1NL         0.1808
     66 H27         2.9170   34.2575   23.2781 H         1 1NL         0.0584
     67 H28         3.7545   34.9653   24.7008 H         1 1NL         0.0584
     68 H29         4.7103   34.2198   23.3751 H         1 1NL         0.0584
@<TRIPOS>BOND
     1    1    2 1  
     2    2    3 1  
     3    2    4 1  
     4    2    5 1  
     5    5    6 1  
     6    5    8 1  
     7    6    7 1  
     8    8    9 am 
     9    9   10 2  
    10    9   11 1  
    11   11   12 ar 
    12   11   16 ar 
    13   12   13 ar 
    14   13   14 ar 
    15   14   15 ar 
    16   14   20 1  
    17   15   16 ar 
    18   15   17 1  
    19   17   18 ar 
    20   17   19 ar 
    21   20   21 ar 
    22   20   25 ar 
    23   21   22 ar 
    24   22   23 ar 
    25   23   24 ar 
    26   23   38 1  
    27   24   25 ar 
    28   25   26 1  
    29   26   27 2  
    30   26   28 am 
    31   28   29 1  
    32   29   30 ar 
    33   29   34 ar 
    34   30   31 ar 
    35   31   32 ar 
    36   32   33 ar 
    37   33   34 ar 
    38   33   35 1  
    39   35   36 2  
    40   35   37 am 
    41   38   39 1  
    42    1   40 1  
    43    1   41 1  
    44    1   42 1  
    45    3   43 1  
    46    3   44 1  
    47    3   45 1  
    48    4   46 1  
    49    4   47 1  
    50    4   48 1  
    51    5   49 1  
    52    6   50 1  
    53    6   51 1  
    54    7   52 1  
    55    8   53 1  
    56   12   54 1  
    57   13   55 1  
    58   16   56 1  
    59   21   57 1  
    60   22   58 1  
    61   28   59 1  
    62   30   60 1  
    63   31   61 1  
    64   32   62 1  
    65   34   63 1  
    66   37   64 1  
    67   37   65 1  
    68   39   66 1  
    69   39   67 1  
    70   39   68 1  
@<TRIPOS>SUBSTRUCTURE
     1 1NL         1

