### 
### Created by X-TOOL on Mon Sep 10 21:13:19 2018
### 

@<TRIPOS>MOLECULE
4jzi_ligand
   68    71     1     0     0
SMALL
GAST_HUCK


@<TRIPOS>ATOM
      1 O3         12.9620   62.5560   26.5210 O.2       1 N4C        -0.3797
      2 C8         14.1550   62.7850   26.6470 C.2       1 N4C         0.2099
      3 N2         14.8300   62.7040   27.7910 N.am      1 N4C        -0.2817
      4 C9         14.3010   62.3530   29.1030 C.3       1 N4C         0.0421
      5 C14        12.8900   61.7880   29.1160 C.3       1 N4C        -0.0248
      6 C13        12.4430   61.5960   30.5600 C.3       1 N4C        -0.0077
      7 C12        12.2390   62.9710   31.1620 C.3       1 N4C        -0.0242
      8 N3         11.6240   62.9010   32.4670 N.4       1 N4C         0.2207
      9 C11        13.6390   63.5640   31.2750 C.3       1 N4C        -0.0077
     10 C10        14.3090   63.6570   29.9020 C.3       1 N4C        -0.0248
     11 C5         14.9550   63.2060   25.4600 C.ar      1 N4C         0.0532
     12 C1         15.9390   62.3930   24.9100 C.ar      1 N4C         0.0076
     13 C4         14.7220   64.4550   24.9160 C.ar      1 N4C         0.0076
     14 C3         15.4640   64.8630   23.8230 C.ar      1 N4C         0.1837
     15 O2         15.2300   66.1020   23.3040 O.3       1 N4C        -0.2411
     16 C6         14.8340   66.3180   22.0180 C.ar      1 N4C         0.1200
     17 C24        13.4800   66.3280   21.7440 C.ar      1 N4C        -0.0277
     18 C23        13.0560   66.5900   20.4490 C.ar      1 N4C        -0.0641
     19 C22        13.9720   66.8280   19.4220 C.ar      1 N4C         0.0155
     20 C26        13.4570   67.1100   18.0270 C.cat     1 N4C         0.2299
     21 N7         12.2680   67.5360   17.8710 N.pl3     1 N4C        -0.2732
     22 N6         14.2380   66.9320   16.9600 N.pl3     1 N4C        -0.2732
     23 C21        15.3350   66.8270   19.7130 C.ar      1 N4C        -0.0641
     24 C20        15.7630   66.5740   21.0120 C.ar      1 N4C        -0.0277
     25 N1         16.4150   64.0660   23.2830 N.ar      1 N4C        -0.2373
     26 C2         16.6660   62.8450   23.8020 C.ar      1 N4C         0.1837
     27 O1         17.6420   62.0920   23.2160 O.3       1 N4C        -0.2411
     28 C7         18.2510   61.0910   23.9140 C.ar      1 N4C         0.1200
     29 C19        18.8820   61.3510   25.1370 C.ar      1 N4C        -0.0277
     30 C18        19.4840   60.3160   25.8410 C.ar      1 N4C        -0.0641
     31 C17        19.4680   59.0220   25.3220 C.ar      1 N4C         0.0155
     32 C25        20.1350   57.9210   26.0960 C.cat     1 N4C         0.2299
     33 N5         20.0970   56.6710   25.6770 N.pl3     1 N4C        -0.2732
     34 N4         20.7560   58.1900   27.1480 N.pl3     1 N4C        -0.2732
     35 C16        18.8390   58.7760   24.1050 C.ar      1 N4C        -0.0641
     36 C15        18.2250   59.8060   23.4010 C.ar      1 N4C        -0.0277
     37 H          15.8083   62.9063   27.7455 H         1 N4C         0.1851
     38 H          14.9705   61.6155   29.5697 H         1 N4C         0.0556
     39 H          12.8761   60.8197   28.5943 H         1 N4C         0.0289
     40 H          12.2085   62.4872   28.6094 H         1 N4C         0.0289
     41 H          13.2152   61.0509   31.1226 H         1 N4C         0.0320
     42 H          11.5002   61.0301   30.5889 H         1 N4C         0.0320
     43 H          11.6119   63.5857   30.4996 H         1 N4C         0.0850
     44 H          11.5054   63.8327   32.8329 H         1 N4C         0.1997
     45 H          12.2131   62.3686   33.0880 H         1 N4C         0.1997
     46 H          10.7243   62.4529   32.3909 H         1 N4C         0.1997
     47 H          14.2487   62.9242   31.9299 H         1 N4C         0.0320
     48 H          13.5685   64.5720   31.7096 H         1 N4C         0.0320
     49 H          13.7827   64.4234   29.3141 H         1 N4C         0.0289
     50 H          15.3552   63.9628   30.0502 H         1 N4C         0.0289
     51 H          16.1420   61.4168   25.3354 H         1 N4C         0.0602
     52 H          13.9670   65.1065   25.3409 H         1 N4C         0.0602
     53 H          12.7589   66.1339   22.5297 H         1 N4C         0.0555
     54 H          11.9944   66.6103   20.2305 H         1 N4C         0.0591
     55 H          11.9105   67.7301   16.9247 H         1 N4C         0.3180
     56 H          11.6632   67.6867   18.6910 H         1 N4C         0.3180
     57 H          15.2014   66.5875   17.0787 H         1 N4C         0.3180
     58 H          13.8775   67.1391   16.0176 H         1 N4C         0.3180
     59 H          16.0587   67.0226   18.9300 H         1 N4C         0.0591
     60 H          16.8223   66.5760   21.2422 H         1 N4C         0.0555
     61 H          18.9006   62.3595   25.5340 H         1 N4C         0.0555
     62 H          19.9653   60.5139   26.7919 H         1 N4C         0.0591
     63 H          20.5609   55.9307   26.2225 H         1 N4C         0.3180
     64 H          19.6034   56.4352   24.8042 H         1 N4C         0.3180
     65 H          20.7953   59.1612   27.4888 H         1 N4C         0.3180
     66 H          21.2281   57.4403   27.6734 H         1 N4C         0.3180
     67 H          18.8276   57.7700   23.7014 H         1 N4C         0.0591
     68 H          17.7300   59.6040   22.4580 H         1 N4C         0.0555
@<TRIPOS>BOND
     1    1    2 2  
     2    2    3 am 
     3    2   11 1  
     4    3    4 1  
     5    4    5 1  
     6    4   10 1  
     7    5    6 1  
     8    6    7 1  
     9    7    8 1  
    10    7    9 1  
    11    9   10 1  
    12   11   12 ar 
    13   11   13 ar 
    14   12   26 ar 
    15   13   14 ar 
    16   14   15 1  
    17   14   25 ar 
    18   15   16 1  
    19   16   17 ar 
    20   16   24 ar 
    21   17   18 ar 
    22   18   19 ar 
    23   19   20 1  
    24   19   23 ar 
    25   20   21 ar 
    26   20   22 ar 
    27   23   24 ar 
    28   25   26 ar 
    29   26   27 1  
    30   27   28 1  
    31   28   29 ar 
    32   28   36 ar 
    33   29   30 ar 
    34   30   31 ar 
    35   31   32 1  
    36   31   35 ar 
    37   32   33 ar 
    38   32   34 ar 
    39   35   36 ar 
    40    3   37 1  
    41    4   38 1  
    42    5   39 1  
    43    5   40 1  
    44    6   41 1  
    45    6   42 1  
    46    7   43 1  
    47    8   44 1  
    48    8   45 1  
    49    8   46 1  
    50    9   47 1  
    51    9   48 1  
    52   10   49 1  
    53   10   50 1  
    54   12   51 1  
    55   13   52 1  
    56   17   53 1  
    57   18   54 1  
    58   21   55 1  
    59   21   56 1  
    60   22   57 1  
    61   22   58 1  
    62   23   59 1  
    63   24   60 1  
    64   29   61 1  
    65   30   62 1  
    66   33   63 1  
    67   33   64 1  
    68   34   65 1  
    69   34   66 1  
    70   35   67 1  
    71   36   68 1  
@<TRIPOS>SUBSTRUCTURE
     1 N4C         1

