### 
### Created by X-TOOL on Mon Sep 10 21:13:15 2018
### 

@<TRIPOS>MOLECULE
4jzr_ligand
   59    63     1     0     0
SMALL
GAST_HUCK


@<TRIPOS>ATOM
      1 N1         40.7090   18.8840   -4.5670 N.pl3     1 4JR        -0.2491
      2 N3         42.3830   21.9920   -4.5080 N.4       1 4JR         0.2519
      3 C4         41.1160   20.0520   -4.0260 C.2       1 4JR         0.1602
      4 C5         42.4850   20.6380   -4.0510 C.3       1 4JR         0.0442
      5 C6         43.5300   22.7770   -3.9370 C.3       1 4JR        -0.0305
      6 C7         44.9150   22.5160   -4.5060 C.3       1 4JR         0.0002
      7 C8         44.9530   22.5970   -6.0320 C.3       1 4JR         0.0687
      8 C10        46.3820   22.7600   -7.9150 C.3       1 4JR         0.0564
      9 C13        45.4240   25.7030   -9.4410 C.ar      1 4JR        -0.0377
     10 C15        46.9680   27.5540   -9.8250 C.ar      1 4JR        -0.0314
     11 C17        47.3260   25.9370   -8.0250 C.ar      1 4JR        -0.0377
     12 C20        47.1220   30.3160  -12.3540 C.ar      1 4JR        -0.0636
     13 C21        48.3180   30.9420  -12.0210 C.ar      1 4JR        -0.0638
     14 C22        49.0640   30.4500  -10.9620 C.ar      1 4JR        -0.0636
     15 C24        43.7700   21.7730   -6.5710 C.3       1 4JR         0.0002
     16 C1         41.4450   17.8520   -5.3130 C.3       1 4JR         0.0464
     17 C2         39.4060   18.7960   -4.3110 C.2       1 4JR         0.0278
     18 C3         38.9970   19.8570   -3.6320 C.2       1 4JR        -0.0364
     19 N2         40.0830   20.6660   -3.4580 N.2       1 4JR        -0.3345
     20 C25        42.4350   22.1410   -5.9220 C.3       1 4JR        -0.0305
     21 C11        44.9940   24.0230   -6.5440 C.2       1 4JR         0.2314
     22 O          44.4110   24.9840   -6.0520 O.2       1 4JR        -0.3347
     23 C9         46.2610   22.0210   -6.5840 C.3       1 4JR        -0.0142
     24 N4         45.8050   24.0810   -7.6110 N.am      1 4JR        -0.2173
     25 C12        46.1700   25.2480   -8.3610 C.ar      1 4JR         0.0731
     26 C14        45.8080   26.8350  -10.1640 C.ar      1 4JR        -0.0655
     27 C16        47.7180   27.0700   -8.7400 C.ar      1 4JR        -0.0655
     28 C18        47.3950   28.6930  -10.5560 C.ar      1 4JR        -0.0271
     29 C23        48.6020   29.3450  -10.2580 C.ar      1 4JR        -0.0577
     30 C19        46.6670   29.2080  -11.6370 C.ar      1 4JR        -0.0577
     31 H1         41.5106   22.3732   -4.1768 H         1 4JR         0.2053
     32 H2         42.9174   20.6177   -3.0398 H         1 4JR         0.1055
     33 H3         43.1247   20.0611   -4.7351 H         1 4JR         0.1055
     34 H4         43.5715   22.5619   -2.8590 H         1 4JR         0.0813
     35 H5         43.3073   23.8433   -4.0899 H         1 4JR         0.0813
     36 H6         45.2372   21.5100   -4.1993 H         1 4JR         0.0308
     37 H7         45.6098   23.2642   -4.0969 H         1 4JR         0.0308
     38 H8         45.8099   22.2503   -8.7042 H         1 4JR         0.0591
     39 H9         47.4339   22.8492   -8.2241 H         1 4JR         0.0591
     40 H10        44.5257   25.1688   -9.7286 H         1 4JR         0.0515
     41 H11        47.9330   25.5910   -7.1962 H         1 4JR         0.0515
     42 H12        46.5342   30.6939  -13.1827 H         1 4JR         0.0612
     43 H13        48.6622   31.8032  -12.5822 H         1 4JR         0.0600
     44 H14        49.9994   30.9229  -10.6854 H         1 4JR         0.0612
     45 H15        43.9697   20.7082   -6.3804 H         1 4JR         0.0308
     46 H16        43.6905   21.9429   -7.6549 H         1 4JR         0.0308
     47 H17        40.7573   17.0395   -5.5904 H         1 4JR         0.0581
     48 H18        42.2524   17.4500   -4.6833 H         1 4JR         0.0581
     49 H19        41.8757   18.2946   -6.2233 H         1 4JR         0.0581
     50 H20        38.7668   17.9689   -4.6165 H         1 4JR         0.0796
     51 H21        37.9848   20.0482   -3.2788 H         1 4JR         0.0408
     52 H22        42.2201   23.1931   -6.1607 H         1 4JR         0.0813
     53 H23        41.6563   21.4992   -6.3599 H         1 4JR         0.0813
     54 H24        46.1897   20.9335   -6.7334 H         1 4JR         0.0281
     55 H25        47.1099   22.2452   -5.9214 H         1 4JR         0.0281
     56 H26        45.2018   27.1645  -11.0001 H         1 4JR         0.0592
     57 H27        48.6242   27.5897   -8.4507 H         1 4JR         0.0592
     58 H28        49.2030   28.9678   -9.4385 H         1 4JR         0.0603
     59 H29        45.7330   28.7372  -11.9218 H         1 4JR         0.0603
@<TRIPOS>BOND
     1    3    1 1  
     2    1   16 1  
     3    1   17 1  
     4    2    4 1  
     5    5    2 1  
     6   20    2 1  
     7    4    3 1  
     8    3   19 2  
     9    6    5 1  
    10    7    6 1  
    11    7   15 1  
    12   21    7 1  
    13    7   23 1  
    14    8   23 1  
    15   24    8 1  
    16    9   25 ar 
    17   26    9 ar 
    18   10   26 ar 
    19   10   27 ar 
    20   28   10 1  
    21   11   25 ar 
    22   27   11 ar 
    23   13   12 ar 
    24   12   30 ar 
    25   14   13 ar 
    26   29   14 ar 
    27   15   20 1  
    28   18   17 2  
    29   19   18 1  
    30   21   22 2  
    31   24   21 am 
    32   25   24 1  
    33   28   29 ar 
    34   28   30 ar 
    35    2   31 1  
    36    4   32 1  
    37    4   33 1  
    38    5   34 1  
    39    5   35 1  
    40    6   36 1  
    41    6   37 1  
    42    8   38 1  
    43    8   39 1  
    44    9   40 1  
    45   11   41 1  
    46   12   42 1  
    47   13   43 1  
    48   14   44 1  
    49   15   45 1  
    50   15   46 1  
    51   16   47 1  
    52   16   48 1  
    53   16   49 1  
    54   17   50 1  
    55   18   51 1  
    56   20   52 1  
    57   20   53 1  
    58   23   54 1  
    59   23   55 1  
    60   26   56 1  
    61   27   57 1  
    62   29   58 1  
    63   30   59 1  
@<TRIPOS>SUBSTRUCTURE
     1 4JR         1

