### 
### Created by X-TOOL on Mon Sep 10 21:13:13 2018
### 

@<TRIPOS>MOLECULE
4k0o_ligand
   54    55     1     0     0
SMALL
GAST_HUCK


@<TRIPOS>ATOM
      1 C1        -12.1690   29.4130    5.4730 C.3       1 NAG         0.1854
      2 C2        -12.7520   28.9960    4.2090 C.3       1 NAG         0.1210
      3 C3        -13.7630   28.0170    4.3440 C.3       1 NAG         0.1111
      4 C4        -13.4280   26.8790    5.1790 C.3       1 NAG         0.1116
      5 C5        -12.8890   27.3320    6.5150 C.3       1 NAG         0.1130
      6 C6        -12.3510   26.2480    7.1720 C.3       1 NAG         0.0730
      7 C7        -12.6130   30.8260    2.5410 C.2       1 NAG         0.1733
      8 C8        -11.3740   30.2620    2.0520 C.3       1 NAG         0.0257
      9 N2        -13.3370   30.2300    3.6000 N.am      1 NAG        -0.2766
     10 O1        -11.0590   30.2190    5.2180 O.3       1 NAG        -0.3403
     11 O3        -14.0620   27.5540    3.0150 O.3       1 NAG        -0.3867
     12 O4        -14.5410   26.1040    5.4050 O.3       1 NAG        -0.3865
     13 O5        -11.7640   28.2370    6.1520 O.3       1 NAG        -0.3408
     14 O6        -11.0510   26.0040    6.8360 O.3       1 NAG        -0.3924
     15 O7        -13.0440   31.8250    2.0300 O.2       1 NAG        -0.3974
     16 C1         -9.6020   33.2290    6.8740 C.3       1 MBG         0.1876
     17 C2        -10.1820   32.3880    5.8330 C.3       1 MBG         0.1345
     18 C3        -10.8580   31.1980    6.3060 C.3       1 MBG         0.1206
     19 C4        -10.2620   30.5100    7.3960 C.3       1 MBG         0.1123
     20 C5         -9.9930   31.4750    8.5290 C.3       1 MBG         0.1130
     21 C6         -9.3800   30.8380    9.5810 C.3       1 MBG         0.0730
     22 C7         -7.3460   33.6950    6.2330 C.3       1 MBG         0.0395
     23 O1         -8.6570   34.0780    6.3450 O.3       1 MBG        -0.3520
     24 O2        -11.1910   33.2310    5.2770 O.3       1 MBG        -0.3841
     25 O4         -9.0160   30.2030    6.9110 O.3       1 MBG        -0.3865
     26 O5         -9.0550   32.4730    7.9380 O.3       1 MBG        -0.3405
     27 O6         -8.1930   30.2260    9.3070 O.3       1 MBG        -0.3924
     28 H1        -12.9056   29.9671    6.0734 H         1 NAG         0.0935
     29 H2        -11.9598   28.5935    3.5606 H         1 NAG         0.0633
     30 H3        -14.6530   28.4985    4.7754 H         1 NAG         0.0645
     31 H4        -12.6639   26.2765    4.6660 H         1 NAG         0.0647
     32 H5        -13.6548   27.8337    7.1248 H         1 NAG         0.0647
     33 H6        -12.9484   25.3581    6.9248 H         1 NAG         0.0584
     34 H7        -12.4025   26.4351    8.2547 H         1 NAG         0.0584
     35 H8        -10.9864   30.8842    1.2318 H         1 NAG         0.0467
     36 H9        -11.5558   29.2416    1.6837 H         1 NAG         0.0467
     37 H10       -10.6376   30.2314    2.8685 H         1 NAG         0.0467
     38 H11       -14.1999   30.6160    3.9262 H         1 NAG         0.1857
     39 H12       -14.7975   26.9536    3.0480 H         1 NAG         0.2100
     40 H13       -14.2998   25.3515    5.9324 H         1 NAG         0.2100
     41 H14       -10.5214   26.7624    7.0526 H         1 NAG         0.2095
     42 H15       -10.4127   33.8454    7.2898 H         1 NAG         0.0937
     43 H16        -9.4167   32.1103    5.0934 H         1 NAG         0.0671
     44 H17       -11.8499   31.5298    6.6465 H         1 NAG         0.0651
     45 H18       -10.8451   29.6347    7.7182 H         1 NAG         0.0647
     46 H19       -10.9232   31.9529    8.8699 H         1 NAG         0.0647
     47 H20       -10.0729   30.0717    9.9587 H         1 NAG         0.0584
     48 H21        -9.1978   31.5866   10.3661 H         1 NAG         0.0584
     49 H22        -6.7614   34.5141    5.7887 H         1 NAG         0.0525
     50 H23        -7.2776   32.8051    5.5901 H         1 NAG         0.0525
     51 H24        -6.9466   33.4585    7.2303 H         1 NAG         0.0525
     52 H25       -11.8282   33.4453    5.9481 H         1 NAG         0.2101
     53 H26        -8.4975   29.8068    7.6014 H         1 NAG         0.2100
     54 H27        -8.3266   29.5623    8.6406 H         1 NAG         0.2095
@<TRIPOS>BOND
     1    1    2 1  
     2   10    1 1  
     3    1   13 1  
     4    2    3 1  
     5    2    9 1  
     6    3    4 1  
     7    3   11 1  
     8    5    4 1  
     9    4   12 1  
    10    5    6 1  
    11   13    5 1  
    12    6   14 1  
    13    7    8 1  
    14    9    7 am 
    15    7   15 2  
    16   18   10 1  
    17   17   16 1  
    18   16   23 1  
    19   16   26 1  
    20   17   18 1  
    21   17   24 1  
    22   18   19 1  
    23   19   20 1  
    24   19   25 1  
    25   20   21 1  
    26   20   26 1  
    27   21   27 1  
    28   23   22 1  
    29    1   28 1  
    30    2   29 1  
    31    3   30 1  
    32    4   31 1  
    33    5   32 1  
    34    6   33 1  
    35    6   34 1  
    36    8   35 1  
    37    8   36 1  
    38    8   37 1  
    39    9   38 1  
    40   11   39 1  
    41   12   40 1  
    42   14   41 1  
    43   16   42 1  
    44   17   43 1  
    45   18   44 1  
    46   19   45 1  
    47   20   46 1  
    48   21   47 1  
    49   21   48 1  
    50   22   49 1  
    51   22   50 1  
    52   22   51 1  
    53   24   52 1  
    54   25   53 1  
    55   27   54 1  
@<TRIPOS>SUBSTRUCTURE
     1 NAG         1

