### 
### Created by X-TOOL on Mon Sep 10 21:13:13 2018
### 

@<TRIPOS>MOLECULE
4k0y_ligand
   45    48     1     0     0
SMALL
GAST_HUCK


@<TRIPOS>ATOM
      1 C1        -68.1470   45.2320    3.5330 C.ar      1 1OA        -0.0428
      2 C2        -68.6290   44.4120    4.5350 C.ar      1 1OA        -0.0418
      3 C3        -69.6850   43.5510    4.2590 C.ar      1 1OA         0.1157
      4 C4        -70.2560   43.5140    2.9900 C.ar      1 1OA        -0.0418
      5 C5        -69.7770   44.3290    1.9860 C.ar      1 1OA        -0.0428
      6 C6        -68.7380   45.2130    2.2660 C.ar      1 1OA         0.0609
      7 N7        -68.1640   46.0390    1.2960 N.am      1 1OA        -0.2434
      8 C8        -68.4010   46.0360   -0.0370 C.2       1 1OA         0.1958
      9 O9        -69.1950   45.3050   -0.6080 O.2       1 1OA        -0.3999
     10 C10       -67.5560   46.9450   -0.7910 C.2       1 1OA         0.0706
     11 C11       -67.4150   47.0330   -2.1900 C.2       1 1OA        -0.0016
     12 N12       -66.5160   47.9540   -2.4500 N.2       1 1OA        -0.2076
     13 N13       -66.0100   48.4710   -1.2530 N.pl3     1 1OA        -0.0986
     14 C14       -66.6400   47.8440   -0.2110 C.2       1 1OA         0.1677
     15 N15       -66.3370   48.1430    1.0590 N.2       1 1OA        -0.2885
     16 C16       -65.4220   49.0610    1.3370 C.2       1 1OA         0.0188
     17 C17       -64.7460   49.7130    0.2990 C.2       1 1OA         0.0392
     18 C18       -65.0590   49.4160   -0.9960 C.2       1 1OA         0.2764
     19 O19       -64.4160   50.0280   -2.0100 O.3       1 1OA        -0.2714
     20 C20       -65.0190   49.4020    2.7520 C.3       1 1OA         0.0196
     21 C21       -66.0150   48.8780    3.7860 C.3       1 1OA         0.0046
     22 C22       -65.4390   49.1700    5.1750 C.3       1 1OA        -0.0310
     23 N23       -64.2090   48.3840    5.3670 N.4       1 1OA         0.2273
     24 C24       -63.1580   48.8220    4.4320 C.3       1 1OA        -0.0310
     25 C25       -63.6620   48.7030    2.9850 C.3       1 1OA         0.0046
     26 F26       -70.1660   42.7380    5.2290 F         1 1OA        -0.1963
     27 H1        -67.3092   45.8912    3.7294 H         1 1OA         0.0493
     28 H2        -68.1888   44.4397    5.5252 H         1 1OA         0.0566
     29 H3        -71.0817   42.8408    2.7899 H         1 1OA         0.0566
     30 H4        -70.2041   44.2821    0.9908 H         1 1OA         0.0493
     31 H5        -67.5005   46.7110    1.6249 H         1 1OA         0.2223
     32 H6        -67.9565   46.4411   -2.9264 H         1 1OA         0.0676
     33 H7        -63.9770   50.4509    0.5227 H         1 1OA         0.0450
     34 H8        -63.9568   49.3789   -2.5300 H         1 1OA         0.2697
     35 H9        -64.9192   50.4921    2.8604 H         1 1OA         0.0527
     36 H10       -66.1533   47.7943    3.6578 H         1 1OA         0.0348
     37 H11       -66.9824   49.3878    3.6666 H         1 1OA         0.0348
     38 H12       -66.1755   48.8934    5.9438 H         1 1OA         0.0816
     39 H13       -65.2068   50.2419    5.2585 H         1 1OA         0.0816
     40 H14       -64.4105   47.4097    5.2050 H         1 1OA         0.2013
     41 H15       -63.8823   48.5069    6.3126 H         1 1OA         0.2013
     42 H16       -62.2679   48.1888    4.5613 H         1 1OA         0.0816
     43 H17       -62.8965   49.8696    4.6420 H         1 1OA         0.0816
     44 H18       -62.9157   49.1575    2.3168 H         1 1OA         0.0348
     45 H19       -63.7720   47.6363    2.7402 H         1 1OA         0.0348
@<TRIPOS>BOND
     1    1    2 ar 
     2    1    6 ar 
     3    2    3 ar 
     4    3    4 ar 
     5    3   26 1  
     6    4    5 ar 
     7    5    6 ar 
     8    6    7 1  
     9    7    8 am 
    10    8    9 2  
    11    8   10 1  
    12   10   11 1  
    13   10   14 2  
    14   11   12 2  
    15   12   13 1  
    16   13   14 1  
    17   13   18 1  
    18   14   15 1  
    19   15   16 2  
    20   16   17 1  
    21   16   20 1  
    22   17   18 2  
    23   18   19 1  
    24   20   21 1  
    25   20   25 1  
    26   21   22 1  
    27   22   23 1  
    28   23   24 1  
    29   24   25 1  
    30    1   27 1  
    31    2   28 1  
    32    4   29 1  
    33    5   30 1  
    34    7   31 1  
    35   11   32 1  
    36   17   33 1  
    37   19   34 1  
    38   20   35 1  
    39   21   36 1  
    40   21   37 1  
    41   22   38 1  
    42   22   39 1  
    43   23   40 1  
    44   23   41 1  
    45   24   42 1  
    46   24   43 1  
    47   25   44 1  
    48   25   45 1  
@<TRIPOS>SUBSTRUCTURE
     1 1OA         1

