### 
### Created by X-TOOL on Mon Sep 10 21:13:14 2018
### 

@<TRIPOS>MOLECULE
4k18_ligand
   43    46     1     0     0
SMALL
GAST_HUCK


@<TRIPOS>ATOM
      1 C1        -18.1740  -35.6130    5.2680 C.ar      1 1OB        -0.0459
      2 C2        -18.5000  -36.9440    5.4710 C.ar      1 1OB        -0.0329
      3 C3        -19.8300  -37.3080    5.7080 C.ar      1 1OB         0.0887
      4 C4        -20.8230  -36.3230    5.7260 C.ar      1 1OB        -0.0329
      5 C5        -20.4750  -34.9980    5.5140 C.ar      1 1OB        -0.0459
      6 C6        -19.1570  -34.6410    5.2790 C.ar      1 1OB        -0.0176
      7 C7        -18.7850  -33.1960    5.0640 C.3       1 1OB         0.0355
      8 C8        -18.1040  -32.9240    3.7450 C.2       1 1OB         0.0278
      9 C9        -17.2830  -31.8040    3.6440 C.2       1 1OB         0.0409
     10 C10       -16.6640  -31.5480    2.4510 C.2       1 1OB         0.2766
     11 N11       -16.8720  -32.3630    1.3890 N.pl3     1 1OB        -0.0985
     12 C12       -17.6910  -33.4380    1.5310 C.2       1 1OB         0.1682
     13 N13       -18.2920  -33.7070    2.6940 N.2       1 1OB        -0.2862
     14 C14       -17.7000  -34.0760    0.2850 C.2       1 1OB         0.0708
     15 C15       -16.8830  -33.3420   -0.5850 C.2       1 1OB        -0.0015
     16 N16       -16.3850  -32.3330    0.0780 N.2       1 1OB        -0.2074
     17 C17       -18.4850  -35.2510   -0.0380 C.2       1 1OB         0.1959
     18 O18       -18.4420  -35.6960   -1.1710 O.2       1 1OB        -0.3998
     19 N19       -19.2610  -35.7310    0.9630 N.am      1 1OB        -0.2434
     20 C20       -20.1380  -36.8230    0.9390 C.ar      1 1OB         0.0609
     21 C21       -20.6640  -37.2430    2.1570 C.ar      1 1OB        -0.0428
     22 C22       -21.5390  -38.3100    2.2120 C.ar      1 1OB        -0.0418
     23 C23       -21.8950  -38.9580    1.0410 C.ar      1 1OB         0.1157
     24 C24       -21.3790  -38.5500   -0.1760 C.ar      1 1OB        -0.0418
     25 C25       -20.5070  -37.4770   -0.2310 C.ar      1 1OB        -0.0428
     26 F26       -22.7450  -40.0030    1.0830 F         1 1OB        -0.1963
     27 O27       -15.8660  -30.4810    2.2770 O.3       1 1OB        -0.2714
     28 C28       -20.1680  -38.6770    5.9250 C.1       1 1OB         0.0937
     29 N29       -20.4280  -39.7680    6.0960 N.1       1 1OB        -0.3336
     30 H1        -17.1408  -35.3317    5.0993 H         1 1OB         0.0589
     31 H2        -17.7258  -37.7024    5.4463 H         1 1OB         0.0702
     32 H3        -21.8573  -36.5939    5.9045 H         1 1OB         0.0702
     33 H4        -21.2425  -34.2327    5.5323 H         1 1OB         0.0589
     34 H5        -18.1052  -32.8904    5.8730 H         1 1OB         0.0664
     35 H6        -19.7036  -32.5925    5.1092 H         1 1OB         0.0664
     36 H7        -17.1364  -31.1445    4.4981 H         1 1OB         0.0453
     37 H8        -16.6957  -33.5729   -1.6326 H         1 1OB         0.0676
     38 H9        -19.1998  -35.2418    1.8330 H         1 1OB         0.2223
     39 H10       -20.3848  -36.7287    3.0695 H         1 1OB         0.0493
     40 H11       -21.9434  -38.6373    3.1630 H         1 1OB         0.0566
     41 H12       -21.6574  -39.0702   -1.0854 H         1 1OB         0.0566
     42 H13       -20.1122  -37.1468   -1.1850 H         1 1OB         0.0493
     43 H14       -15.0010  -30.7733    2.0148 H         1 1OB         0.2697
@<TRIPOS>BOND
     1    1    2 ar 
     2    1    6 ar 
     3    2    3 ar 
     4    3    4 ar 
     5    3   28 1  
     6    4    5 ar 
     7    5    6 ar 
     8    6    7 1  
     9    7    8 1  
    10    8    9 1  
    11    8   13 2  
    12    9   10 2  
    13   10   11 1  
    14   10   27 1  
    15   11   12 1  
    16   11   16 1  
    17   12   13 1  
    18   12   14 2  
    19   14   15 1  
    20   14   17 1  
    21   15   16 2  
    22   17   18 2  
    23   17   19 am 
    24   19   20 1  
    25   20   21 ar 
    26   20   25 ar 
    27   21   22 ar 
    28   22   23 ar 
    29   23   24 ar 
    30   23   26 1  
    31   24   25 ar 
    32   28   29 3  
    33    1   30 1  
    34    2   31 1  
    35    4   32 1  
    36    5   33 1  
    37    7   34 1  
    38    7   35 1  
    39    9   36 1  
    40   15   37 1  
    41   19   38 1  
    42   21   39 1  
    43   22   40 1  
    44   24   41 1  
    45   25   42 1  
    46   27   43 1  
@<TRIPOS>SUBSTRUCTURE
     1 1OB         1

