### 
### Created by X-TOOL on Mon Sep 10 21:13:16 2018
### 

@<TRIPOS>MOLECULE
4k19_ligand
   79    82     1     0     0
SMALL
GAST_HUCK


@<TRIPOS>ATOM
      1 O34        31.0500   80.9770   64.2740 O.2       1 1OD        -0.3912
      2 C33        30.1190   80.2830   64.6620 C.2       1 1OD         0.1964
      3 C35        28.9050   80.1280   63.7740 C.ar      1 1OD         0.0700
      4 C40        28.5590   81.1590   62.9050 C.ar      1 1OD        -0.0617
      5 C39        27.4370   81.0410   62.0850 C.ar      1 1OD        -0.0763
      6 C38        26.6510   79.8980   62.1220 C.ar      1 1OD        -0.0372
      7 C37        27.0010   78.8730   62.9850 C.ar      1 1OD         0.1223
      8 O41        26.2460   77.7430   63.0280 O.3       1 1OD        -0.3357
      9 C36        28.1140   78.9870   63.8020 C.ar      1 1OD         0.1379
     10 O42        28.4150   77.9540   64.6360 O.3       1 1OD        -0.3312
     11 N32        30.1540   79.6900   65.8640 N.am      1 1OD        -0.2882
     12 C31        31.2170   79.7100   66.8660 C.3       1 1OD         0.0319
     13 C30        30.5670   79.6260   68.2520 C.3       1 1OD        -0.0123
     14 C29        30.3560   78.1800   68.7250 C.3       1 1OD         0.0357
     15 N14        30.1770   78.0630   70.1840 N.am      1 1OD        -0.2724
     16 C12        30.3210   76.9220   70.8810 C.2       1 1OD         0.1905
     17 O13        30.1360   76.9150   72.0870 O.2       1 1OD        -0.3960
     18 C10        30.6710   75.5880   70.2680 C.3       1 1OD         0.1184
     19 C9         32.1810   75.3200   70.2570 C.3       1 1OD         0.1134
     20 C43        32.6120   74.3550   71.3550 C.3       1 1OD        -0.0300
     21 O8         32.4890   74.7500   68.9860 O.3       1 1OD        -0.2783
     22 N11        30.3280   75.3880   68.8660 N.2       1 1OD        -0.3231
     23 C7         31.2960   74.9500   68.1950 C.2       1 1OD         0.1645
     24 C1         31.2510   74.6620   66.7260 C.ar      1 1OD         0.0714
     25 C6         30.2310   75.1550   65.9270 C.ar      1 1OD         0.1434
     26 O44        29.2340   75.9390   66.4140 O.3       1 1OD        -0.3277
     27 C5         30.2010   74.8620   64.5870 C.ar      1 1OD         0.1260
     28 O45        29.1900   75.3850   63.8420 O.3       1 1OD        -0.3349
     29 C4         31.1910   74.0690   64.0190 C.ar      1 1OD        -0.0342
     30 C3         32.2210   73.5710   64.8120 C.ar      1 1OD        -0.0731
     31 C2         32.2480   73.8700   66.1700 C.ar      1 1OD        -0.0578
     32 C15        29.8090   79.2740   70.9270 C.3       1 1OD         0.0357
     33 C16        28.3470   79.1330   71.3600 C.3       1 1OD        -0.0123
     34 C17        27.3790   79.7230   70.3350 C.3       1 1OD         0.0319
     35 N18        26.8240   78.6070   69.5780 N.am      1 1OD        -0.2882
     36 C19        25.5670   78.1650   69.6180 C.2       1 1OD         0.1964
     37 O20        24.7600   78.6700   70.3850 O.2       1 1OD        -0.3912
     38 C21        25.1470   76.9920   68.7690 C.ar      1 1OD         0.0700
     39 C26        25.8750   76.5790   67.6600 C.ar      1 1OD         0.1379
     40 O27        27.0010   77.2390   67.2820 O.3       1 1OD        -0.3312
     41 C25        25.4760   75.4690   66.9320 C.ar      1 1OD         0.1223
     42 O28        26.2010   75.0660   65.8480 O.3       1 1OD        -0.3357
     43 C24        24.3280   74.7720   67.2890 C.ar      1 1OD        -0.0372
     44 C23        23.5840   75.1870   68.3850 C.ar      1 1OD        -0.0763
     45 C22        23.9950   76.2920   69.1200 C.ar      1 1OD        -0.0617
     46 H1         29.1642   82.0574   62.8655 H         1 1OD         0.0544
     47 H2         27.1764   81.8500   61.4122 H         1 1OD         0.0508
     48 H3         25.7777   79.8089   61.4861 H         1 1OD         0.0543
     49 H4         26.6144   77.1414   63.6643 H         1 1OD         0.2443
     50 H5         28.5685   77.1691   64.1234 H         1 1OD         0.2472
     51 H6         29.3409   79.1615   66.1081 H         1 1OD         0.1840
     52 H7         31.7927   80.6434   66.7802 H         1 1OD         0.0519
     53 H8         31.8871   78.8507   66.7159 H         1 1OD         0.0519
     54 H9         29.5894   80.1288   68.2126 H         1 1OD         0.0304
     55 H10        31.2155   80.1412   68.9759 H         1 1OD         0.0304
     56 H11        31.2340   77.5854   68.4324 H         1 1OD         0.0523
     57 H12        29.4595   77.7782   68.2301 H         1 1OD         0.0523
     58 H13        30.1620   74.8208   70.8698 H         1 1OD         0.0636
     59 H14        32.7209   76.2698   70.3853 H         1 1OD         0.0697
     60 H15        33.6996   74.1996   71.3004 H         1 1OD         0.0261
     61 H16        32.0969   73.3925   71.2202 H         1 1OD         0.0261
     62 H17        32.3507   74.7764   72.3369 H         1 1OD         0.0261
     63 H18        28.6403   76.1688   65.7089 H         1 1OD         0.2494
     64 H19        29.2224   76.3333   63.8875 H         1 1OD         0.2444
     65 H20        31.1611   73.8387   62.9602 H         1 1OD         0.0566
     66 H21        32.9972   72.9540   64.3738 H         1 1OD         0.0518
     67 H22        33.0464   73.4854   66.7943 H         1 1OD         0.0568
     68 H23        29.9245   80.1578   70.2824 H         1 1OD         0.0523
     69 H24        30.4528   79.3795   71.8127 H         1 1OD         0.0523
     70 H25        28.2098   79.6559   72.3180 H         1 1OD         0.0304
     71 H26        28.1177   78.0649   71.4891 H         1 1OD         0.0304
     72 H27        27.9145   80.4073   69.6605 H         1 1OD         0.0519
     73 H28        26.5733   80.2691   70.8475 H         1 1OD         0.0519
     74 H29        27.4504   78.1239   68.9663 H         1 1OD         0.1840
     75 H30        27.3666   76.8229   66.5102 H         1 1OD         0.2472
     76 H31        27.0863   74.8558   66.1209 H         1 1OD         0.2443
     77 H32        24.0149   73.9080   66.7141 H         1 1OD         0.0543
     78 H33        22.6851   74.6505   68.6665 H         1 1OD         0.0508
     79 H34        23.4127   76.6130   69.9761 H         1 1OD         0.0544
@<TRIPOS>BOND
     1    1    2 2  
     2    2    3 1  
     3    2   11 am 
     4    3    4 ar 
     5    3    9 ar 
     6    4    5 ar 
     7    5    6 ar 
     8    6    7 ar 
     9    7    8 1  
    10    7    9 ar 
    11    9   10 1  
    12   11   12 1  
    13   12   13 1  
    14   13   14 1  
    15   14   15 1  
    16   15   16 am 
    17   15   32 1  
    18   16   17 2  
    19   16   18 1  
    20   18   19 1  
    21   18   22 1  
    22   19   20 1  
    23   19   21 1  
    24   21   23 1  
    25   22   23 2  
    26   23   24 1  
    27   24   25 ar 
    28   24   31 ar 
    29   25   26 1  
    30   25   27 ar 
    31   27   28 1  
    32   27   29 ar 
    33   29   30 ar 
    34   30   31 ar 
    35   32   33 1  
    36   33   34 1  
    37   34   35 1  
    38   35   36 am 
    39   36   37 2  
    40   36   38 1  
    41   38   39 ar 
    42   38   45 ar 
    43   39   40 1  
    44   39   41 ar 
    45   41   42 1  
    46   41   43 ar 
    47   43   44 ar 
    48   44   45 ar 
    49    4   46 1  
    50    5   47 1  
    51    6   48 1  
    52    8   49 1  
    53   10   50 1  
    54   11   51 1  
    55   12   52 1  
    56   12   53 1  
    57   13   54 1  
    58   13   55 1  
    59   14   56 1  
    60   14   57 1  
    61   18   58 1  
    62   19   59 1  
    63   20   60 1  
    64   20   61 1  
    65   20   62 1  
    66   26   63 1  
    67   28   64 1  
    68   29   65 1  
    69   30   66 1  
    70   31   67 1  
    71   32   68 1  
    72   32   69 1  
    73   33   70 1  
    74   33   71 1  
    75   34   72 1  
    76   34   73 1  
    77   35   74 1  
    78   40   75 1  
    79   42   76 1  
    80   43   77 1  
    81   44   78 1  
    82   45   79 1  
@<TRIPOS>SUBSTRUCTURE
     1 1OD         1

