### 
### Created by X-TOOL on Mon Sep 10 21:13:13 2018
### 

@<TRIPOS>MOLECULE
4k1b_ligand
   62    67     1     0     0
SMALL
GAST_HUCK


@<TRIPOS>ATOM
      1 C1        -44.5610   -1.9820    2.4500 C.ar      1 1OC        -0.0662
      2 C2        -45.4940   -1.1210    2.9980 C.ar      1 1OC        -0.0644
      3 C3        -46.2500   -0.3130    2.1730 C.ar      1 1OC        -0.0282
      4 C4        -46.0830   -0.3560    0.7980 C.ar      1 1OC         0.1396
      5 C5        -45.1360   -1.2320    0.2350 C.ar      1 1OC         0.0144
      6 C6        -44.3800   -2.0420    1.0810 C.ar      1 1OC        -0.0570
      7 C7        -44.9090   -1.3200   -1.2340 C.ar      1 1OC        -0.0068
      8 C8        -43.6360   -1.5730   -1.7640 C.ar      1 1OC        -0.0459
      9 C9        -43.5100   -1.6400   -3.1590 C.ar      1 1OC         0.0311
     10 C10       -42.3930   -1.8800   -4.0880 C.2       1 1OC         0.0679
     11 C11       -42.9080   -1.8260   -5.3360 C.2       1 1OC         0.0343
     12 N12       -44.2610   -1.5750   -5.2780 N.pl3     1 1OC        -0.2834
     13 C14       -44.6550   -1.4570   -3.9700 C.ar      1 1OC         0.1301
     14 N15       -45.8370   -1.2220   -3.4170 N.ar      1 1OC        -0.2875
     15 C16       -45.9830   -1.1590   -2.1130 C.ar      1 1OC         0.0009
     16 N17       -41.0520   -2.1150   -3.7290 N.am      1 1OC        -0.2611
     17 C18       -40.1090   -2.5850   -4.5840 C.2       1 1OC         0.1873
     18 O19       -40.3530   -2.8550   -5.7500 O.2       1 1OC        -0.4041
     19 C20       -38.7430   -2.7950   -4.1110 C.2       1 1OC         0.0693
     20 C21       -37.6830   -3.3140   -4.8730 C.2       1 1OC        -0.0018
     21 N22       -36.6160   -3.3620   -4.1260 N.2       1 1OC        -0.2106
     22 N23       -36.9140   -2.8760   -2.8500 N.pl3     1 1OC        -0.1368
     23 C24       -38.2370   -2.5170   -2.8280 C.2       1 1OC         0.1669
     24 N25       -38.7980   -2.0170   -1.7230 N.2       1 1OC        -0.2603
     25 C26       -38.0710   -1.8500   -0.6290 C.2       1 1OC         0.1152
     26 C27       -36.7080   -2.2100   -0.6160 C.2       1 1OC         0.0329
     27 C28       -36.1400   -2.7200   -1.7320 C.2       1 1OC         0.1129
     28 N29       -38.6400   -1.3280    0.5160 N.pl3     1 1OC        -0.2988
     29 C30       -40.0550   -1.5420    0.8210 C.3       1 1OC         0.0362
     30 C31       -40.0830   -2.5110    2.0000 C.3       1 1OC         0.0204
     31 C32       -40.8370   -1.9070    3.1940 C.3       1 1OC        -0.0051
     32 C33       -40.7680   -2.9100    4.3400 C.3       1 1OC        -0.0332
     33 N34       -41.4520   -4.1300    3.9100 N.4       1 1OC         0.2290
     34 C35       -40.7770   -4.7670    2.7640 C.3       1 1OC        -0.0015
     35 C36       -40.7390   -3.8210    1.5620 C.3       1 1OC         0.1451
     36 F37       -39.9730   -4.3880    0.5760 F         1 1OC        -0.2396
     37 F38       -46.8550    0.4630    0.0440 F         1 1OC        -0.1825
     38 H1        -43.9668   -2.6149    3.0992 H         1 1OC         0.0581
     39 H2        -45.6313   -1.0807    4.0725 H         1 1OC         0.0600
     40 H3        -46.9809    0.3613    2.6045 H         1 1OC         0.0601
     41 H4        -43.6466   -2.7222    0.6632 H         1 1OC         0.0604
     42 H5        -42.7776   -1.7122   -1.1169 H         1 1OC         0.0683
     43 H6        -42.3369   -1.9611   -6.2534 H         1 1OC         0.0683
     44 H7        -44.8832   -1.4889   -6.0943 H         1 1OC         0.2203
     45 H8        -46.9705   -0.9758   -1.7050 H         1 1OC         0.0752
     46 H9        -40.7778   -1.9239   -2.7865 H         1 1OC         0.2115
     47 H10       -37.7429   -3.6247   -5.9150 H         1 1OC         0.0676
     48 H11       -36.1157   -2.0780    0.2882 H         1 1OC         0.0596
     49 H12       -35.0879   -3.0010   -1.7411 H         1 1OC         0.1357
     50 H13       -38.0590   -0.7792    1.1657 H         1 1OC         0.1859
     51 H14       -40.5723   -1.9785   -0.0461 H         1 1OC         0.0528
     52 H15       -40.5361   -0.5914    1.0947 H         1 1OC         0.0528
     53 H16       -39.0483   -2.7187    2.3102 H         1 1OC         0.0352
     54 H17       -41.8863   -1.7224    2.9202 H         1 1OC         0.0321
     55 H18       -40.3647   -0.9604    3.4955 H         1 1OC         0.0321
     56 H19       -41.2653   -2.4962    5.2296 H         1 1OC         0.0814
     57 H20       -39.7177   -3.1342    4.5780 H         1 1OC         0.0814
     58 H21       -42.3958   -3.8973    3.6434 H         1 1OC         0.2014
     59 H22       -41.4709   -4.7809    4.6794 H         1 1OC         0.2014
     60 H23       -41.3225   -5.6810    2.4865 H         1 1OC         0.0842
     61 H24       -39.7475   -5.0272    3.0509 H         1 1OC         0.0842
     62 H25       -41.7576   -3.6333    1.1917 H         1 1OC         0.0709
@<TRIPOS>BOND
     1    1    2 ar 
     2    1    6 ar 
     3    2    3 ar 
     4    3    4 ar 
     5    4    5 ar 
     6    4   37 1  
     7    5    6 ar 
     8    5    7 1  
     9    7    8 ar 
    10    7   15 ar 
    11    8    9 ar 
    12    9   10 1  
    13    9   13 ar 
    14   10   11 2  
    15   10   16 1  
    16   11   12 1  
    17   12   13 1  
    18   13   14 ar 
    19   14   15 ar 
    20   16   17 am 
    21   17   18 2  
    22   17   19 1  
    23   19   20 1  
    24   19   23 2  
    25   20   21 2  
    26   21   22 1  
    27   22   23 1  
    28   22   27 1  
    29   23   24 1  
    30   24   25 2  
    31   25   26 1  
    32   25   28 1  
    33   26   27 2  
    34   28   29 1  
    35   29   30 1  
    36   30   31 1  
    37   30   35 1  
    38   31   32 1  
    39   32   33 1  
    40   33   34 1  
    41   34   35 1  
    42   35   36 1  
    43    1   38 1  
    44    2   39 1  
    45    3   40 1  
    46    6   41 1  
    47    8   42 1  
    48   11   43 1  
    49   12   44 1  
    50   15   45 1  
    51   16   46 1  
    52   20   47 1  
    53   26   48 1  
    54   27   49 1  
    55   28   50 1  
    56   29   51 1  
    57   29   52 1  
    58   30   53 1  
    59   31   54 1  
    60   31   55 1  
    61   32   56 1  
    62   32   57 1  
    63   33   58 1  
    64   33   59 1  
    65   34   60 1  
    66   34   61 1  
    67   35   62 1  
@<TRIPOS>SUBSTRUCTURE
     1 1OC         1

