### 
### Created by X-TOOL on Mon Sep 10 21:13:17 2018
### 

@<TRIPOS>MOLECULE
4k2f_ligand
   25    26     1     0     0
SMALL
GAST_HUCK


@<TRIPOS>ATOM
      1 CL1        35.4930   44.6440   58.9170 Cl        1 A08        -0.0768
      2 C1         35.8740   46.1090   57.9770 C.ar      1 A08         0.0334
      3 C2         35.2790   47.3460   58.2010 C.ar      1 A08        -0.0540
      4 C3         35.7250   48.3990   57.3160 C.ar      1 A08        -0.0550
      5 C4         36.7300   48.1600   56.3670 C.ar      1 A08        -0.0006
      6 C5         37.3210   46.9120   56.2050 C.ar      1 A08        -0.0550
      7 C6         36.9040   45.8980   57.0370 C.ar      1 A08        -0.0540
      8 C7         37.2380   49.2120   55.4420 C.3       1 A08         0.1641
      9 C8         36.2120   50.2810   55.3830 C.ar      1 A08         0.0651
     10 C9         35.2510   50.1140   54.4080 C.ar      1 A08        -0.0313
     11 C10        34.2500   50.9890   54.1620 C.ar      1 A08        -0.0507
     12 C11        34.2470   52.0470   54.9870 C.ar      1 A08        -0.0249
     13 C12        35.2350   52.1150   55.9330 C.ar      1 A08         0.1094
     14 N14        36.2490   51.3160   56.2110 N.ar      1 A08        -0.2785
     15 CL2        35.0070   53.4860   56.8460 Cl        1 A08        -0.0419
     16 C16        38.5690   49.7650   55.8340 C.1       1 A08         0.1229
     17 N17        39.6170   50.1720   56.1420 N.1       1 A08        -0.2980
     18 H          34.5398   47.5078   58.9772 H         1 A08         0.0606
     19 H          35.2778   49.3839   57.3867 H         1 A08         0.0563
     20 H          38.0819   46.7439   55.4515 H         1 A08         0.0563
     21 H          37.3739   44.9235   56.9688 H         1 A08         0.0606
     22 H          37.3454   48.7684   54.4412 H         1 A08         0.0946
     23 H          35.3017   49.2200   53.7970 H         1 A08         0.0629
     24 H          33.5195   50.8490   53.3734 H         1 A08         0.0710
     25 H          33.4906   52.8194   54.9077 H         1 A08         0.0636
@<TRIPOS>BOND
     1    1    2 1  
     2    2    3 ar 
     3    2    7 ar 
     4    3    4 ar 
     5    4    5 ar 
     6    5    6 ar 
     7    5    8 1  
     8    6    7 ar 
     9    8    9 1  
    10    8   16 1  
    11    9   10 ar 
    12    9   14 ar 
    13   10   11 ar 
    14   11   12 ar 
    15   12   13 ar 
    16   13   14 ar 
    17   13   15 1  
    18   16   17 3  
    19    3   18 1  
    20    4   19 1  
    21    6   20 1  
    22    7   21 1  
    23    8   22 1  
    24   10   23 1  
    25   11   24 1  
    26   12   25 1  
@<TRIPOS>SUBSTRUCTURE
     1 A08         1

