### 
### Created by X-TOOL on Mon Sep 10 21:13:18 2018
### 

@<TRIPOS>MOLECULE
4k2g_ligand
   28    29     1     0     0
SMALL
GAST_HUCK


@<TRIPOS>ATOM
      1 F4         34.6880   53.8740   55.4660 F         1 1OQ        -0.2144
      2 C14        34.8890   52.7930   56.1660 C.3       1 1OQ         0.3931
      3 F2         36.0870   52.8720   56.6950 F         1 1OQ        -0.2144
      4 F3         34.0190   52.7190   57.1310 F         1 1OQ        -0.2144
      5 C10        34.8560   51.5690   55.3220 C.ar      1 1OQ         0.1129
      6 N2         35.7760   50.6110   55.6130 N.ar      1 1OQ        -0.2634
      7 C11        33.9390   51.4540   54.2920 C.ar      1 1OQ        -0.0103
      8 C12        34.0110   50.2470   53.5700 C.ar      1 1OQ        -0.0175
      9 C13        34.9750   49.2860   53.8720 C.ar      1 1OQ         0.0010
     10 C9         35.8660   49.4770   54.9310 C.ar      1 1OQ         0.0966
     11 C7         36.9280   48.4750   55.2700 C.3       1 1OQ         0.1703
     12 C8         38.1800   49.1550   55.6310 C.1       1 1OQ         0.1235
     13 N1         39.1570   49.7070   55.8780 N.1       1 1OQ        -0.2980
     14 C4         36.5460   47.4830   56.3170 C.ar      1 1OQ        -0.0035
     15 C3         35.6990   47.8240   57.3720 C.ar      1 1OQ        -0.0572
     16 C2         35.3540   46.8440   58.3100 C.ar      1 1OQ        -0.0342
     17 C5         37.1040   46.1970   56.2200 C.ar      1 1OQ        -0.0572
     18 C6         36.7750   45.2230   57.1470 C.ar      1 1OQ        -0.0342
     19 C1         35.8770   45.5500   58.1910 C.ar      1 1OQ         0.1253
     20 F1         35.5700   44.6020   59.1040 F         1 1OQ        -0.1889
     21 H          33.2213   52.2323   54.0591 H         1 1OQ         0.0916
     22 H          33.3063   50.0623   52.7673 H         1 1OQ         0.0798
     23 H          35.0338   48.3807   53.2786 H         1 1OQ         0.0900
     24 H          37.1199   47.9005   54.3518 H         1 1OQ         0.0951
     25 H          35.3138   48.8331   57.4639 H         1 1OQ         0.0554
     26 H          34.6836   47.0859   59.1267 H         1 1OQ         0.0588
     27 H          37.7944   45.9669   55.4166 H         1 1OQ         0.0554
     28 H          37.1977   44.2274   57.0746 H         1 1OQ         0.0588
@<TRIPOS>BOND
     1    1    2 1  
     2    2    3 1  
     3    2    4 1  
     4    2    5 1  
     5    5    6 ar 
     6    5    7 ar 
     7    6   10 ar 
     8    7    8 ar 
     9    8    9 ar 
    10    9   10 ar 
    11   10   11 1  
    12   11   12 1  
    13   11   14 1  
    14   12   13 3  
    15   14   15 ar 
    16   14   17 ar 
    17   15   16 ar 
    18   16   19 ar 
    19   17   18 ar 
    20   18   19 ar 
    21   19   20 1  
    22    7   21 1  
    23    8   22 1  
    24    9   23 1  
    25   11   24 1  
    26   15   25 1  
    27   16   26 1  
    28   17   27 1  
    29   18   28 1  
@<TRIPOS>SUBSTRUCTURE
     1 1OQ         1

