### 
### Created by X-TOOL on Mon Sep 10 21:13:13 2018
### 

@<TRIPOS>MOLECULE
4k2y_ligand
   17    18     1     0     0
SMALL
GAST_HUCK


@<TRIPOS>ATOM
      1 C10        62.0910   60.9400   -1.7040 C.ar      1 ES2         0.0727
      2 CL01       64.0610   63.0510   -4.4630 Cl        1 ES2        -0.0806
      3 C02        63.4560   61.7420   -3.4970 C.ar      1 ES2         0.0203
      4 C03        63.8810   60.4550   -3.7740 C.ar      1 ES2        -0.0692
      5 C04        63.4100   59.4050   -3.0190 C.ar      1 ES2        -0.0701
      6 C05        62.5240   59.6480   -2.0000 C.ar      1 ES2        -0.0010
      7 C06        61.8420   58.7340   -1.0120 C.3       1 ES2         0.0722
      8 C07        61.0030   59.6660   -0.1690 C.2       1 ES2         0.2089
      9 O08        60.2970   59.3350    0.7530 O.2       1 ES2        -0.3888
     10 N09        61.1990   60.9190   -0.6270 N.am      1 ES2        -0.2353
     11 C11        62.5690   62.0010   -2.4690 C.ar      1 ES2        -0.0328
     12 H1         64.5813   60.2744   -4.5815 H         1 ES2         0.0480
     13 H2         63.7369   58.3928   -3.2281 H         1 ES2         0.0520
     14 H3         62.5821   58.2063   -0.3925 H         1 ES2         0.0647
     15 H4         61.2085   58.0000   -1.5315 H         1 ES2         0.0647
     16 H5         60.7609   61.7323   -0.2441 H         1 ES2         0.2254
     17 H6         62.2499   63.0159   -2.2612 H         1 ES2         0.0490
@<TRIPOS>BOND
     1    1    6 ar 
     2    1   10 1  
     3   11    1 ar 
     4    3    2 1  
     5    3    4 ar 
     6    3   11 ar 
     7    4    5 ar 
     8    5    6 ar 
     9    6    7 1  
    10    7    8 1  
    11    8    9 2  
    12    8   10 am 
    13    4   12 1  
    14    5   13 1  
    15    7   14 1  
    16    7   15 1  
    17   10   16 1  
    18   11   17 1  
@<TRIPOS>SUBSTRUCTURE
     1 ES2         1

