### 
### Created by X-TOOL on Mon Sep 10 21:13:14 2018
### 

@<TRIPOS>MOLECULE
4k3h_ligand
   52    54     1     0     0
SMALL
GAST_HUCK


@<TRIPOS>ATOM
      1 O1          1.1980    3.3150    1.6460 O.3       1 1OM        -0.3373
      2 C5          1.4490    4.4020    0.7630 C.ar      1 1OM         0.0809
      3 C4          1.4360    4.2360   -0.6500 C.ar      1 1OM        -0.0392
      4 C3          1.6520    5.3560   -1.5300 C.ar      1 1OM        -0.0651
      5 C2          1.8690    6.6350   -1.0210 C.ar      1 1OM        -0.0326
      6 C7          1.8990    6.8020    0.4100 C.ar      1 1OM        -0.0651
      7 C6          1.6770    5.6890    1.2780 C.ar      1 1OM        -0.0392
      8 C1          2.1230    7.7870   -1.9170 C.3       1 1OM         0.0414
      9 C14         1.5560    9.0570   -1.5950 C.ar      1 1OM        -0.0344
     10 C19         2.1620   10.2850   -1.9660 C.ar      1 1OM        -0.0680
     11 C18         1.5210   11.5290   -1.7520 C.ar      1 1OM        -0.0500
     12 C17         0.2210   11.5900   -1.1150 C.ar      1 1OM         0.0334
     13 N2         -0.5530   12.8070   -1.0230 N.pl3     1 1OM        -0.3184
     14 C23        -1.9810   12.6760   -0.8080 C.3       1 1OM         0.0139
     15 C22         0.0910   14.1040   -1.2520 C.3       1 1OM         0.0139
     16 C16        -0.3730   10.3620   -0.7650 C.ar      1 1OM        -0.0500
     17 C15         0.2610    9.1170   -0.9830 C.ar      1 1OM        -0.0680
     18 C8          2.9280    7.6380   -3.1010 C.ar      1 1OM        -0.0344
     19 C13         2.6230    8.3410   -4.3210 C.ar      1 1OM        -0.0680
     20 C12         3.4110    8.2400   -5.4740 C.ar      1 1OM        -0.0500
     21 C11         4.5400    7.4160   -5.4630 C.ar      1 1OM         0.0334
     22 N1          5.3500    7.3750   -6.5280 N.pl3     1 1OM        -0.3184
     23 C21         4.8550    7.8320   -7.8500 C.3       1 1OM         0.0139
     24 C20         6.7350    6.9740   -6.4110 C.3       1 1OM         0.0139
     25 C10         4.8570    6.7180   -4.2780 C.ar      1 1OM        -0.0500
     26 C9          4.0480    6.8320   -3.1010 C.ar      1 1OM        -0.0680
     27 H1          1.2496    3.6198    2.5443 H         1 1OM         0.2460
     28 H2          1.2610    3.2524   -1.0706 H         1 1OM         0.0526
     29 H3          1.6456    5.2017   -2.6029 H         1 1OM         0.0536
     30 H4          2.0919    7.7817    0.8321 H         1 1OM         0.0536
     31 H5          1.6846    5.8401    2.3514 H         1 1OM         0.0526
     32 H6          3.0245    8.0385   -1.3390 H         1 1OM         0.0705
     33 H7          3.1433   10.2703   -2.4262 H         1 1OM         0.0531
     34 H8          2.0075   12.4448   -2.0678 H         1 1OM         0.0500
     35 H9         -2.4376   13.6756   -0.7591 H         1 1OM         0.0475
     36 H10        -2.1622   12.1435    0.1373 H         1 1OM         0.0475
     37 H11        -2.4265   12.1097   -1.6391 H         1 1OM         0.0475
     38 H12         1.1726   13.9573   -1.3886 H         1 1OM         0.0475
     39 H13        -0.0836   14.7583   -0.3852 H         1 1OM         0.0475
     40 H14        -0.3326   14.5696   -2.1541 H         1 1OM         0.0475
     41 H15        -1.3567   10.3716   -0.3097 H         1 1OM         0.0500
     42 H16        -0.2360    8.2009   -0.6851 H         1 1OM         0.0531
     43 H17         1.7449    8.9760   -4.3475 H         1 1OM         0.0531
     44 H18         3.1479    8.7956   -6.3668 H         1 1OM         0.0500
     45 H19         5.6546    7.7251   -8.5978 H         1 1OM         0.0475
     46 H20         4.5537    8.8879   -7.7838 H         1 1OM         0.0475
     47 H21         3.9898    7.2218   -8.1485 H         1 1OM         0.0475
     48 H22         6.9410    6.6649   -5.3756 H         1 1OM         0.0475
     49 H23         7.3855    7.8201   -6.6773 H         1 1OM         0.0475
     50 H24         6.9317    6.1320   -7.0910 H         1 1OM         0.0475
     51 H25         5.7335    6.0804   -4.2579 H         1 1OM         0.0500
     52 H26         4.3171    6.2824   -2.2062 H         1 1OM         0.0531
@<TRIPOS>BOND
     1    1    2 1  
     2    2    3 ar 
     3    2    7 ar 
     4    3    4 ar 
     5    4    5 ar 
     6    5    6 ar 
     7    5    8 1  
     8    6    7 ar 
     9    8    9 1  
    10    8   18 1  
    11    9   10 ar 
    12    9   17 ar 
    13   10   11 ar 
    14   11   12 ar 
    15   12   13 1  
    16   12   16 ar 
    17   13   14 1  
    18   13   15 1  
    19   16   17 ar 
    20   18   19 ar 
    21   18   26 ar 
    22   19   20 ar 
    23   20   21 ar 
    24   21   22 1  
    25   21   25 ar 
    26   22   23 1  
    27   22   24 1  
    28   25   26 ar 
    29    1   27 1  
    30    3   28 1  
    31    4   29 1  
    32    6   30 1  
    33    7   31 1  
    34    8   32 1  
    35   10   33 1  
    36   11   34 1  
    37   14   35 1  
    38   14   36 1  
    39   14   37 1  
    40   15   38 1  
    41   15   39 1  
    42   15   40 1  
    43   16   41 1  
    44   17   42 1  
    45   19   43 1  
    46   20   44 1  
    47   23   45 1  
    48   23   46 1  
    49   23   47 1  
    50   24   48 1  
    51   24   49 1  
    52   24   50 1  
    53   25   51 1  
    54   26   52 1  
@<TRIPOS>SUBSTRUCTURE
     1 1OM         1

