### 
### Created by X-TOOL on Mon Sep 10 21:13:14 2018
### 

@<TRIPOS>MOLECULE
4k3k_ligand
   39    39     1     0     0
SMALL
GAST_HUCK


@<TRIPOS>ATOM
      1 CAR       -20.3730    0.9550  -23.3620 C.3       1 SFK        -0.0625
      2 CAQ       -21.4030    1.8340  -24.0810 C.3       1 SFK        -0.0447
      3 CAS       -20.8180    2.3560  -25.4100 C.3       1 SFK        -0.0625
      4 CAP       -22.6190    0.9860  -24.3520 C.3       1 SFK        -0.0337
      5 CAO       -23.7160    1.9630  -24.7240 C.3       1 SFK         0.0376
      6 CAM       -24.9290    1.0570  -24.9940 C.2       1 SFK         0.1778
      7 OAN       -24.9990    0.4090  -26.0340 O.2       1 SFK        -0.3970
      8 N         -25.8430    0.9980  -24.0120 N.am      1 SFK        -0.2696
      9 CA        -27.0600    0.1690  -24.1200 C.3       1 SFK         0.1038
     10 C         -28.1880    0.8640  -23.3580 C.2       1 SFK         0.0621
     11 O         -29.3010    0.2990  -23.3570 O.co2     1 SFK        -0.5664
     12 OXT       -27.9000    1.9230  -22.7590 O.co2     1 SFK        -0.5664
     13 CB        -26.8640   -1.2540  -23.5900 C.3       1 SFK         0.0159
     14 CG        -26.2110   -1.2110  -22.3260 C.ar      1 SFK        -0.0392
     15 CD1       -26.9460   -1.0730  -21.1420 C.ar      1 SFK        -0.0602
     16 CE1       -26.3120   -1.0550  -19.9020 C.ar      1 SFK        -0.0686
     17 CZ        -24.9280   -1.1690  -19.8320 C.ar      1 SFK        -0.0687
     18 CE2       -24.1830   -1.3120  -21.0010 C.ar      1 SFK        -0.0686
     19 CD2       -24.8220   -1.3420  -22.2410 C.ar      1 SFK        -0.0602
     20 H1        -19.4705    1.5469  -23.1494 H         1 SFK         0.0232
     21 H2        -20.1087    0.1009  -24.0028 H         1 SFK         0.0232
     22 H3        -20.8006    0.5866  -22.4179 H         1 SFK         0.0232
     23 H4        -21.6768    2.6868  -23.4425 H         1 SFK         0.0297
     24 H5        -21.5645    2.9849  -25.9172 H         1 SFK         0.0232
     25 H6        -20.5568    1.5043  -26.0553 H         1 SFK         0.0232
     26 H7        -19.9158    2.9510  -25.2049 H         1 SFK         0.0232
     27 H8        -22.8992    0.4166  -23.4535 H         1 SFK         0.0292
     28 H9        -22.4258    0.2901  -25.1817 H         1 SFK         0.0292
     29 H10       -23.4446    2.5347  -25.6237 H         1 SFK         0.0502
     30 H11       -23.9210    2.6576  -23.8961 H         1 SFK         0.0502
     31 H12       -25.6945    1.5331  -23.1803 H         1 SFK         0.1876
     32 H13       -27.3378    0.1001  -25.1821 H         1 SFK         0.0749
     33 H14       -26.2489   -1.8267  -24.2997 H         1 SFK         0.0467
     34 H15       -27.8442   -1.7406  -23.4784 H         1 SFK         0.0467
     35 H16       -28.0248   -0.9788  -21.1913 H         1 SFK         0.0557
     36 H17       -26.8957   -0.9524  -18.9943 H         1 SFK         0.0599
     37 H18       -24.4294   -1.1467  -18.8697 H         1 SFK         0.0559
     38 H19       -23.1039   -1.4002  -20.9468 H         1 SFK         0.0599
     39 H20       -24.2370   -1.4678  -23.1449 H         1 SFK         0.0557
@<TRIPOS>BOND
     1    1    2 1  
     2    2    3 1  
     3    2    4 1  
     4    4    5 1  
     5    5    6 1  
     6    6    7 2  
     7    6    8 am 
     8    8    9 1  
     9    9   10 1  
    10    9   13 1  
    11   10   11 ar 
    12   10   12 ar 
    13   13   14 1  
    14   14   15 ar 
    15   14   19 ar 
    16   15   16 ar 
    17   16   17 ar 
    18   17   18 ar 
    19   18   19 ar 
    20    1   20 1  
    21    1   21 1  
    22    1   22 1  
    23    2   23 1  
    24    3   24 1  
    25    3   25 1  
    26    3   26 1  
    27    4   27 1  
    28    4   28 1  
    29    5   29 1  
    30    5   30 1  
    31    8   31 1  
    32    9   32 1  
    33   13   33 1  
    34   13   34 1  
    35   15   35 1  
    36   16   36 1  
    37   17   37 1  
    38   18   38 1  
    39   19   39 1  
@<TRIPOS>SUBSTRUCTURE
     1 SFK         1

