### 
### Created by X-TOOL on Mon Sep 10 21:13:15 2018
### 

@<TRIPOS>MOLECULE
4k3l_ligand
   46    46     1     0     0
SMALL
GAST_HUCK


@<TRIPOS>ATOM
      1 N           7.0820   -5.2850  -12.0340 N.am      1 LEU        -0.2658
      2 CA          8.0100   -4.1660  -12.4340 C.3       1 LEU         0.1311
      3 C           9.3740   -4.6330  -12.9460 C.2       1 LEU         0.2035
      4 O          10.0620   -3.8770  -13.6240 O.2       1 LEU        -0.3944
      5 CB          8.2330   -3.2130  -11.2510 C.3       1 LEU        -0.0101
      6 CG          6.9900   -2.4790  -10.7580 C.3       1 LEU        -0.0425
      7 CD1         7.2860   -1.7340   -9.4640 C.3       1 LEU        -0.0625
      8 CD2         6.4680   -1.5160  -11.8120 C.3       1 LEU        -0.0625
      9 N           9.7630   -5.8480  -12.5620 N.am      1 PHE        -0.2677
     10 CA         11.0280   -6.4710  -12.9470 C.3       1 PHE         0.1039
     11 C          10.9230   -7.9790  -12.7190 C.2       1 PHE         0.0621
     12 O           9.9330   -8.4760  -12.1690 O.co2     1 PHE        -0.5664
     13 CB         12.1790   -5.9030  -12.1090 C.3       1 PHE         0.0159
     14 CG         11.9180   -5.9430  -10.6320 C.ar      1 PHE        -0.0392
     15 CD1        12.2040   -7.0850   -9.8920 C.ar      1 PHE        -0.0602
     16 CD2        11.3650   -4.8470   -9.9830 C.ar      1 PHE        -0.0602
     17 CE1        11.9500   -7.1310   -8.5360 C.ar      1 PHE        -0.0686
     18 CE2        11.1110   -4.8870   -8.6230 C.ar      1 PHE        -0.0686
     19 CZ         11.3980   -6.0300   -7.8970 C.ar      1 PHE        -0.0687
     20 OXT        11.8400   -8.7450  -13.0390 O.co2     1 PHE        -0.5664
     21 C           6.5460   -6.1540  -12.9280 C.2       1 LEU         0.1751
     22 O           6.6840   -6.0130  -14.1410 O.2       1 LEU        -0.3972
     23 CH3         5.6740   -7.2780  -12.4110 C.3       1 LEU         0.0258
     24 H1          6.8512   -5.3916  -11.0668 H         1 LEU         0.1882
     25 H2          7.5210   -3.6074  -13.2456 H         1 LEU         0.0800
     26 H3          8.9729   -2.4590  -11.5576 H         1 LEU         0.0315
     27 H4          8.6345   -3.8011  -10.4126 H         1 LEU         0.0315
     28 H5          6.2079   -3.2258  -10.5565 H         1 LEU         0.0298
     29 H6          6.3787   -1.2122   -9.1256 H         1 LEU         0.0232
     30 H7          8.0873   -1.0007   -9.6381 H         1 LEU         0.0232
     31 H8          7.6058   -2.4506   -8.6932 H         1 LEU         0.0232
     32 H9          6.2585   -2.0672  -12.7406 H         1 LEU         0.0232
     33 H10         7.2243   -0.7416  -12.0079 H         1 LEU         0.0232
     34 H11         5.5434   -1.0424  -11.4503 H         1 LEU         0.0232
     35 H12         9.1479   -6.3691  -11.9703 H         1 LEU         0.1877
     36 H13        11.2233   -6.2729  -14.0112 H         1 LEU         0.0749
     37 H14        12.3428   -4.8565  -12.4057 H         1 LEU         0.0467
     38 H15        13.0855   -6.4898  -12.3187 H         1 LEU         0.0467
     39 H16        12.6317   -7.9498  -10.3861 H         1 LEU         0.0557
     40 H17        11.1300   -3.9515  -10.5469 H         1 LEU         0.0557
     41 H18        12.1816   -8.0265   -7.9708 H         1 LEU         0.0599
     42 H19        10.6868   -4.0222   -8.1258 H         1 LEU         0.0599
     43 H20        11.1923   -6.0649   -6.8333 H         1 LEU         0.0559
     44 H21         5.3216   -7.8872  -13.2564 H         1 LEU         0.0467
     45 H22         4.8094   -6.8558  -11.8778 H         1 LEU         0.0467
     46 H23         6.2572   -7.9079  -11.7232 H         1 LEU         0.0467
@<TRIPOS>BOND
     1    1    2 1  
     2    1   21 am 
     3    2    3 1  
     4    2    5 1  
     5    3    4 2  
     6    3    9 am 
     7    5    6 1  
     8    6    7 1  
     9    6    8 1  
    10    9   10 1  
    11   10   11 1  
    12   10   13 1  
    13   11   12 ar 
    14   11   20 ar 
    15   13   14 1  
    16   14   15 ar 
    17   14   16 ar 
    18   15   17 ar 
    19   16   18 ar 
    20   17   19 ar 
    21   18   19 ar 
    22   21   22 2  
    23   21   23 1  
    24    1   24 1  
    25    2   25 1  
    26    5   26 1  
    27    5   27 1  
    28    6   28 1  
    29    7   29 1  
    30    7   30 1  
    31    7   31 1  
    32    8   32 1  
    33    8   33 1  
    34    8   34 1  
    35    9   35 1  
    36   10   36 1  
    37   13   37 1  
    38   13   38 1  
    39   15   39 1  
    40   16   40 1  
    41   17   41 1  
    42   18   42 1  
    43   19   43 1  
    44   23   44 1  
    45   23   45 1  
    46   23   46 1  
@<TRIPOS>SUBSTRUCTURE
     1 LEU         1

