### 
### Created by X-TOOL on Mon Sep 10 21:13:15 2018
### 

@<TRIPOS>MOLECULE
4k3m_ligand
   54    54     1     0     0
SMALL
GAST_HUCK


@<TRIPOS>ATOM
      1 N           4.5050   -7.9690  -12.9220 N.4       1 ASP         0.2391
      2 CA          5.6810   -7.5810  -12.0950 C.3       1 ASP         0.0764
      3 C           6.4020   -6.4190  -12.7850 C.2       1 ASP         0.2284
      4 O           6.4230   -6.3440  -14.0210 O.2       1 ASP        -0.3906
      5 CB          6.6250   -8.7780  -11.9310 C.3       1 ASP         0.0607
      6 CG          6.9250   -9.1070  -10.4640 C.2       1 ASP         0.0425
      7 OD1         5.9670   -9.2900   -9.6770 O.co2     1 ASP        -0.5686
      8 OD2         8.1200   -9.2100  -10.1020 O.co2     1 ASP        -0.5686
      9 N           6.9830   -5.5160  -11.9900 N.am      1 LEU        -0.2609
     10 CA          7.7360   -4.3640  -12.5160 C.3       1 LEU         0.1313
     11 C           9.0830   -4.7740  -13.1170 C.2       1 LEU         0.2035
     12 O           9.6850   -4.0200  -13.8830 O.2       1 LEU        -0.3944
     13 CB          7.9710   -3.3160  -11.4160 C.3       1 LEU        -0.0101
     14 CG          6.8370   -2.3740  -11.0020 C.3       1 LEU        -0.0425
     15 CD1         7.2140   -1.6070   -9.7430 C.3       1 LEU        -0.0625
     16 CD2         6.4870   -1.4020  -12.1190 C.3       1 LEU        -0.0625
     17 N           9.5430   -5.9700  -12.7510 N.am      1 PHE        -0.2677
     18 CA         10.8580   -6.4770  -13.1450 C.3       1 PHE         0.1039
     19 C          10.9180   -7.9920  -12.9480 C.2       1 PHE         0.0621
     20 O          10.0060   -8.6010  -12.3900 O.co2     1 PHE        -0.5664
     21 CB         11.9750   -5.8020  -12.3290 C.3       1 PHE         0.0159
     22 CG         11.7880   -5.9090  -10.8380 C.ar      1 PHE        -0.0392
     23 CD1        12.1670   -7.0640  -10.1500 C.ar      1 PHE        -0.0602
     24 CD2        11.2220   -4.8590  -10.1230 C.ar      1 PHE        -0.0602
     25 CE1        11.9880   -7.1640   -8.7770 C.ar      1 PHE        -0.0686
     26 CE2        11.0380   -4.9530   -8.7540 C.ar      1 PHE        -0.0686
     27 CZ         11.4250   -6.1040   -8.0800 C.ar      1 PHE        -0.0687
     28 OXT        11.8910   -8.6430  -13.3210 O.co2     1 PHE        -0.5664
     29 H1          4.0204   -8.7339  -12.4791 H         1 ASP         0.2016
     30 H2          4.8171   -8.2539  -13.8371 H         1 ASP         0.2016
     31 H3          3.8814   -7.1819  -13.0096 H         1 ASP         0.2016
     32 H4          5.3377   -7.2569  -11.1015 H         1 ASP         0.1117
     33 H5          7.5730   -8.5493  -12.4399 H         1 ASP         0.0512
     34 H6          6.1602   -9.6579  -12.3997 H         1 ASP         0.0512
     35 H7          6.9037   -5.6263  -10.9993 H         1 LEU         0.1885
     36 H8          7.1326   -3.9030  -13.3118 H         1 LEU         0.0800
     37 H9          8.8034   -2.6815  -11.7543 H         1 LEU         0.0315
     38 H10         8.2729   -3.8660  -10.5125 H         1 LEU         0.0315
     39 H11         5.9474   -2.9834  -10.7845 H         1 LEU         0.0298
     40 H12         6.3887   -0.9365   -9.4612 H         1 LEU         0.0232
     41 H13         8.1202   -1.0132   -9.9329 H         1 LEU         0.0232
     42 H14         7.4055   -2.3168   -8.9247 H         1 LEU         0.0232
     43 H15         6.2161   -1.9656  -13.0240 H         1 LEU         0.0232
     44 H16         7.3549   -0.7608  -12.3325 H         1 LEU         0.0232
     45 H17         5.6369   -0.7769  -11.8082 H         1 LEU         0.0232
     46 H18         8.9615   -6.5490  -12.1795 H         1 PHE         0.1877
     47 H19        11.0155   -6.2515  -14.2100 H         1 PHE         0.0749
     48 H20        12.0061   -4.7361  -12.5990 H         1 PHE         0.0467
     49 H21        12.9321   -6.2753  -12.5933 H         1 PHE         0.0467
     50 H22        12.6061   -7.8921  -10.6946 H         1 PHE         0.0557
     51 H23        10.9215   -3.9568  -10.6434 H         1 PHE         0.0557
     52 H24        12.2861   -8.0645   -8.2524 H         1 PHE         0.0599
     53 H25        10.5923   -4.1290   -8.2087 H         1 PHE         0.0599
     54 H26        11.2870   -6.1747   -7.0071 H         1 PHE         0.0559
@<TRIPOS>BOND
     1    1    2 1  
     2    2    3 1  
     3    2    5 1  
     4    3    4 2  
     5    3    9 am 
     6    5    6 1  
     7    6    7 ar 
     8    6    8 ar 
     9    9   10 1  
    10   10   11 1  
    11   10   13 1  
    12   11   12 2  
    13   11   17 am 
    14   13   14 1  
    15   14   15 1  
    16   14   16 1  
    17   17   18 1  
    18   18   19 1  
    19   18   21 1  
    20   19   20 ar 
    21   19   28 ar 
    22   21   22 1  
    23   22   23 ar 
    24   22   24 ar 
    25   23   25 ar 
    26   24   26 ar 
    27   25   27 ar 
    28   26   27 ar 
    29    1   29 1  
    30    1   30 1  
    31    1   31 1  
    32    2   32 1  
    33    5   33 1  
    34    5   34 1  
    35    9   35 1  
    36   10   36 1  
    37   13   37 1  
    38   13   38 1  
    39   14   39 1  
    40   15   40 1  
    41   15   41 1  
    42   15   42 1  
    43   16   43 1  
    44   16   44 1  
    45   16   45 1  
    46   17   46 1  
    47   18   47 1  
    48   21   48 1  
    49   21   49 1  
    50   23   50 1  
    51   24   51 1  
    52   25   52 1  
    53   26   53 1  
    54   27   54 1  
@<TRIPOS>SUBSTRUCTURE
     1 ASP         1

