### 
### Created by X-TOOL on Mon Sep 10 21:13:15 2018
### 

@<TRIPOS>MOLECULE
4k3p_ligand
   92    92     1     0     0
SMALL
GAST_HUCK


@<TRIPOS>ATOM
      1 C          -3.4220   -8.3730  -12.8630 C.2       1 ACE         0.1751
      2 O          -2.9700   -7.9080  -13.9000 O.2       1 ACE        -0.3972
      3 CH3        -4.7910   -9.0070  -12.8620 C.3       1 ACE         0.0258
      4 N          -2.7650   -8.4150  -11.6990 N.am      1 GLN        -0.2657
      5 CA         -1.6020   -7.5340  -11.3670 C.3       1 GLN         0.1329
      6 C          -0.4240   -7.8540  -12.2650 C.2       1 GLN         0.2040
      7 O           0.0320   -8.9990  -12.3110 O.2       1 GLN        -0.3944
      8 CB         -1.1990   -7.7010   -9.8920 C.3       1 GLN         0.0045
      9 CG          0.1080   -7.0150   -9.4930 C.3       1 GLN         0.0412
     10 CD          0.0020   -5.4960   -9.4610 C.2       1 GLN         0.1737
     11 OE1        -0.7870   -4.9240   -8.6970 O.2       1 GLN        -0.3973
     12 NE2         0.7970   -4.8340  -10.2900 N.am      1 GLN        -0.3009
     13 N           0.0710   -6.8450  -12.9790 N.am      1 LEU        -0.2637
     14 CA          1.2690   -7.0190  -13.8040 C.3       1 LEU         0.1312
     15 C           2.5400   -6.8090  -12.9850 C.2       1 LEU         0.2039
     16 O           2.5230   -6.1150  -11.9730 O.2       1 LEU        -0.3944
     17 CB          1.2440   -6.0820  -15.0130 C.3       1 LEU        -0.0101
     18 CG          0.0860   -6.3010  -15.9960 C.3       1 LEU        -0.0425
     19 CD1        -0.0300   -5.1210  -16.9540 C.3       1 LEU        -0.0625
     20 CD2         0.2360   -7.6270  -16.7450 C.3       1 LEU        -0.0625
     21 N           3.6340   -7.4270  -13.4260 N.am      1 ALA        -0.2640
     22 CA          4.9300   -7.3080  -12.7540 C.3       1 ALA         0.1282
     23 C           5.6430   -6.0420  -13.2220 C.2       1 ALA         0.2036
     24 O           5.6120   -5.7200  -14.4110 O.2       1 ALA        -0.3944
     25 CB          5.7850   -8.5390  -13.0270 C.3       1 ALA        -0.0244
     26 N           6.2680   -5.3220  -12.2850 N.am      1 LEU        -0.2637
     27 CA          7.1280   -4.1700  -12.6230 C.3       1 LEU         0.1312
     28 C           8.3890   -4.5910  -13.3750 C.2       1 LEU         0.2035
     29 O           8.9220   -3.8290  -14.1830 O.2       1 LEU        -0.3944
     30 CB          7.5490   -3.3960  -11.3670 C.3       1 LEU        -0.0101
     31 CG          7.0220   -1.9910  -11.0670 C.3       1 LEU        -0.0425
     32 CD1         7.6920   -1.4570   -9.8040 C.3       1 LEU        -0.0625
     33 CD2         7.2440   -1.0320  -12.2230 C.3       1 LEU        -0.0625
     34 N           8.8640   -5.7980  -13.0650 N.am      1 PHE        -0.2677
     35 CA         10.0870   -6.3640  -13.6180 C.3       1 PHE         0.1039
     36 C          10.1990   -7.8410  -13.2070 C.2       1 PHE         0.0621
     37 O           9.4640   -8.3680  -12.3610 O.co2     1 PHE        -0.5664
     38 CB         11.3160   -5.5840  -13.1270 C.3       1 PHE         0.0159
     39 CG         11.4390   -5.5290  -11.6290 C.ar      1 PHE        -0.0392
     40 CD1        12.0230   -6.5880  -10.9230 C.ar      1 PHE        -0.0602
     41 CD2        10.9630   -4.4310  -10.9210 C.ar      1 PHE        -0.0602
     42 CE1        12.1270   -6.5510   -9.5430 C.ar      1 PHE        -0.0686
     43 CE2        11.0600   -4.3850   -9.5390 C.ar      1 PHE        -0.0686
     44 CZ         11.6400   -5.4490   -8.8500 C.ar      1 PHE        -0.0687
     45 OXT        11.0550   -8.5620  -13.7050 O.co2     1 PHE        -0.5664
     46 H1         -5.0279   -9.3663  -11.8497 H         1 ACE         0.0467
     47 H2         -4.8034   -9.8539  -13.5639 H         1 ACE         0.0467
     48 H3         -5.5398   -8.2631  -13.1716 H         1 ACE         0.0467
     49 H4         -3.0686   -9.0735  -11.0104 H         1 GLN         0.1883
     50 H5         -1.8974   -6.4876  -11.5337 H         1 GLN         0.0801
     51 H6         -1.0951   -8.7767   -9.6872 H         1 GLN         0.0337
     52 H7         -2.0052   -7.2855   -9.2697 H         1 GLN         0.0337
     53 H8          0.8860   -7.2961  -10.2180 H         1 GLN         0.0504
     54 H9          0.3960   -7.3666   -8.4913 H         1 GLN         0.0504
     55 H10         0.7729   -3.8346  -10.3146 H         1 GLN         0.1814
     56 H11         1.4208   -5.3341  -10.8907 H         1 GLN         0.1814
     57 H12        -0.3823   -5.9541  -12.9516 H         1 LEU         0.1883
     58 H13         1.2740   -8.0538  -14.1771 H         1 LEU         0.0800
     59 H14         2.1863   -6.2155  -15.5646 H         1 LEU         0.0315
     60 H15         1.1807   -5.0492  -14.6398 H         1 LEU         0.0315
     61 H16        -0.8455   -6.3524  -15.4132 H         1 LEU         0.0298
     62 H17        -0.8637   -5.2946  -17.6503 H         1 LEU         0.0232
     63 H18         0.9062   -5.0163  -17.5219 H         1 LEU         0.0232
     64 H19        -0.2163   -4.2006  -16.3812 H         1 LEU         0.0232
     65 H20         0.3163   -8.4505  -16.0201 H         1 LEU         0.0232
     66 H21         1.1427   -7.5963  -17.3670 H         1 LEU         0.0232
     67 H22        -0.6433   -7.7875  -17.3862 H         1 LEU         0.0232
     68 H23         3.5682   -7.9939  -14.2472 H         1 ALA         0.1883
     69 H24         4.7593   -7.2347  -11.6698 H         1 ALA         0.0797
     70 H25         6.7533   -8.4335  -12.5159 H         1 ALA         0.0277
     71 H26         5.9509   -8.6374  -14.1099 H         1 ALA         0.0277
     72 H27         5.2683   -9.4348  -12.6522 H         1 ALA         0.0277
     73 H28         6.1493   -5.5716  -11.3239 H         1 LEU         0.1883
     74 H29         6.5473   -3.4963  -13.2702 H         1 LEU         0.0800
     75 H30         8.6449   -3.3113  -11.4101 H         1 LEU         0.0315
     76 H31         7.2630   -4.0220  -10.5089 H         1 LEU         0.0315
     77 H32         5.9392   -2.0619  -10.8868 H         1 LEU         0.0298
     78 H33         7.3139   -0.4470   -9.5874 H         1 LEU         0.0232
     79 H34         8.7807   -1.4162   -9.9557 H         1 LEU         0.0232
     80 H35         7.4643   -2.1229   -8.9586 H         1 LEU         0.0232
     81 H36         6.7568   -1.4277  -13.1264 H         1 LEU         0.0232
     82 H37         8.3230   -0.9224  -12.4065 H         1 LEU         0.0232
     83 H38         6.8129   -0.0512  -11.9737 H         1 LEU         0.0232
     84 H39         8.3472   -6.3501  -12.4107 H         1 PHE         0.1877
     85 H40        10.0438   -6.3005  -14.7153 H         1 PHE         0.0749
     86 H41        11.2486   -4.5542  -13.5078 H         1 PHE         0.0467
     87 H42        12.2179   -6.0664  -13.5319 H         1 PHE         0.0467
     88 H43        12.3988   -7.4486  -11.4645 H         1 PHE         0.0557
     89 H44        10.5116   -3.6027  -11.4551 H         1 PHE         0.0557
     90 H45        12.5846   -7.3748   -9.0073 H         1 PHE         0.0599
     91 H46        10.6861   -3.5246   -8.9959 H         1 PHE         0.0599
     92 H47        11.7115   -5.4168   -7.7688 H         1 PHE         0.0559
@<TRIPOS>BOND
     1    1    2 2  
     2    1    3 1  
     3    1    4 am 
     4    4    5 1  
     5    5    6 1  
     6    5    8 1  
     7    6    7 2  
     8    6   13 am 
     9    8    9 1  
    10    9   10 1  
    11   10   11 2  
    12   10   12 am 
    13   13   14 1  
    14   14   15 1  
    15   14   17 1  
    16   15   16 2  
    17   15   21 am 
    18   17   18 1  
    19   18   19 1  
    20   18   20 1  
    21   21   22 1  
    22   22   23 1  
    23   22   25 1  
    24   23   24 2  
    25   23   26 am 
    26   26   27 1  
    27   27   28 1  
    28   27   30 1  
    29   28   29 2  
    30   28   34 am 
    31   30   31 1  
    32   31   32 1  
    33   31   33 1  
    34   34   35 1  
    35   35   36 1  
    36   35   38 1  
    37   36   37 ar 
    38   36   45 ar 
    39   38   39 1  
    40   39   40 ar 
    41   39   41 ar 
    42   40   42 ar 
    43   41   43 ar 
    44   42   44 ar 
    45   43   44 ar 
    46    3   46 1  
    47    3   47 1  
    48    3   48 1  
    49    4   49 1  
    50    5   50 1  
    51    8   51 1  
    52    8   52 1  
    53    9   53 1  
    54    9   54 1  
    55   12   55 1  
    56   12   56 1  
    57   13   57 1  
    58   14   58 1  
    59   17   59 1  
    60   17   60 1  
    61   18   61 1  
    62   19   62 1  
    63   19   63 1  
    64   19   64 1  
    65   20   65 1  
    66   20   66 1  
    67   20   67 1  
    68   21   68 1  
    69   22   69 1  
    70   25   70 1  
    71   25   71 1  
    72   25   72 1  
    73   26   73 1  
    74   27   74 1  
    75   30   75 1  
    76   30   76 1  
    77   31   77 1  
    78   32   78 1  
    79   32   79 1  
    80   32   80 1  
    81   33   81 1  
    82   33   82 1  
    83   33   83 1  
    84   34   84 1  
    85   35   85 1  
    86   38   86 1  
    87   38   87 1  
    88   40   88 1  
    89   41   89 1  
    90   42   90 1  
    91   43   91 1  
    92   44   92 1  
@<TRIPOS>SUBSTRUCTURE
     1 ACE         1

