### 
### Created by X-TOOL on Mon Sep 10 21:13:14 2018
### 

@<TRIPOS>MOLECULE
4k3q_ligand
   85    85     1     0     0
SMALL
GAST_HUCK


@<TRIPOS>ATOM
      1 C          -3.2100   -8.2930  -12.9970 C.2       1 ACE         0.1751
      2 O          -2.7470   -7.6390  -13.9210 O.2       1 ACE        -0.3972
      3 CH3        -4.5030   -9.0510  -13.1910 C.3       1 ACE         0.0258
      4 N          -2.7350   -8.2720  -11.7470 N.am      1 GLN        -0.2657
      5 CA         -1.5580   -7.4560  -11.3110 C.3       1 GLN         0.1329
      6 C          -0.3050   -7.7500  -12.1350 C.2       1 GLN         0.2040
      7 O           0.1440   -8.8990  -12.2130 O.2       1 GLN        -0.3944
      8 CB         -1.2590   -7.6850   -9.8230 C.3       1 GLN         0.0045
      9 CG         -0.0290   -6.9330   -9.3170 C.3       1 GLN         0.0412
     10 CD         -0.1840   -5.4280   -9.4350 C.2       1 GLN         0.1737
     11 OE1        -1.1490   -4.8550   -8.9320 O.2       1 GLN        -0.3973
     12 NE2         0.7630   -4.7820  -10.1120 N.am      1 GLN        -0.3009
     13 N           0.2590   -6.7010  -12.7300 N.am      1 LEU        -0.2637
     14 CA          1.4840   -6.8270  -13.5200 C.3       1 LEU         0.1312
     15 C           2.7410   -6.6350  -12.6600 C.2       1 LEU         0.2040
     16 O           2.6740   -6.0670  -11.5660 O.2       1 LEU        -0.3944
     17 CB          1.4580   -5.8700  -14.7250 C.3       1 LEU        -0.0101
     18 CG          0.3620   -6.1110  -15.7770 C.3       1 LEU        -0.0425
     19 CD1         0.4220   -5.0740  -16.8890 C.3       1 LEU        -0.0625
     20 CD2         0.4390   -7.5210  -16.3570 C.3       1 LEU        -0.0625
     21 N           3.8760   -7.1320  -13.1540 N.am      1 ASP        -0.2622
     22 CA          5.1530   -7.0440  -12.4370 C.3       1 ASP         0.1423
     23 C           6.0070   -5.8990  -12.9710 C.2       1 ASP         0.2056
     24 O           5.9400   -5.5670  -14.1600 O.2       1 ASP        -0.3943
     25 CB          5.9290   -8.3640  -12.5330 C.3       1 ASP         0.0406
     26 CG          5.1850   -9.5330  -11.9000 C.2       1 ASP         0.0393
     27 OD1         4.6500   -9.3740  -10.7800 O.co2     1 ASP        -0.5688
     28 OD2         5.1450  -10.6190  -12.5210 O.co2     1 ASP        -0.5688
     29 N           6.8120   -5.3100  -12.0850 N.am      1 ALA        -0.2639
     30 CA          7.6820   -4.1760  -12.4230 C.3       1 ALA         0.1282
     31 C           8.9610   -4.5870  -13.1520 C.2       1 ALA         0.2032
     32 O           9.4930   -3.8280  -13.9630 O.2       1 ALA        -0.3944
     33 CB          8.0200   -3.3790  -11.1650 C.3       1 ALA        -0.0244
     34 N           9.4390   -5.7920  -12.8500 N.am      1 PHE        -0.2677
     35 CA         10.7260   -6.2850  -13.3360 C.3       1 PHE         0.1039
     36 C          10.7680   -7.8070  -13.2310 C.2       1 PHE         0.0621
     37 O           9.8320   -8.4350  -12.7250 O.co2     1 PHE        -0.5664
     38 CB         11.8790   -5.6790  -12.5160 C.3       1 PHE         0.0159
     39 CG         11.7010   -5.8190  -11.0250 C.ar      1 PHE        -0.0392
     40 CD1        12.0030   -7.0180  -10.3780 C.ar      1 PHE        -0.0602
     41 CD2        11.2150   -4.7550  -10.2710 C.ar      1 PHE        -0.0602
     42 CE1        11.8240   -7.1510   -9.0100 C.ar      1 PHE        -0.0686
     43 CE2        11.0350   -4.8800   -8.9040 C.ar      1 PHE        -0.0686
     44 CZ         11.3430   -6.0780   -8.2720 C.ar      1 PHE        -0.0687
     45 OXT        11.7490   -8.4410  -13.6260 O.co2     1 PHE        -0.5664
     46 H1         -4.7629   -9.5768  -12.2604 H         1 ACE         0.0467
     47 H2         -4.3809   -9.7824  -14.0035 H         1 ACE         0.0467
     48 H3         -5.3062   -8.3456  -13.4502 H         1 ACE         0.0467
     49 H4         -3.1945   -8.8363  -11.0611 H         1 GLN         0.1883
     50 H5         -1.8153   -6.3959  -11.4522 H         1 GLN         0.0801
     51 H6         -1.0970   -8.7613   -9.6637 H         1 GLN         0.0337
     52 H7         -2.1312   -7.3551   -9.2395 H         1 GLN         0.0337
     53 H8          0.8445   -7.2458   -9.9078 H         1 GLN         0.0504
     54 H9          0.1323   -7.1899   -8.2597 H         1 GLN         0.0504
     55 H10         0.7109   -3.7893  -10.2208 H         1 GLN         0.1814
     56 H11         1.5264   -5.2895  -10.5117 H         1 GLN         0.1814
     57 H12        -0.1668   -5.8013  -12.6342 H         1 LEU         0.1883
     58 H13         1.5156   -7.8527  -13.9162 H         1 LEU         0.0800
     59 H14         2.4304   -5.9481  -15.2333 H         1 LEU         0.0315
     60 H15         1.3281   -4.8491  -14.3367 H         1 LEU         0.0315
     61 H16        -0.6104   -6.0081  -15.2732 H         1 LEU         0.0298
     62 H17        -0.3733   -5.2757  -17.6217 H         1 LEU         0.0232
     63 H18         1.4013   -5.1267  -17.3871 H         1 LEU         0.0232
     64 H19         0.2812   -4.0700  -16.4621 H         1 LEU         0.0232
     65 H20         0.3943   -8.2564  -15.5402 H         1 LEU         0.0232
     66 H21         1.3844   -7.6404  -16.9065 H         1 LEU         0.0232
     67 H22        -0.4063   -7.6823  -17.0422 H         1 LEU         0.0232
     68 H23         3.8557   -7.5817  -14.0470 H         1 ASP         0.1884
     69 H24         4.9360   -6.8470  -11.3768 H         1 ASP         0.0819
     70 H25         6.8943   -8.2424  -12.0198 H         1 ASP         0.0478
     71 H26         6.1043   -8.5924  -13.5947 H         1 ASP         0.0478
     72 H27         6.8236   -5.6568  -11.1471 H         1 ALA         0.1883
     73 H28         7.1163   -3.5185  -13.0995 H         1 ALA         0.0797
     74 H29         8.6713   -2.5333  -11.4307 H         1 ALA         0.0277
     75 H30         8.5395   -4.0303  -10.4468 H         1 ALA         0.0277
     76 H31         7.0927   -2.9992  -10.7114 H         1 ALA         0.0277
     77 H32         8.8915   -6.3882  -12.2628 H         1 PHE         0.1877
     78 H33        10.8451   -5.9933  -14.3899 H         1 PHE         0.0749
     79 H34        11.9522   -4.6085  -12.7580 H         1 PHE         0.0467
     80 H35        12.8127   -6.1846  -12.8033 H         1 PHE         0.0467
     81 H36        12.3822   -7.8555  -10.9523 H         1 PHE         0.0557
     82 H37        10.9746   -3.8177  -10.7596 H         1 PHE         0.0557
     83 H38        12.0585   -8.0884   -8.5187 H         1 PHE         0.0599
     84 H39        10.6544   -4.0444   -8.3279 H         1 PHE         0.0599
     85 H40        11.2076   -6.1752   -7.2009 H         1 PHE         0.0559
@<TRIPOS>BOND
     1    1    2 2  
     2    1    3 1  
     3    1    4 am 
     4    4    5 1  
     5    5    6 1  
     6    5    8 1  
     7    6    7 2  
     8    6   13 am 
     9    8    9 1  
    10    9   10 1  
    11   10   11 2  
    12   10   12 am 
    13   13   14 1  
    14   14   15 1  
    15   14   17 1  
    16   15   16 2  
    17   15   21 am 
    18   17   18 1  
    19   18   19 1  
    20   18   20 1  
    21   21   22 1  
    22   22   23 1  
    23   22   25 1  
    24   23   24 2  
    25   23   29 am 
    26   25   26 1  
    27   26   27 ar 
    28   26   28 ar 
    29   29   30 1  
    30   30   31 1  
    31   30   33 1  
    32   31   32 2  
    33   31   34 am 
    34   34   35 1  
    35   35   36 1  
    36   35   38 1  
    37   36   37 ar 
    38   36   45 ar 
    39   38   39 1  
    40   39   40 ar 
    41   39   41 ar 
    42   40   42 ar 
    43   41   43 ar 
    44   42   44 ar 
    45   43   44 ar 
    46    3   46 1  
    47    3   47 1  
    48    3   48 1  
    49    4   49 1  
    50    5   50 1  
    51    8   51 1  
    52    8   52 1  
    53    9   53 1  
    54    9   54 1  
    55   12   55 1  
    56   12   56 1  
    57   13   57 1  
    58   14   58 1  
    59   17   59 1  
    60   17   60 1  
    61   18   61 1  
    62   19   62 1  
    63   19   63 1  
    64   19   64 1  
    65   20   65 1  
    66   20   66 1  
    67   20   67 1  
    68   21   68 1  
    69   22   69 1  
    70   25   70 1  
    71   25   71 1  
    72   29   72 1  
    73   30   73 1  
    74   33   74 1  
    75   33   75 1  
    76   33   76 1  
    77   34   77 1  
    78   35   78 1  
    79   38   79 1  
    80   38   80 1  
    81   40   81 1  
    82   41   82 1  
    83   42   83 1  
    84   43   84 1  
    85   44   85 1  
@<TRIPOS>SUBSTRUCTURE
     1 ACE         1

