### 
### Created by X-TOOL on Mon Sep 10 21:13:20 2018
### 

@<TRIPOS>MOLECULE
4k43_ligand
   85    86     1     0     0
SMALL
GAST_HUCK


@<TRIPOS>ATOM
      1 O01       -30.8980  -19.0530   -4.2310 O.2       1 1PO        -0.3713
      2 C02       -32.0030  -18.8060   -3.7540 C.2       1 1PO         0.1970
      3 N03       -32.1480  -17.8920   -2.7130 N.am      1 1PO        -0.2419
      4 C04       -30.8990  -17.2540   -2.2370 C.3       1 1PO         0.0422
      5 C05       -33.4100  -17.5760   -2.1280 C.2       1 1PO         0.0122
      6 C06       -33.5710  -16.6200   -1.1860 C.2       1 1PO        -0.0904
      7 C07       -34.8620  -16.3220   -0.4880 C.3       1 1PO        -0.0190
      8 C08       -35.2830  -14.8180   -0.4820 C.3       1 1PO         0.0790
      9 O09       -34.3230  -14.1750    0.3160 O.3       1 1PO        -0.3759
     10 C10       -34.8140  -13.6210    1.5050 C.3       1 1PO         0.0372
     11 C11       -35.2250  -14.1650   -1.9200 C.3       1 1PO         0.0569
     12 C12       -36.3810  -14.7220   -2.7570 C.3       1 1PO        -0.0438
     13 C13       -35.2380  -12.6270   -1.9430 C.2       1 1PO         0.1103
     14 O14       -36.1800  -12.0270   -1.4520 O.2       1 1PO        -0.3912
     15 C15       -34.1100  -11.7860   -2.5530 C.3       1 1PO         0.0218
     16 C16       -34.2500  -10.2490   -2.3490 C.3       1 1PO        -0.0322
     17 C17       -33.0260   -9.3870   -2.7520 C.3       1 1PO        -0.0151
     18 C18       -31.9410   -9.4780   -1.6860 C.3       1 1PO        -0.0599
     19 C19       -33.3830   -7.8620   -2.9650 C.3       1 1PO         0.0660
     20 O20       -33.7270   -7.3690   -1.6970 O.3       1 1PO        -0.3791
     21 C21       -32.8950   -6.3450   -1.2200 C.3       1 1PO         0.0368
     22 C22       -34.5980   -7.5380   -3.8980 C.3       1 1PO         0.0096
     23 C23       -34.4380   -8.1180   -5.2960 C.3       1 1PO        -0.0577
     24 C24       -34.8570   -6.0000   -4.0130 C.3       1 1PO         0.0735
     25 C25       -35.8020   -5.7260   -5.1980 C.3       1 1PO         0.0068
     26 C26       -37.2060   -6.2850   -4.9590 C.3       1 1PO        -0.0579
     27 C27       -35.8310   -4.1970   -5.3840 C.3       1 1PO         0.0579
     28 O28       -34.5150   -3.6660   -5.4610 O.3       1 1PO        -0.3403
     29 C29       -33.7010   -3.9170   -4.3350 C.3       1 1PO         0.1895
     30 O30       -33.6310   -5.3220   -4.2130 O.3       1 1PO        -0.3367
     31 C31       -32.3050   -3.2600   -4.5510 C.ar      1 1PO         0.0015
     32 C32       -31.2530   -3.9570   -5.1740 C.ar      1 1PO        -0.0640
     33 C33       -29.9820   -3.4130   -5.3790 C.ar      1 1PO        -0.0394
     34 C34       -29.6920   -2.1170   -4.9600 C.ar      1 1PO         0.0837
     35 C35       -30.7100   -1.3970   -4.3320 C.ar      1 1PO        -0.0394
     36 C36       -31.9790   -1.9690   -4.1370 C.ar      1 1PO        -0.0640
     37 O37       -28.4460   -1.5520   -5.1450 O.3       1 1PO        -0.3257
     38 C38       -27.3600   -2.1800   -4.4860 C.3       1 1PO         0.0579
     39 H         -32.8830  -19.3096   -4.1514 H         1 1PO         0.1613
     40 H         -31.1323  -16.5561   -1.4194 H         1 1PO         0.0552
     41 H         -30.4293  -16.7039   -3.0657 H         1 1PO         0.0552
     42 H         -30.2078  -18.0281   -1.8723 H         1 1PO         0.0552
     43 H         -34.2868  -18.1322   -2.4564 H         1 1PO         0.0802
     44 H         -32.7003  -16.0244   -0.9155 H         1 1PO         0.0220
     45 H         -34.7684  -16.6533    0.5567 H         1 1PO         0.0360
     46 H         -35.6579  -16.8961   -0.9848 H         1 1PO         0.0360
     47 H         -36.2934  -14.7057   -0.0620 H         1 1PO         0.0639
     48 H         -33.9896  -13.1436    2.0549 H         1 1PO         0.0524
     49 H         -35.2564  -14.4152    2.1243 H         1 1PO         0.0524
     50 H         -35.5816  -12.8690    1.2696 H         1 1PO         0.0524
     51 H         -34.2801  -14.4833   -2.3845 H         1 1PO         0.0554
     52 H         -36.3539  -14.2761   -3.7622 H         1 1PO         0.0258
     53 H         -37.3370  -14.4752   -2.2721 H         1 1PO         0.0258
     54 H         -36.2821  -15.8146   -2.8378 H         1 1PO         0.0258
     55 H         -34.0824  -11.9854   -3.6344 H         1 1PO         0.0494
     56 H         -33.1614  -12.1055   -2.0969 H         1 1PO         0.0494
     57 H         -34.4493  -10.0695   -1.2822 H         1 1PO         0.0294
     58 H         -35.1098   -9.9090   -2.9449 H         1 1PO         0.0294
     59 H         -32.6296   -9.7843   -3.6980 H         1 1PO         0.0325
     60 H         -31.0802   -8.8621   -1.9855 H         1 1PO         0.0233
     61 H         -31.6221  -10.5250   -1.5758 H         1 1PO         0.0233
     62 H         -32.3374   -9.1125   -0.7272 H         1 1PO         0.0233
     63 H         -32.4942   -7.3461   -3.3572 H         1 1PO         0.0602
     64 H         -33.2407   -6.0248   -0.2260 H         1 1PO         0.0524
     65 H         -32.9300   -5.4914   -1.9129 H         1 1PO         0.0524
     66 H         -31.8620   -6.7159   -1.1470 H         1 1PO         0.0524
     67 H         -35.4879   -7.9978   -3.4435 H         1 1PO         0.0348
     68 H         -35.3179   -7.8592   -5.9032 H         1 1PO         0.0234
     69 H         -34.3466   -9.2122   -5.2308 H         1 1PO         0.0234
     70 H         -33.5340   -7.7018   -5.7644 H         1 1PO         0.0234
     71 H         -35.3237   -5.6393   -3.0845 H         1 1PO         0.0606
     72 H         -35.3932   -6.1969   -6.1042 H         1 1PO         0.0346
     73 H         -37.8413   -6.0651   -5.8296 H         1 1PO         0.0234
     74 H         -37.6388   -5.8181   -4.0620 H         1 1PO         0.0234
     75 H         -37.1474   -7.3738   -4.8136 H         1 1PO         0.0234
     76 H         -36.3530   -3.7410   -4.5298 H         1 1PO         0.0566
     77 H         -36.3696   -3.9582   -6.3129 H         1 1PO         0.0566
     78 H         -34.1594   -3.4909   -3.4304 H         1 1PO         0.1057
     79 H         -31.4384   -4.9698   -5.5129 H         1 1PO         0.0532
     80 H         -29.2162   -4.0043   -5.8678 H         1 1PO         0.0525
     81 H         -30.5197   -0.3858   -3.9911 H         1 1PO         0.0525
     82 H         -32.7407   -1.3783   -3.6411 H         1 1PO         0.0532
     83 H         -26.4303   -1.6374   -4.7126 H         1 1PO         0.0575
     84 H         -27.2717   -3.2198   -4.8338 H         1 1PO         0.0575
     85 H         -27.5348   -2.1702   -3.4000 H         1 1PO         0.0575
@<TRIPOS>BOND
     1    1    2 2  
     2    2    3 am 
     3    3    4 1  
     4    3    5 1  
     5    5    6 2  
     6    6    7 1  
     7    7    8 1  
     8    8    9 1  
     9    8   11 1  
    10    9   10 1  
    11   11   12 1  
    12   11   13 1  
    13   13   14 2  
    14   13   15 1  
    15   15   16 1  
    16   16   17 1  
    17   17   18 1  
    18   17   19 1  
    19   19   20 1  
    20   19   22 1  
    21   20   21 1  
    22   22   23 1  
    23   22   24 1  
    24   24   25 1  
    25   24   30 1  
    26   25   26 1  
    27   25   27 1  
    28   27   28 1  
    29   28   29 1  
    30   29   30 1  
    31   29   31 1  
    32   31   32 ar 
    33   31   36 ar 
    34   32   33 ar 
    35   33   34 ar 
    36   34   35 ar 
    37   34   37 1  
    38   35   36 ar 
    39   37   38 1  
    40    2   39 1  
    41    4   40 1  
    42    4   41 1  
    43    4   42 1  
    44    5   43 1  
    45    6   44 1  
    46    7   45 1  
    47    7   46 1  
    48    8   47 1  
    49   10   48 1  
    50   10   49 1  
    51   10   50 1  
    52   11   51 1  
    53   12   52 1  
    54   12   53 1  
    55   12   54 1  
    56   15   55 1  
    57   15   56 1  
    58   16   57 1  
    59   16   58 1  
    60   17   59 1  
    61   18   60 1  
    62   18   61 1  
    63   18   62 1  
    64   19   63 1  
    65   21   64 1  
    66   21   65 1  
    67   21   66 1  
    68   22   67 1  
    69   23   68 1  
    70   23   69 1  
    71   23   70 1  
    72   24   71 1  
    73   25   72 1  
    74   26   73 1  
    75   26   74 1  
    76   26   75 1  
    77   27   76 1  
    78   27   77 1  
    79   29   78 1  
    80   32   79 1  
    81   33   80 1  
    82   35   81 1  
    83   36   82 1  
    84   38   83 1  
    85   38   84 1  
    86   38   85 1  
@<TRIPOS>SUBSTRUCTURE
     1 1PO         1

