### 
### Created by X-TOOL on Mon Sep 10 21:13:16 2018
### 

@<TRIPOS>MOLECULE
4k4e_ligand
   55    58     1     0     0
SMALL
GAST_HUCK


@<TRIPOS>ATOM
      1 N1         -5.5810   44.2770   26.7720 N.pl3     1 K4E        -0.3083
      2 C1         -6.0330   44.6300   28.0360 C.ar      1 K4E         0.0707
      3 C2         -5.1930   44.4450   29.1820 C.ar      1 K4E        -0.0388
      4 C3         -5.7850   44.8050   30.4490 C.ar      1 K4E         0.0167
      5 C4         -7.1160   45.3160   30.6170 C.ar      1 K4E        -0.0702
      6 C5         -7.9670   45.5130   29.4800 C.ar      1 K4E        -0.0437
      7 C6         -7.3960   45.1570   28.1920 C.ar      1 K4E         0.1090
      8 O1         -8.1600   45.2920   27.0080 O.3       1 K4E        -0.3266
      9 C7         -9.3810   44.5000   26.9410 C.3       1 K4E         0.0566
     10 CL1        -4.9580   44.6990   32.0070 Cl        1 K4E        -0.0845
     11 C8         -4.6220   43.1870   26.5940 C.3       1 K4E         0.1117
     12 C9         -5.2810   41.8550   26.7240 C.2       1 K4E         0.1976
     13 O2         -4.6570   40.8470   26.5300 O.2       1 K4E        -0.3949
     14 N2         -6.5480   41.8580   27.0460 N.am      1 K4E        -0.2823
     15 C10        -7.3560   40.6490   27.0030 C.3       1 K4E         0.0423
     16 C11        -7.8280   40.3130   28.4570 C.3       1 K4E        -0.0273
     17 C12        -8.8680   39.2050   28.5320 C.3       1 K4E        -0.0226
     18 C13        -8.5870   40.9020   26.0560 C.3       1 K4E        -0.0273
     19 C14        -9.7240   39.8380   26.1830 C.3       1 K4E        -0.0226
     20 C15       -10.0670   39.4910   27.6540 C.3       1 K4E         0.0662
     21 N3        -11.0190   38.3440   27.6880 N.am      1 K4E        -0.2031
     22 C16       -10.9760   37.1060   27.1620 C.2       1 K4E         0.3099
     23 O3        -10.0890   36.6480   26.5220 O.2       1 K4E        -0.3952
     24 N4        -12.0640   36.3930   27.4120 N.am      1 K4E        -0.2199
     25 C17       -12.8840   37.2150   28.1050 C.ar      1 K4E         0.0915
     26 C18       -12.2250   38.4520   28.3060 C.ar      1 K4E         0.0944
     27 C19       -12.8320   39.5510   29.0030 C.ar      1 K4E        -0.0531
     28 C20       -14.1740   39.3340   29.4970 C.ar      1 K4E        -0.0902
     29 C21       -14.8340   38.0630   29.2800 C.ar      1 K4E        -0.0902
     30 C22       -14.2070   36.9640   28.5770 C.ar      1 K4E        -0.0533
     31 H1         -5.9257   44.7898   25.9479 H         1 K4E         0.1749
     32 H2         -4.1823   44.0611   29.1033 H         1 K4E         0.0486
     33 H3         -7.4800   45.5544   31.6098 H         1 K4E         0.0484
     34 H4         -8.9738   45.9033   29.5753 H         1 K4E         0.0503
     35 H5         -9.8866   44.6862   25.9820 H         1 K4E         0.0572
     36 H6        -10.0480   44.7838   27.7683 H         1 K4E         0.0572
     37 H7         -9.1303   43.4320   27.0220 H         1 K4E         0.0572
     38 H8         -3.8360   43.2735   27.3587 H         1 K4E         0.0751
     39 H9         -4.1710   43.2669   25.5939 H         1 K4E         0.0751
     40 H10        -6.9744   42.7167   27.3303 H         1 K4E         0.1854
     41 H11        -6.7584   39.8132   26.6102 H         1 K4E         0.0556
     42 H12        -8.2602   41.2229   28.8988 H         1 K4E         0.0288
     43 H13        -6.9498   40.0026   29.0422 H         1 K4E         0.0288
     44 H14        -9.2066   39.1060   29.5739 H         1 K4E         0.0293
     45 H15        -8.4059   38.2617   28.2054 H         1 K4E         0.0293
     46 H16        -8.2281   40.9004   25.0162 H         1 K4E         0.0288
     47 H17        -9.0098   41.8886   26.2964 H         1 K4E         0.0288
     48 H18        -9.4024   38.9186   25.6718 H         1 K4E         0.0293
     49 H19       -10.6283   40.2314   25.6957 H         1 K4E         0.0293
     50 H20       -10.5762   40.3669   28.0823 H         1 K4E         0.0621
     51 H21       -12.2416   35.4460   27.1445 H         1 K4E         0.2250
     52 H22       -12.3132   40.4912   29.1508 H         1 K4E         0.0460
     53 H23       -14.6875   40.1251   30.0314 H         1 K4E         0.0453
     54 H24       -15.8403   37.9292   29.6602 H         1 K4E         0.0453
     55 H25       -14.7080   36.0156   28.4199 H         1 K4E         0.0460
@<TRIPOS>BOND
     1    1    2 1  
     2    1   11 1  
     3    2    3 ar 
     4    2    7 ar 
     5    3    4 ar 
     6    4    5 ar 
     7    4   10 1  
     8    5    6 ar 
     9    6    7 ar 
    10    7    8 1  
    11    8    9 1  
    12   11   12 1  
    13   12   13 2  
    14   12   14 am 
    15   14   15 1  
    16   15   16 1  
    17   15   18 1  
    18   16   17 1  
    19   17   20 1  
    20   18   19 1  
    21   19   20 1  
    22   20   21 1  
    23   21   22 am 
    24   21   26 1  
    25   22   23 2  
    26   22   24 am 
    27   24   25 1  
    28   25   26 ar 
    29   25   30 ar 
    30   26   27 ar 
    31   27   28 ar 
    32   28   29 ar 
    33   29   30 ar 
    34    1   31 1  
    35    3   32 1  
    36    5   33 1  
    37    6   34 1  
    38    9   35 1  
    39    9   36 1  
    40    9   37 1  
    41   11   38 1  
    42   11   39 1  
    43   14   40 1  
    44   15   41 1  
    45   16   42 1  
    46   16   43 1  
    47   17   44 1  
    48   17   45 1  
    49   18   46 1  
    50   18   47 1  
    51   19   48 1  
    52   19   49 1  
    53   20   50 1  
    54   24   51 1  
    55   27   52 1  
    56   28   53 1  
    57   29   54 1  
    58   30   55 1  
@<TRIPOS>SUBSTRUCTURE
     1 K4E         1

