### 
### Created by X-TOOL on Mon Sep 10 21:13:16 2018
### 

@<TRIPOS>MOLECULE
4k4f_ligand
   56    60     1     0     0
SMALL
GAST_HUCK


@<TRIPOS>ATOM
      1 C1         -7.5140   46.0660   28.4820 C.ar      1 K4F        -0.0575
      2 C2         -7.5470   46.6210   29.7850 C.ar      1 K4F        -0.0685
      3 C3         -6.5030   46.3180   30.6910 C.ar      1 K4F        -0.0687
      4 C4         -5.4280   45.4740   30.3420 C.ar      1 K4F        -0.0685
      5 C5         -5.3990   44.9160   29.0130 C.ar      1 K4F        -0.0575
      6 C6         -6.4770   45.2380   28.0660 C.ar      1 K4F        -0.0090
      7 C7         -6.2760   44.7260   26.8210 C.3       1 K4F         0.1359
      8 C8         -5.3700   45.4230   25.7590 C.3       1 K4F         0.1315
      9 C9         -4.7810   46.7780   26.2500 C.3       1 K4F        -0.0271
     10 C10        -5.8300   45.4710   24.3530 C.3       1 K4F        -0.0271
     11 O1         -4.2470   44.4790   25.9170 O.3       1 K4F        -0.2473
     12 C11        -4.7070   43.1480   26.2380 C.2       1 K4F         0.3578
     13 O2         -3.9800   42.1640   26.2070 O.2       1 K4F        -0.3657
     14 N1         -6.0450   43.2570   26.5880 N.am      1 K4F        -0.1740
     15 C12        -6.9170   42.2530   26.8480 C.ar      1 K4F         0.0793
     16 C13        -8.2030   42.4940   27.4420 C.ar      1 K4F        -0.0347
     17 C14        -9.1300   41.4420   27.6410 C.ar      1 K4F        -0.0549
     18 C15        -6.6060   40.9230   26.4840 C.ar      1 K4F        -0.0347
     19 C16        -7.5400   39.8630   26.6860 C.ar      1 K4F        -0.0549
     20 C17        -8.7950   40.1210   27.2530 C.ar      1 K4F         0.0409
     21 C18        -9.7190   38.9460   27.3750 C.2       1 K4F         0.2252
     22 O3         -9.4490   37.8360   26.8680 O.2       1 K4F        -0.3781
     23 N2        -10.8920   39.1760   28.0790 N.am      1 K4F        -0.2279
     24 C19       -11.9410   38.3300   28.4060 C.ar      1 K4F         0.0955
     25 C20       -11.9930   36.9590   28.0140 C.ar      1 K4F        -0.0379
     26 C21       -13.1370   36.1600   28.3120 C.ar      1 K4F        -0.0763
     27 C22       -14.2350   36.7270   29.0030 C.ar      1 K4F        -0.0665
     28 C23       -13.0330   38.8710   29.0970 C.ar      1 K4F         0.0768
     29 C24       -14.2160   38.0500   29.4010 C.ar      1 K4F        -0.0059
     30 C25       -15.2820   38.6130   30.0790 C.ar      1 K4F        -0.0412
     31 C26       -15.2180   39.9680   30.4770 C.ar      1 K4F        -0.0360
     32 C27       -14.0580   40.7520   30.1750 C.ar      1 K4F         0.0076
     33 N3        -13.0130   40.1800   29.5020 N.ar      1 K4F        -0.2956
     34 H1         -8.3180   46.2926   27.7912 H         1 K4F         0.0558
     35 H2         -8.3621   47.2699   30.0844 H         1 K4F         0.0599
     36 H3         -6.5303   46.7485   31.6855 H         1 K4F         0.0559
     37 H4         -4.6431   45.2505   31.0555 H         1 K4F         0.0599
     38 H5         -4.5873   44.2629   28.7135 H         1 K4F         0.0558
     39 H6         -7.2839   44.8773   26.4073 H         1 K4F         0.0822
     40 H7         -4.1552   47.2144   25.4576 H         1 K4F         0.0263
     41 H8         -4.1693   46.6080   27.1483 H         1 K4F         0.0263
     42 H9         -5.6022   47.4690   26.4910 H         1 K4F         0.0263
     43 H10        -6.2337   44.4890   24.0656 H         1 K4F         0.0263
     44 H11        -4.9831   45.7250   23.6986 H         1 K4F         0.0263
     45 H12        -6.6150   46.2346   24.2499 H         1 K4F         0.0263
     46 H13        -8.4688   43.5007   27.7437 H         1 K4F         0.0517
     47 H14       -10.0951   41.6472   28.0898 H         1 K4F         0.0629
     48 H15        -5.6401   40.7041   26.0432 H         1 K4F         0.0517
     49 H16        -7.2767   38.8514   26.3988 H         1 K4F         0.0629
     50 H17       -10.9998   40.1143   28.4076 H         1 K4F         0.2308
     51 H18       -11.1551   36.5201   27.4845 H         1 K4F         0.0475
     52 H19       -13.1654   35.1194   28.0095 H         1 K4F         0.0587
     53 H20       -15.1023   36.1149   29.2228 H         1 K4F         0.0469
     54 H21       -16.1606   38.0192   30.3037 H         1 K4F         0.0734
     55 H22       -16.0485   40.4145   31.0118 H         1 K4F         0.0687
     56 H23       -14.0083   41.7917   30.4776 H         1 K4F         0.0824
@<TRIPOS>BOND
     1    1    2 ar 
     2    1    6 ar 
     3    2    3 ar 
     4    3    4 ar 
     5    4    5 ar 
     6    5    6 ar 
     7    6    7 1  
     8    7    8 1  
     9    7   14 1  
    10    8    9 1  
    11    8   10 1  
    12    8   11 1  
    13   11   12 1  
    14   12   13 2  
    15   12   14 am 
    16   14   15 1  
    17   15   16 ar 
    18   15   18 ar 
    19   16   17 ar 
    20   17   20 ar 
    21   18   19 ar 
    22   19   20 ar 
    23   20   21 1  
    24   21   22 2  
    25   21   23 am 
    26   23   24 1  
    27   24   25 ar 
    28   24   28 ar 
    29   25   26 ar 
    30   26   27 ar 
    31   27   29 ar 
    32   28   29 ar 
    33   28   33 ar 
    34   29   30 ar 
    35   30   31 ar 
    36   31   32 ar 
    37   32   33 ar 
    38    1   34 1  
    39    2   35 1  
    40    3   36 1  
    41    4   37 1  
    42    5   38 1  
    43    7   39 1  
    44    9   40 1  
    45    9   41 1  
    46    9   42 1  
    47   10   43 1  
    48   10   44 1  
    49   10   45 1  
    50   16   46 1  
    51   17   47 1  
    52   18   48 1  
    53   19   49 1  
    54   23   50 1  
    55   25   51 1  
    56   26   52 1  
    57   27   53 1  
    58   30   54 1  
    59   31   55 1  
    60   32   56 1  
@<TRIPOS>SUBSTRUCTURE
     1 K4F         1

