### 
### Created by X-TOOL on Mon Sep 10 21:13:15 2018
### 

@<TRIPOS>MOLECULE
4k4j_ligand
   43    44     1     0     0
SMALL
GAST_HUCK


@<TRIPOS>ATOM
      1 C2'        66.0190   46.3520   29.8460 C.3       1 1O8        -0.0081
      2 C1'        67.4210   46.2460   30.4540 C.3       1 1O8        -0.0288
      3 C18        67.4070   45.9490   31.9570 C.3       1 1O8        -0.0124
      4 C5         66.4150   46.8440   32.7070 C.ar      1 1O8        -0.0258
      5 C4         66.5840   47.0020   34.0790 C.ar      1 1O8        -0.0542
      6 C3         65.7030   47.7800   34.8220 C.ar      1 1O8        -0.0643
      7 C2         64.6340   48.4260   34.2060 C.ar      1 1O8        -0.0634
      8 C1         64.4620   48.2780   32.8360 C.ar      1 1O8        -0.0533
      9 C6         65.3440   47.4940   32.0990 C.ar      1 1O8        -0.0004
     10 C7         65.1640   47.3360   30.6470 C.2       1 1O8        -0.0226
     11 C8         64.1810   48.0770   30.0060 C.2       1 1O8        -0.0472
     12 C9         63.9580   47.9580   28.5570 C.2       1 1O8        -0.0493
     13 C19        65.0840   48.2970   27.5800 C.3       1 1O8        -0.0277
     14 C10        62.7160   47.5710   28.0620 C.2       1 1O8        -0.0686
     15 C11        61.5930   47.2640   28.9480 C.2       1 1O8        -0.0799
     16 C12        60.3680   46.8960   28.3990 C.2       1 1O8        -0.0729
     17 C13        59.2110   46.5940   29.2500 C.2       1 1O8        -0.0649
     18 C20        59.4240   46.0000   30.6440 C.3       1 1O8        -0.0334
     19 C14        57.9330   46.8380   28.7590 C.2       1 1O8        -0.0583
     20 C15        56.7200   46.5670   29.5370 C.2       1 1O8         0.0243
     21 O1         55.7760   47.3810   29.4440 O.co2     1 1O8        -0.5758
     22 O2         56.6850   45.5480   30.2610 O.co2     1 1O8        -0.5758
     23 H1         65.5414   45.3612   29.8610 H         1 1O8         0.0483
     24 H2         66.1000   46.7044   28.8071 H         1 1O8         0.0483
     25 H3         67.9456   47.1990   30.2910 H         1 1O8         0.0319
     26 H4         67.9633   45.4368   29.9430 H         1 1O8         0.0319
     27 H5         68.4154   46.1183   32.3624 H         1 1O8         0.0449
     28 H6         67.1224   44.8974   32.1091 H         1 1O8         0.0449
     29 H7         67.4137   46.5119   34.5754 H         1 1O8         0.0567
     30 H8         65.8497   47.8847   35.8909 H         1 1O8         0.0633
     31 H9         63.9484   49.0335   34.7856 H         1 1O8         0.0574
     32 H10        63.6371   48.7754   32.3387 H         1 1O8         0.0641
     33 H11        63.5628   48.7597   30.5871 H         1 1O8         0.0483
     34 H12        64.7315   48.1487   26.5486 H         1 1O8         0.0427
     35 H13        65.9454   47.6402   27.7711 H         1 1O8         0.0427
     36 H14        65.3851   49.3460   27.7172 H         1 1O8         0.0427
     37 H15        62.5762   47.4946   26.9847 H         1 1O8         0.0410
     38 H16        61.7145   47.3229   30.0286 H         1 1O8         0.0625
     39 H17        60.2661   46.8309   27.3167 H         1 1O8         0.0419
     40 H18        58.4490   45.8430   31.1285 H         1 1O8         0.0403
     41 H19        60.0270   46.6926   31.2495 H         1 1O8         0.0403
     42 H20        59.9490   45.0374   30.5561 H         1 1O8         0.0403
     43 H21        57.8288   47.2473   27.7552 H         1 1O8         0.0283
@<TRIPOS>BOND
     1    1    2 1  
     2    1   10 1  
     3    2    3 1  
     4    3    4 1  
     5    4    5 ar 
     6    4    9 ar 
     7    5    6 ar 
     8    6    7 ar 
     9    7    8 ar 
    10    8    9 ar 
    11    9   10 1  
    12   10   11 2  
    13   11   12 1  
    14   12   13 1  
    15   12   14 2  
    16   14   15 1  
    17   15   16 2  
    18   16   17 1  
    19   17   18 1  
    20   17   19 2  
    21   19   20 1  
    22   20   21 ar 
    23   20   22 ar 
    24    1   23 1  
    25    1   24 1  
    26    2   25 1  
    27    2   26 1  
    28    3   27 1  
    29    3   28 1  
    30    5   29 1  
    31    6   30 1  
    32    7   31 1  
    33    8   32 1  
    34   11   33 1  
    35   13   34 1  
    36   13   35 1  
    37   13   36 1  
    38   14   37 1  
    39   15   38 1  
    40   16   39 1  
    41   18   40 1  
    42   18   41 1  
    43   18   42 1  
    44   19   43 1  
@<TRIPOS>SUBSTRUCTURE
     1 1O8         1

