### 
### Created by X-TOOL on Mon Sep 10 21:13:16 2018
### 

@<TRIPOS>MOLECULE
4k5y_ligand
   54    55     1     0     0
SMALL
GAST_HUCK


@<TRIPOS>ATOM
      1 C18       -41.0020  -18.2520   33.2560 C.3       1 1Q5        -0.0251
      2 C20       -44.9960  -19.9570   35.8780 C.3       1 1Q5         0.0353
      3 C1        -37.9990  -21.7310   35.2040 C.ar      1 1Q5         0.1131
      4 C17       -41.6700  -22.3050   37.2960 C.3       1 1Q5        -0.0340
      5 C16       -41.5110  -21.2450   36.2460 C.ar      1 1Q5         0.0235
      6 C15       -42.6210  -20.3560   35.9030 C.ar      1 1Q5         0.0444
      7 C14       -42.4010  -19.4060   34.9270 C.ar      1 1Q5        -0.0343
      8 C13       -41.1760  -19.3020   34.3030 C.ar      1 1Q5        -0.0068
      9 C11       -40.2450  -21.0540   35.5270 C.ar      1 1Q5         0.1633
     10 C6        -37.7520  -22.2330   33.8400 C.ar      1 1Q5        -0.0244
     11 C7        -34.1090  -21.3010   33.3860 C.3       1 1Q5        -0.0388
     12 C8        -38.8580  -22.8940   33.0750 C.3       1 1Q5        -0.0354
     13 C9        -37.0850  -20.5790   37.2950 C.3       1 1Q5        -0.0354
     14 C5        -36.4930  -22.0790   33.2860 C.ar      1 1Q5        -0.0731
     15 C4        -35.4680  -21.4610   34.0030 C.ar      1 1Q5        -0.0690
     16 C3        -35.6530  -20.9790   35.2880 C.ar      1 1Q5        -0.0731
     17 C2        -36.8790  -21.0950   35.9110 C.ar      1 1Q5        -0.0244
     18 C24       -45.0090  -18.4300   37.8390 C.3       1 1Q5        -0.0632
     19 C23       -45.8550  -19.2710   36.9150 C.3       1 1Q5        -0.0333
     20 C21       -45.7950  -21.0660   35.2290 C.3       1 1Q5        -0.0333
     21 C22       -44.8860  -22.0100   34.4880 C.3       1 1Q5        -0.0632
     22 N19       -43.8110  -20.4710   36.5180 N.pl3     1 1Q5        -0.3190
     23 N12       -40.1420  -20.1030   34.6000 N.ar      1 1Q5        -0.2985
     24 O10       -39.2010  -21.8550   35.8170 O.3       1 1Q5        -0.2610
     25 H1        -41.9409  -17.6907   33.1401 H         1 1Q5         0.0402
     26 H2        -40.7388  -18.7277   32.2998 H         1 1Q5         0.0402
     27 H3        -40.1982  -17.5639   33.5568 H         1 1Q5         0.0402
     28 H4        -44.7006  -19.2300   35.1072 H         1 1Q5         0.0549
     29 H5        -42.6922  -22.2696   37.7009 H         1 1Q5         0.0342
     30 H6        -40.9481  -22.1289   38.1071 H         1 1Q5         0.0342
     31 H7        -41.4864  -23.2935   36.8499 H         1 1Q5         0.0342
     32 H8        -43.2024  -18.7320   34.6469 H         1 1Q5         0.0437
     33 H9        -34.1141  -21.7278   32.3722 H         1 1Q5         0.0370
     34 H10       -33.3630  -21.8257   34.0010 H         1 1Q5         0.0370
     35 H11       -33.8540  -20.2323   33.3326 H         1 1Q5         0.0370
     36 H12       -38.4875  -23.1999   32.0855 H         1 1Q5         0.0368
     37 H13       -39.6920  -22.1874   32.9519 H         1 1Q5         0.0368
     38 H14       -39.2064  -23.7800   33.6260 H         1 1Q5         0.0368
     39 H15       -36.1474  -20.1391   37.6656 H         1 1Q5         0.0368
     40 H16       -37.3872  -21.4065   37.9537 H         1 1Q5         0.0368
     41 H17       -37.8722  -19.8108   37.2865 H         1 1Q5         0.0368
     42 H18       -36.3010  -22.4429   32.2831 H         1 1Q5         0.0415
     43 H19       -34.8280  -20.5067   35.8089 H         1 1Q5         0.0415
     44 H20       -45.6543  -17.9413   38.5838 H         1 1Q5         0.0230
     45 H21       -44.4784  -17.6639   37.2547 H         1 1Q5         0.0230
     46 H22       -44.2776  -19.0716   38.3522 H         1 1Q5         0.0230
     47 H23       -46.3857  -20.0327   37.5051 H         1 1Q5         0.0284
     48 H24       -46.5864  -18.6249   36.4075 H         1 1Q5         0.0284
     49 H25       -46.5144  -20.6272   34.5220 H         1 1Q5         0.0284
     50 H26       -46.3382  -21.6230   36.0066 H         1 1Q5         0.0284
     51 H27       -45.4851  -22.8075   34.0242 H         1 1Q5         0.0230
     52 H28       -44.1663  -22.4540   35.1915 H         1 1Q5         0.0230
     53 H29       -44.3425  -21.4583   33.7068 H         1 1Q5         0.0230
     54 H30       -43.8756  -20.9237   37.4409 H         1 1Q5         0.1771
@<TRIPOS>BOND
     1    8    1 1  
     2    2   19 1  
     3    2   20 1  
     4   22    2 1  
     5   10    3 ar 
     6    3   17 ar 
     7    3   24 1  
     8    5    4 1  
     9    5    6 ar 
    10    9    5 ar 
    11    6    7 ar 
    12    6   22 1  
    13    8    7 ar 
    14   23    8 ar 
    15    9   23 ar 
    16   24    9 1  
    17   10   12 1  
    18   14   10 ar 
    19   15   11 1  
    20   17   13 1  
    21   14   15 ar 
    22   15   16 ar 
    23   16   17 ar 
    24   19   18 1  
    25   20   21 1  
    26    1   25 1  
    27    1   26 1  
    28    1   27 1  
    29    2   28 1  
    30    4   29 1  
    31    4   30 1  
    32    4   31 1  
    33    7   32 1  
    34   11   33 1  
    35   11   34 1  
    36   11   35 1  
    37   12   36 1  
    38   12   37 1  
    39   12   38 1  
    40   13   39 1  
    41   13   40 1  
    42   13   41 1  
    43   14   42 1  
    44   16   43 1  
    45   18   44 1  
    46   18   45 1  
    47   18   46 1  
    48   19   47 1  
    49   19   48 1  
    50   20   49 1  
    51   20   50 1  
    52   21   51 1  
    53   21   52 1  
    54   21   53 1  
    55   22   54 1  
@<TRIPOS>SUBSTRUCTURE
     1 1Q5         1

