### 
### Created by X-TOOL on Mon Sep 10 21:13:15 2018
### 

@<TRIPOS>MOLECULE
4k5z_ligand
   17    18     1     0     0
SMALL
GAST_HUCK


@<TRIPOS>ATOM
      1 O9         60.1760   59.7810    1.0130 O.2       1 1P7        -0.3884
      2 C8         60.7710   60.6480    0.3850 C.2       1 1P7         0.2022
      3 N7         60.6800   61.9900    0.5660 N.am      1 1P7        -0.2749
      4 C6         61.5630   62.6650   -0.4020 C.3       1 1P7         0.0675
      5 C10        61.7110   60.3480   -0.7010 C.ar      1 1P7         0.0540
      6 C11        62.1290   59.1300   -1.2410 C.ar      1 1P7        -0.0344
      7 C2         63.0440   59.1440   -2.2740 C.ar      1 1P7         0.0386
      8 CL1        63.5750   57.6260   -2.9510 Cl        1 1P7        -0.0758
      9 C5         62.2120   61.5580   -1.2010 C.ar      1 1P7        -0.0003
     10 C4         63.1250   61.5560   -2.2330 C.ar      1 1P7        -0.0519
     11 C3         63.5410   60.3480   -2.7680 C.ar      1 1P7        -0.0502
     12 H1         60.1066   62.4469    1.2461 H         1 1P7         0.1871
     13 H2         62.3264   63.2578    0.1231 H         1 1P7         0.0698
     14 H3         60.9780   63.3225   -1.0618 H         1 1P7         0.0698
     15 H4         61.7428   58.1929   -0.8567 H         1 1P7         0.0658
     16 H5         63.5137   62.4901   -2.6221 H         1 1P7         0.0570
     17 H6         64.2603   60.3394   -3.5790 H         1 1P7         0.0641
@<TRIPOS>BOND
     1    1    2 2  
     2    2    3 am 
     3    2    5 1  
     4    3    4 1  
     5    4    9 1  
     6    5    6 ar 
     7    5    9 ar 
     8    6    7 ar 
     9    7    8 1  
    10    7   11 ar 
    11    9   10 ar 
    12   10   11 ar 
    13    3   12 1  
    14    4   13 1  
    15    4   14 1  
    16    6   15 1  
    17   10   16 1  
    18   11   17 1  
@<TRIPOS>SUBSTRUCTURE
     1 1P7         1

