### 
### Created by X-TOOL on Mon Sep 10 21:13:13 2018
### 

@<TRIPOS>MOLECULE
4k60_ligand
   17    18     1     0     0
SMALL
GAST_HUCK


@<TRIPOS>ATOM
      1 O8         60.2820   59.6300    0.8270 O.2       1 1P8        -0.3888
      2 C7         61.0290   59.9010   -0.0970 C.2       1 1P8         0.2093
      3 C6         61.7980   58.9100   -0.9320 C.3       1 1P8         0.0734
      4 N9         61.3400   61.1320   -0.5610 N.am      1 1P8        -0.2347
      5 C10        62.2290   61.0790   -1.6390 C.ar      1 1P8         0.0750
      6 C11        62.7940   62.0950   -2.4180 C.ar      1 1P8        -0.0370
      7 C2         63.6630   61.7560   -3.4410 C.ar      1 1P8        -0.0071
      8 BR1        64.4420   63.1070   -4.5150 Br        1 1P8        -0.0597
      9 C5         62.5570   59.7580   -1.9240 C.ar      1 1P8         0.0015
     10 C4         63.4290   59.4350   -2.9380 C.ar      1 1P8        -0.0679
     11 C3         63.9910   60.4420   -3.7030 C.ar      1 1P8        -0.0736
     12 H1         61.1122   58.2245   -1.4514 H         1 1P8         0.0652
     13 H2         62.4918   58.3299   -0.3058 H         1 1P8         0.0652
     14 H3         60.9767   61.9813   -0.1780 H         1 1P8         0.2254
     15 H4         62.5543   63.1340   -2.2229 H         1 1P8         0.0511
     16 H5         63.6743   58.3980   -3.1365 H         1 1P8         0.0527
     17 H6         64.6832   60.2002   -4.5014 H         1 1P8         0.0499
@<TRIPOS>BOND
     1    1    2 2  
     2    2    3 1  
     3    2    4 am 
     4    3    9 1  
     5    4    5 1  
     6    5    6 ar 
     7    5    9 ar 
     8    6    7 ar 
     9    7    8 1  
    10    7   11 ar 
    11    9   10 ar 
    12   10   11 ar 
    13    3   12 1  
    14    3   13 1  
    15    4   14 1  
    16    6   15 1  
    17   10   16 1  
    18   11   17 1  
@<TRIPOS>SUBSTRUCTURE
     1 1P8         1

