### 
### Created by X-TOOL on Mon Sep 10 21:13:16 2018
### 

@<TRIPOS>MOLECULE
4k63_ligand
   87    89     1     0     0
SMALL
GAST_HUCK


@<TRIPOS>ATOM
      1 C1        -88.2860   62.4680   33.5160 C.2       1 SIA         0.1041
      2 C2        -87.2370   62.5560   34.6250 C.3       1 SIA         0.2208
      3 C3        -88.3050   62.5470   35.5780 C.3       1 SIA         0.0353
      4 C4        -89.0990   61.3740   35.7580 C.3       1 SIA         0.0850
      5 C5        -88.3450   60.2000   36.1920 C.3       1 SIA         0.0964
      6 C6        -87.2000   60.0520   35.2090 C.3       1 SIA         0.1143
      7 C7        -86.2530   59.1040   35.5020 C.3       1 SIA         0.1114
      8 C8        -85.0500   59.3790   34.6090 C.3       1 SIA         0.1065
      9 C9        -83.7700   58.9660   35.2960 C.3       1 SIA         0.0727
     10 C10       -88.9740   58.0400   37.3280 C.2       1 SIA         0.1733
     11 C11       -89.8190   56.8040   37.4590 C.3       1 SIA         0.0257
     12 N5        -89.2110   59.0050   36.2670 N.am      1 SIA        -0.2790
     13 O1A       -89.1230   63.4070   33.3670 O.co2     1 SIA        -0.5426
     14 O1B       -88.2850   61.5050   32.7270 O.co2     1 SIA        -0.5426
     15 O4        -90.1740   61.6600   36.7130 O.3       1 SIA        -0.3893
     16 O6        -86.5780   61.4350   35.2900 O.3       1 SIA        -0.3384
     17 O7        -85.8690   59.2170   36.8580 O.3       1 SIA        -0.3865
     18 O8        -85.2180   58.7140   33.4190 O.3       1 SIA        -0.3869
     19 O9        -82.6280   58.6920   34.5410 O.3       1 SIA        -0.3924
     20 O10       -88.0680   58.2350   38.1250 O.2       1 SIA        -0.3974
     21 C1        -85.8540   66.0020   37.9200 C.3       1 GAL         0.1884
     22 C2        -86.7510   65.3350   36.8820 C.3       1 GAL         0.1344
     23 C3        -86.2750   63.9650   36.3950 C.3       1 GAL         0.1197
     24 C4        -84.7490   63.8010   36.4040 C.3       1 GAL         0.1121
     25 C5        -84.1000   64.5650   37.5630 C.3       1 GAL         0.1130
     26 C6        -82.5760   64.4670   37.5350 C.3       1 GAL         0.0730
     27 O2        -88.0400   65.1710   37.4300 O.3       1 GAL        -0.3841
     28 O3        -86.7820   63.8540   35.0760 O.3       1 GAL        -0.3380
     29 O4        -84.1890   64.2100   35.1700 O.3       1 GAL        -0.3865
     30 O5        -84.5080   65.9160   37.5220 O.3       1 GAL        -0.3405
     31 O6        -82.0030   65.3780   38.4500 O.3       1 GAL        -0.3924
     32 C1        -87.0400   69.9520   41.1440 C.3       1 NAG         0.1823
     33 C2        -85.5950   69.9410   40.6650 C.3       1 NAG         0.1208
     34 C3        -85.4410   69.1150   39.3910 C.3       1 NAG         0.1114
     35 C4        -86.2050   67.7910   39.4240 C.3       1 NAG         0.1181
     36 C5        -87.5850   67.9230   40.0720 C.3       1 NAG         0.1133
     37 C6        -88.2240   66.5670   40.3630 C.3       1 NAG         0.0730
     38 C7        -84.6360   72.0450   41.3890 C.2       1 NAG         0.1733
     39 C8        -84.6720   73.5330   41.2030 C.3       1 NAG         0.0257
     40 N2        -85.1700   71.3070   40.4210 N.am      1 NAG        -0.2766
     41 O1        -87.1270   70.6140   42.3860 O.3       1 NAG        -0.3651
     42 O3        -84.0720   68.8600   39.1640 O.3       1 NAG        -0.3867
     43 O4        -86.3330   67.3520   38.0880 O.3       1 NAG        -0.3401
     44 O5        -87.4990   68.6280   41.2910 O.3       1 NAG        -0.3409
     45 O6        -87.2960   65.7290   41.0200 O.3       1 NAG        -0.3924
     46 O7        -84.1360   71.5540   42.3990 O.2       1 NAG        -0.3974
     47 H1        -88.9941   63.3540   35.2884 H         1 SIA         0.0336
     48 H2        -87.8583   62.7796   36.5559 H         1 SIA         0.0336
     49 H3        -89.5545   61.1307   34.7867 H         1 SIA         0.0618
     50 H4        -87.9325   60.3820   37.1953 H         1 SIA         0.0608
     51 H5        -87.5938   59.8461   34.2028 H         1 SIA         0.0646
     52 H6        -86.6497   58.0963   35.3093 H         1 SIA         0.0647
     53 H7        -84.9995   60.4587   34.4046 H         1 SIA         0.0643
     54 H8        -83.9973   58.0552   35.8694 H         1 SIA         0.0584
     55 H9        -83.5051   59.7786   35.9884 H         1 SIA         0.0584
     56 H10       -89.4745   56.2140   38.3211 H         1 SIA         0.0467
     57 H11       -89.7310   56.2009   36.5433 H         1 SIA         0.0467
     58 H12       -90.8699   57.0924   37.6086 H         1 SIA         0.0467
     59 H13       -89.9444   58.8632   35.6021 H         1 SIA         0.1856
     60 H14       -90.6585   62.4240   36.4232 H         1 SIA         0.2099
     61 H15       -86.6199   59.0453   37.4140 H         1 SIA         0.2100
     62 H16       -84.4891   58.9102   32.8423 H         1 SIA         0.2100
     63 H17       -81.9166   58.4487   35.1218 H         1 SIA         0.2095
     64 H18       -85.9561   65.4747   38.8800 H         1 SIA         0.0938
     65 H19       -86.8099   66.0035   36.0105 H         1 SIA         0.0671
     66 H20       -86.7090   63.1804   37.0322 H         1 SIA         0.0650
     67 H21       -84.5282   62.7320   36.5399 H         1 SIA         0.0647
     68 H22       -84.4519   64.1220   38.5063 H         1 SIA         0.0647
     69 H23       -82.2172   64.6988   36.5213 H         1 SIA         0.0584
     70 H24       -82.2743   63.4445   37.8059 H         1 SIA         0.0584
     71 H25       -88.3598   66.0098   37.7409 H         1 SIA         0.2101
     72 H26       -84.6004   63.7286   34.4618 H         1 SIA         0.2100
     73 H27       -82.2596   66.2625   38.2172 H         1 SIA         0.2095
     74 H28       -87.6645   70.4764   40.4057 H         1 SIA         0.0932
     75 H29       -84.9627   69.5005   41.4499 H         1 SIA         0.0633
     76 H30       -85.8331   69.7101   38.5531 H         1 SIA         0.0645
     77 H31       -85.6217   67.0555   39.9973 H         1 SIA         0.0650
     78 H32       -88.2358   68.4788   39.3810 H         1 SIA         0.0647
     79 H33       -88.5321   66.0984   39.4167 H         1 SIA         0.0584
     80 H34       -89.1053   66.7095   41.0057 H         1 SIA         0.0584
     81 H35       -84.2015   74.0222   42.0686 H         1 SIA         0.0467
     82 H36       -85.7166   73.8666   41.1164 H         1 SIA         0.0467
     83 H37       -84.1243   73.8015   40.2876 H         1 SIA         0.0467
     84 H38       -85.2809   71.7001   39.5082 H         1 SIA         0.1857
     85 H39       -88.0311   70.6201   42.6777 H         1 SIA         0.2126
     86 H40       -83.5970   69.6825   39.1434 H         1 SIA         0.2100
     87 H41       -87.0303   66.1326   41.8379 H         1 SIA         0.2095
@<TRIPOS>BOND
     1    2    1 1  
     2    1   13 ar 
     3    1   14 ar 
     4    2    3 1  
     5    2   16 1  
     6   28    2 1  
     7    3    4 1  
     8    4    5 1  
     9    4   15 1  
    10    6    5 1  
    11    5   12 1  
    12    6    7 1  
    13   16    6 1  
    14    7    8 1  
    15    7   17 1  
    16    8    9 1  
    17    8   18 1  
    18    9   19 1  
    19   10   11 1  
    20   12   10 am 
    21   10   20 2  
    22   21   22 1  
    23   21   30 1  
    24   43   21 1  
    25   22   23 1  
    26   22   27 1  
    27   23   24 1  
    28   23   28 1  
    29   25   24 1  
    30   24   29 1  
    31   25   26 1  
    32   30   25 1  
    33   26   31 1  
    34   33   32 1  
    35   32   41 1  
    36   32   44 1  
    37   33   34 1  
    38   40   33 1  
    39   34   35 1  
    40   34   42 1  
    41   35   36 1  
    42   35   43 1  
    43   36   37 1  
    44   44   36 1  
    45   37   45 1  
    46   38   39 1  
    47   38   40 am 
    48   38   46 2  
    49    3   47 1  
    50    3   48 1  
    51    4   49 1  
    52    5   50 1  
    53    6   51 1  
    54    7   52 1  
    55    8   53 1  
    56    9   54 1  
    57    9   55 1  
    58   11   56 1  
    59   11   57 1  
    60   11   58 1  
    61   12   59 1  
    62   15   60 1  
    63   17   61 1  
    64   18   62 1  
    65   19   63 1  
    66   21   64 1  
    67   22   65 1  
    68   23   66 1  
    69   24   67 1  
    70   25   68 1  
    71   26   69 1  
    72   26   70 1  
    73   27   71 1  
    74   29   72 1  
    75   31   73 1  
    76   32   74 1  
    77   33   75 1  
    78   34   76 1  
    79   35   77 1  
    80   36   78 1  
    81   37   79 1  
    82   37   80 1  
    83   39   81 1  
    84   39   82 1  
    85   39   83 1  
    86   40   84 1  
    87   41   85 1  
    88   42   86 1  
    89   45   87 1  
@<TRIPOS>SUBSTRUCTURE
     1 SIA         1

