### 
### Created by X-TOOL on Mon Sep 10 21:13:15 2018
### 

@<TRIPOS>MOLECULE
4k64_ligand
   60    61     1     0     0
SMALL
GAST_HUCK


@<TRIPOS>ATOM
      1 C1        -17.4000   39.7110   33.9250 C.2       1 SIA         0.1041
      2 C2        -18.1560   39.5340   35.1960 C.3       1 SIA         0.2204
      3 C3        -16.8530   39.5660   36.0340 C.3       1 SIA         0.0353
      4 C4        -16.0680   40.8490   36.0950 C.3       1 SIA         0.0850
      5 C5        -16.8230   41.9810   36.5070 C.3       1 SIA         0.0964
      6 C6        -18.1460   41.9620   35.7690 C.3       1 SIA         0.1143
      7 C7        -19.0670   42.9250   36.2950 C.3       1 SIA         0.1114
      8 C8        -20.3830   42.8570   35.5150 C.3       1 SIA         0.1065
      9 C9        -21.2150   44.1190   35.6480 C.3       1 SIA         0.0727
     10 C10       -16.0610   44.3660   37.1330 C.2       1 SIA         0.1733
     11 C11       -15.3020   45.6010   36.8000 C.3       1 SIA         0.0257
     12 N5        -16.0650   43.2180   36.1810 N.am      1 SIA        -0.2790
     13 O1A       -17.8230   40.5000   33.0830 O.co2     1 SIA        -0.5426
     14 O1B       -16.3290   39.0220   33.6670 O.co2     1 SIA        -0.5426
     15 O4        -14.9180   40.6840   36.9420 O.3       1 SIA        -0.3893
     16 O6        -18.7520   40.5950   35.8740 O.3       1 SIA        -0.3384
     17 O7        -19.3980   42.6070   37.5830 O.3       1 SIA        -0.3865
     18 O8        -20.1590   42.6280   34.1680 O.3       1 SIA        -0.3869
     19 O9        -22.3180   44.2320   34.8580 O.3       1 SIA        -0.3924
     20 O10       -16.6880   44.2900   38.1810 O.2       1 SIA        -0.3974
     21 C1        -20.5910   35.3180   38.5220 C.3       1 GAL         0.1854
     22 C2        -21.8470   35.8690   39.1710 C.3       1 GAL         0.1339
     23 C3        -22.6360   36.6720   38.1390 C.3       1 GAL         0.1141
     24 C4        -21.7560   37.6930   37.4140 C.3       1 GAL         0.1119
     25 C5        -20.3340   37.1950   37.1240 C.3       1 GAL         0.1132
     26 C6        -19.3860   38.3690   36.9290 C.3       1 GAL         0.0786
     27 O1        -19.8970   34.4860   39.4260 O.3       1 GAL        -0.3649
     28 O2        -22.6230   34.8060   39.6760 O.3       1 GAL        -0.3841
     29 O3        -23.7080   37.3460   38.7690 O.3       1 GAL        -0.3864
     30 O4        -21.7120   38.8940   38.1530 O.3       1 GAL        -0.3865
     31 O5        -19.7960   36.4260   38.1800 O.3       1 GAL        -0.3407
     32 O6        -18.8210   38.3460   35.6360 O.3       1 GAL        -0.3441
     33 H1        -16.1840   38.7956   35.6231 H         1 SIA         0.0336
     34 H2        -17.1249   39.3026   37.0668 H         1 SIA         0.0336
     35 H3        -15.7093   41.0556   35.0759 H         1 SIA         0.0618
     36 H4        -17.0034   41.9366   37.5912 H         1 SIA         0.0608
     37 H5        -17.9606   42.1947   34.7100 H         1 SIA         0.0646
     38 H6        -18.6288   43.9325   36.2408 H         1 SIA         0.0647
     39 H7        -20.9661   42.0168   35.9199 H         1 SIA         0.0643
     40 H8        -20.5584   44.9718   35.4206 H         1 SIA         0.0584
     41 H9        -21.5509   44.1833   36.6935 H         1 SIA         0.0584
     42 H10       -15.4153   46.3318   37.6143 H         1 SIA         0.0467
     43 H11       -15.6920   46.0303   35.8653 H         1 SIA         0.0467
     44 H12       -14.2374   45.3544   36.6742 H         1 SIA         0.0467
     45 H13       -15.5570   43.2803   35.3219 H         1 SIA         0.1856
     46 H14       -14.4223   39.9253   36.6569 H         1 SIA         0.2099
     47 H15       -19.7738   41.7348   37.6061 H         1 SIA         0.2100
     48 H16       -20.9915   42.5196   33.7237 H         1 SIA         0.2100
     49 H17       -22.0572   44.1979   33.9452 H         1 SIA         0.2095
     50 H18       -20.8508   34.7438   37.6204 H         1 SIA         0.0935
     51 H19       -21.5651   36.5320   40.0022 H         1 SIA         0.0671
     52 H20       -23.0439   35.9724   37.3946 H         1 SIA         0.0648
     53 H21       -22.2309   37.9058   36.4449 H         1 SIA         0.0647
     54 H22       -20.3607   36.5847   36.2092 H         1 SIA         0.0647
     55 H23       -18.5805   38.3103   37.6758 H         1 SIA         0.0586
     56 H24       -19.9425   39.3083   37.0629 H         1 SIA         0.0586
     57 H25       -20.4417   33.7409   39.6509 H         1 SIA         0.2126
     58 H26       -22.1149   34.3202   40.3149 H         1 SIA         0.2101
     59 H27       -23.3630   37.9718   39.3950 H         1 SIA         0.2100
     60 H28       -22.5977   39.1910   38.3255 H         1 SIA         0.2100
@<TRIPOS>BOND
     1    2    1 1  
     2    1   13 ar 
     3    1   14 ar 
     4    2    3 1  
     5    2   16 1  
     6   32    2 1  
     7    3    4 1  
     8    4    5 1  
     9    4   15 1  
    10    6    5 1  
    11    5   12 1  
    12    6    7 1  
    13   16    6 1  
    14    7    8 1  
    15    7   17 1  
    16    8    9 1  
    17    8   18 1  
    18    9   19 1  
    19   10   11 1  
    20   12   10 am 
    21   10   20 2  
    22   21   22 1  
    23   21   27 1  
    24   31   21 1  
    25   23   22 1  
    26   22   28 1  
    27   24   23 1  
    28   23   29 1  
    29   25   24 1  
    30   24   30 1  
    31   26   25 1  
    32   25   31 1  
    33   26   32 1  
    34    3   33 1  
    35    3   34 1  
    36    4   35 1  
    37    5   36 1  
    38    6   37 1  
    39    7   38 1  
    40    8   39 1  
    41    9   40 1  
    42    9   41 1  
    43   11   42 1  
    44   11   43 1  
    45   11   44 1  
    46   12   45 1  
    47   15   46 1  
    48   17   47 1  
    49   18   48 1  
    50   19   49 1  
    51   21   50 1  
    52   22   51 1  
    53   23   52 1  
    54   24   53 1  
    55   25   54 1  
    56   26   55 1  
    57   26   56 1  
    58   27   57 1  
    59   28   58 1  
    60   29   59 1  
    61   30   60 1  
@<TRIPOS>SUBSTRUCTURE
     1 SIA         1

