### 
### Created by X-TOOL on Mon Sep 10 21:13:15 2018
### 

@<TRIPOS>MOLECULE
4k66_ligand
   60    61     1     0     0
SMALL
GAST_HUCK


@<TRIPOS>ATOM
      1 C1          6.8630   15.3930   33.9100 C.2       1 SIA         0.1041
      2 C2          6.7860   15.7260   35.3770 C.3       1 SIA         0.2208
      3 C3          6.1180   14.5770   36.1240 C.3       1 SIA         0.0353
      4 C4          6.9580   13.3090   36.0380 C.3       1 SIA         0.0850
      5 C5          8.4110   13.5900   36.4020 C.3       1 SIA         0.0964
      6 C6          8.9410   14.7990   35.6410 C.3       1 SIA         0.1143
      7 C7         10.3680   15.1270   36.0640 C.3       1 SIA         0.1114
      8 C8         10.8140   16.4660   35.4880 C.3       1 SIA         0.1065
      9 C9         12.3080   16.6800   35.6970 C.3       1 SIA         0.0727
     10 C10        10.2880   12.1220   36.8580 C.2       1 SIA         0.1733
     11 C11        11.1920   11.0640   36.2970 C.3       1 SIA         0.0257
     12 N5          9.2280   12.4260   36.1160 N.am      1 SIA        -0.2790
     13 O1A         6.1930   14.4290   33.4800 O.co2     1 SIA        -0.5426
     14 O1B         7.5960   16.0930   33.1770 O.co2     1 SIA        -0.5426
     15 O4          6.4250   12.3220   36.9280 O.3       1 SIA        -0.3893
     16 O6          8.1010   15.9240   35.8900 O.3       1 SIA        -0.3384
     17 O7         10.4430   15.1740   37.4930 O.3       1 SIA        -0.3865
     18 O8         10.5180   16.5050   34.0870 O.3       1 SIA        -0.3869
     19 O9         13.0390   15.9560   34.7010 O.3       1 SIA        -0.3924
     20 O10        10.5110   12.6670   37.9270 O.2       1 SIA        -0.3974
     21 C1          4.6670   19.4900   33.1740 C.3       1 GAL         0.1854
     22 C2          4.8180   18.0980   33.8390 C.3       1 GAL         0.1342
     23 C3          5.3410   18.0780   35.2680 C.3       1 GAL         0.1197
     24 C4          6.3010   19.1990   35.6560 C.3       1 GAL         0.1121
     25 C5          5.7920   20.5160   35.0560 C.3       1 GAL         0.1130
     26 C6          6.6600   21.7540   35.4970 C.3       1 GAL         0.0730
     27 O1          4.8080   19.4310   31.7430 O.3       1 GAL        -0.3649
     28 O2          3.5750   17.4090   34.0990 O.3       1 GAL        -0.3841
     29 O3          5.7590   16.7280   35.5680 O.3       1 GAL        -0.3380
     30 O4          7.6160   18.8830   35.2900 O.3       1 GAL        -0.3865
     31 O5          5.6320   20.3790   33.6480 O.3       1 GAL        -0.3407
     32 O6          7.7940   22.1330   34.6520 O.3       1 GAL        -0.3924
     33 H1          5.1302   14.3850   35.6797 H         1 SIA         0.0336
     34 H2          5.9966   14.8571   37.1808 H         1 SIA         0.0336
     35 H3          6.9177   12.9253   35.0079 H         1 SIA         0.0618
     36 H4          8.4662   13.8038   37.4796 H         1 SIA         0.0608
     37 H5          8.9322   14.5733   34.5645 H         1 SIA         0.0646
     38 H6         11.0393   14.3386   35.6927 H         1 SIA         0.0647
     39 H7         10.2647   17.2724   35.9959 H         1 SIA         0.0643
     40 H8         12.5937   16.3189   36.6960 H         1 SIA         0.0584
     41 H9         12.5397   17.7521   35.6145 H         1 SIA         0.0584
     42 H10        12.0303   10.8936   36.9885 H         1 SIA         0.0467
     43 H11        11.5817   11.3936   35.3226 H         1 SIA         0.0467
     44 H12        10.6268   10.1291   36.1687 H         1 SIA         0.0467
     45 H13         8.9882   11.8388   35.3429 H         1 SIA         0.1856
     46 H14         5.5194   12.1478   36.7001 H         1 SIA         0.2099
     47 H15        10.1649   14.3392   37.8512 H         1 SIA         0.2100
     48 H16         9.5864   16.3715   33.9575 H         1 SIA         0.2100
     49 H17        12.7917   16.2686   33.8386 H         1 SIA         0.2095
     50 H18         3.6674   19.8792   33.4175 H         1 SIA         0.0935
     51 H19         5.4672   17.4978   33.1846 H         1 SIA         0.0671
     52 H20         4.4612   18.2575   35.9034 H         1 SIA         0.0650
     53 H21         6.2837   19.3027   36.7510 H         1 SIA         0.0647
     54 H22         4.7871   20.6879   35.4690 H         1 SIA         0.0647
     55 H23         7.0574   21.5349   36.4990 H         1 SIA         0.0584
     56 H24         5.9874   22.6227   35.5511 H         1 SIA         0.0584
     57 H25         5.6805   19.1254   31.5242 H         1 SIA         0.2126
     58 H26         3.7601   16.5468   34.4524 H         1 SIA         0.2101
     59 H27         7.8668   18.0603   35.6935 H         1 SIA         0.2100
     60 H28         8.2292   22.8890   35.0283 H         1 SIA         0.2095
@<TRIPOS>BOND
     1    2    1 1  
     2    1   13 ar 
     3    1   14 ar 
     4    2    3 1  
     5    2   16 1  
     6   29    2 1  
     7    3    4 1  
     8    4    5 1  
     9    4   15 1  
    10    6    5 1  
    11    5   12 1  
    12    6    7 1  
    13   16    6 1  
    14    7    8 1  
    15    7   17 1  
    16    8    9 1  
    17    8   18 1  
    18    9   19 1  
    19   10   11 1  
    20   12   10 am 
    21   10   20 2  
    22   22   21 1  
    23   21   27 1  
    24   21   31 1  
    25   23   22 1  
    26   22   28 1  
    27   23   24 1  
    28   23   29 1  
    29   24   25 1  
    30   24   30 1  
    31   25   26 1  
    32   25   31 1  
    33   26   32 1  
    34    3   33 1  
    35    3   34 1  
    36    4   35 1  
    37    5   36 1  
    38    6   37 1  
    39    7   38 1  
    40    8   39 1  
    41    9   40 1  
    42    9   41 1  
    43   11   42 1  
    44   11   43 1  
    45   11   44 1  
    46   12   45 1  
    47   15   46 1  
    48   17   47 1  
    49   18   48 1  
    50   19   49 1  
    51   21   50 1  
    52   22   51 1  
    53   23   52 1  
    54   24   53 1  
    55   25   54 1  
    56   26   55 1  
    57   26   56 1  
    58   27   57 1  
    59   28   58 1  
    60   30   59 1  
    61   32   60 1  
@<TRIPOS>SUBSTRUCTURE
     1 SIA         1

