### 
### Created by X-TOOL on Mon Sep 10 21:13:15 2018
### 

@<TRIPOS>MOLECULE
4k67_ligand
   60    61     1     0     0
SMALL
GAST_HUCK


@<TRIPOS>ATOM
      1 C1         18.0110  -21.8510   34.6000 C.2       1 SIA         0.1041
      2 C2         17.4760  -21.9840   35.9750 C.3       1 SIA         0.2204
      3 C3         18.8830  -21.9740   36.6230 C.3       1 SIA         0.0353
      4 C4         19.6360  -20.6700   36.7300 C.3       1 SIA         0.0850
      5 C5         18.8840  -19.5620   37.2150 C.3       1 SIA         0.0964
      6 C6         17.5790  -19.5700   36.4760 C.3       1 SIA         0.1143
      7 C7         16.6770  -18.5810   36.9660 C.3       1 SIA         0.1114
      8 C8         15.3170  -18.8850   36.3430 C.3       1 SIA         0.1065
      9 C9         14.2800  -17.8360   36.6170 C.3       1 SIA         0.0727
     10 C10        19.4700  -17.1420   37.9150 C.2       1 SIA         0.1733
     11 C11        20.1550  -15.8650   37.6090 C.3       1 SIA         0.0257
     12 N5         19.5580  -18.2700   36.9420 N.am      1 SIA        -0.2790
     13 O1A        17.4540  -21.0680   33.8170 O.co2     1 SIA        -0.5426
     14 O1B        19.0220  -22.5850   34.2180 O.co2     1 SIA        -0.5426
     15 O4         20.8080  -20.8430   37.5590 O.3       1 SIA        -0.3893
     16 O6         16.9720  -20.9160   36.6920 O.3       1 SIA        -0.3384
     17 O7         16.5420  -18.7010   38.3300 O.3       1 SIA        -0.3865
     18 O8         15.4280  -18.9330   34.9700 O.3       1 SIA        -0.3869
     19 O9         13.9710  -17.0930   35.5290 O.3       1 SIA        -0.3924
     20 O10        18.8430  -17.2640   38.9550 O.2       1 SIA        -0.3974
     21 C1         13.9090  -26.1490   37.6270 C.3       1 GAL         0.1854
     22 C2         13.0670  -26.4600   36.3850 C.3       1 GAL         0.1339
     23 C3         14.0210  -26.7770   35.2310 C.3       1 GAL         0.1141
     24 C4         14.9070  -25.5570   35.0030 C.3       1 GAL         0.1119
     25 C5         15.5710  -25.0440   36.2800 C.3       1 GAL         0.1132
     26 C6         15.9460  -23.6000   36.0320 C.3       1 GAL         0.0786
     27 O1         13.0850  -25.8940   38.7500 O.3       1 GAL        -0.3649
     28 O2         12.1370  -27.5060   36.6200 O.3       1 GAL        -0.3841
     29 O3         13.3180  -27.0670   34.0330 O.3       1 GAL        -0.3864
     30 O4         14.0980  -24.5300   34.4740 O.3       1 GAL        -0.3865
     31 O5         14.6880  -24.9910   37.3860 O.3       1 GAL        -0.3407
     32 O6         17.2430  -23.2990   36.4760 O.3       1 GAL        -0.3441
     33 H1         19.5115  -22.6607   36.0370 H         1 SIA         0.0336
     34 H2         18.7687  -22.3637   37.6453 H         1 SIA         0.0336
     35 H3         19.9704  -20.4116   35.7144 H         1 SIA         0.0618
     36 H4         18.7175  -19.6691   38.2970 H         1 SIA         0.0608
     37 H5         17.7594  -19.3984   35.4046 H         1 SIA         0.0646
     38 H6         17.0222  -17.5714   36.6987 H         1 SIA         0.0647
     39 H7         14.9665  -19.8538   36.7285 H         1 SIA         0.0643
     40 H8         14.6604  -17.1652   37.4015 H         1 SIA         0.0584
     41 H9         13.3652  -18.3333   36.9716 H         1 SIA         0.0584
     42 H10        19.9850  -15.1520   38.4292 H         1 SIA         0.0467
     43 H11        19.7544  -15.4491   36.6728 H         1 SIA         0.0467
     44 H12        21.2344  -16.0453   37.4978 H         1 SIA         0.0467
     45 H13        20.0778  -18.1531   36.0957 H         1 SIA         0.1856
     46 H14        21.3139  -21.5812   37.2401 H         1 SIA         0.2099
     47 H15        17.3755  -18.5169   38.7470 H         1 SIA         0.2100
     48 H16        15.6972  -18.0818   34.6452 H         1 SIA         0.2100
     49 H17        13.6325  -17.6596   34.8457 H         1 SIA         0.2095
     50 H18        14.5672  -27.0038   37.8415 H         1 SIA         0.0935
     51 H19        12.4929  -25.5596   36.1211 H         1 SIA         0.0671
     52 H20        14.6423  -27.6435   35.5016 H         1 SIA         0.0648
     53 H21        15.6929  -25.8204   34.2799 H         1 SIA         0.0647
     54 H22        16.4510  -25.6592   36.5192 H         1 SIA         0.0647
     55 H23        15.2321  -22.9536   36.5634 H         1 SIA         0.0586
     56 H24        15.8875  -23.4006   34.9518 H         1 SIA         0.0586
     57 H25        12.5222  -25.1510   38.5662 H         1 SIA         0.2126
     58 H26        11.5679  -27.2660   37.3418 H         1 SIA         0.2101
     59 H27        12.7813  -26.3206   33.7935 H         1 SIA         0.2100
     60 H28        13.6788  -24.8366   33.6785 H         1 SIA         0.2100
@<TRIPOS>BOND
     1    2    1 1  
     2    1   13 ar 
     3    1   14 ar 
     4    2    3 1  
     5    2   16 1  
     6   32    2 1  
     7    3    4 1  
     8    4    5 1  
     9    4   15 1  
    10    6    5 1  
    11    5   12 1  
    12    6    7 1  
    13   16    6 1  
    14    7    8 1  
    15    7   17 1  
    16    8    9 1  
    17    8   18 1  
    18    9   19 1  
    19   10   11 1  
    20   12   10 am 
    21   10   20 2  
    22   21   22 1  
    23   21   27 1  
    24   31   21 1  
    25   23   22 1  
    26   22   28 1  
    27   24   23 1  
    28   23   29 1  
    29   25   24 1  
    30   24   30 1  
    31   26   25 1  
    32   25   31 1  
    33   26   32 1  
    34    3   33 1  
    35    3   34 1  
    36    4   35 1  
    37    5   36 1  
    38    6   37 1  
    39    7   38 1  
    40    8   39 1  
    41    9   40 1  
    42    9   41 1  
    43   11   42 1  
    44   11   43 1  
    45   11   44 1  
    46   12   45 1  
    47   15   46 1  
    48   17   47 1  
    49   18   48 1  
    50   19   49 1  
    51   21   50 1  
    52   22   51 1  
    53   23   52 1  
    54   24   53 1  
    55   25   54 1  
    56   26   55 1  
    57   26   56 1  
    58   27   57 1  
    59   28   58 1  
    60   29   59 1  
    61   30   60 1  
@<TRIPOS>SUBSTRUCTURE
     1 SIA         1

