### 
### Created by X-TOOL on Mon Sep 10 21:13:14 2018
### 

@<TRIPOS>MOLECULE
4k69_ligand
   51    54     1     0     0
SMALL
GAST_HUCK


@<TRIPOS>ATOM
      1 O22        60.2530   59.2370    0.6240 O.2       1 1P9        -0.3893
      2 C21        60.9640   59.5070   -0.3230 C.2       1 1P9         0.2077
      3 N20        61.3080   60.7300   -0.7500 N.am      1 1P9        -0.2364
      4 C23        61.6360   58.5200   -1.2450 C.3       1 1P9         0.0707
      5 C24        62.3780   59.3750   -2.2390 C.ar      1 1P9         0.0051
      6 C19        62.1270   60.6870   -1.8730 C.ar      1 1P9         0.0684
      7 C18        62.6670   61.7240   -2.6190 C.ar      1 1P9        -0.0437
      8 C16        63.4610   61.4220   -3.7010 C.ar      1 1P9        -0.0131
      9 BR1        64.1950   62.8560   -4.6830 Br        1 1P9        -0.0612
     10 C15        63.7230   60.1130   -4.0620 C.ar      1 1P9        -0.0693
     11 C14        63.1720   59.0810   -3.3220 C.ar      1 1P9        -0.0212
     12 C13        63.4360   57.6370   -3.6870 C.3       1 1P9         0.0839
     13 N12        64.1060   57.5140   -4.9890 N.am      1 1P9        -0.1958
     14 C10        65.4290   57.3360   -5.1970 C.2       1 1P9         0.3143
     15 O11        66.2600   57.2730   -4.3120 O.2       1 1P9        -0.3949
     16 C25        63.4690   57.5220   -6.2180 C.ar      1 1P9         0.0963
     17 C30        64.4570   57.3600   -7.1940 C.ar      1 1P9         0.0949
     18 C29        64.0850   57.3430   -8.5320 C.ar      1 1P9        -0.0531
     19 C28        62.7530   57.4710   -8.8790 C.ar      1 1P9        -0.0902
     20 C27        61.7820   57.6340   -7.9030 C.ar      1 1P9        -0.0902
     21 C26        62.1300   57.6600   -6.5690 C.ar      1 1P9        -0.0529
     22 N9         65.6810   57.2490   -6.5200 N.am      1 1P9        -0.2011
     23 C4         67.0200   57.0770   -7.1100 C.3       1 1P9         0.0774
     24 C5         67.3730   58.2430   -8.0480 C.3       1 1P9         0.0285
     25 C6         66.8820   59.5770   -7.5470 C.2       1 1P9         0.0375
     26 O8         66.2820   60.4280   -8.3940 O.co2     1 1P9        -0.5689
     27 O7         67.0290   59.8960   -6.3940 O.co2     1 1P9        -0.5689
     28 C3         67.0770   55.7770   -7.9100 C.3       1 1P9        -0.0233
     29 C2         67.0730   54.5770   -6.9630 C.3       1 1P9        -0.0533
     30 C1         67.5420   53.3440   -7.7440 C.3       1 1P9        -0.0652
     31 H1         61.0095   61.5774   -0.3108 H         1 1P9         0.2252
     32 H2         60.8892   57.8925   -1.7534 H         1 1P9         0.0637
     33 H3         62.3340   57.8793   -0.6862 H         1 1P9         0.0637
     34 H4         62.4666   62.7558   -2.3538 H         1 1P9         0.0458
     35 H5         64.3540   59.8971   -4.9166 H         1 1P9         0.0442
     36 H6         62.4770   57.0998   -3.7286 H         1 1P9         0.0732
     37 H7         64.0757   57.1861   -2.9140 H         1 1P9         0.0732
     38 H8         64.8382   57.2295   -9.3033 H         1 1P9         0.0460
     39 H9         62.4651   57.4437   -9.9237 H         1 1P9         0.0453
     40 H10        60.7424   57.7417   -8.1905 H         1 1P9         0.0453
     41 H11        61.3714   57.7861   -5.8051 H         1 1P9         0.0460
     42 H12        67.7601   57.0351   -6.2973 H         1 1P9         0.0640
     43 H13        66.9194   58.0503   -9.0314 H         1 1P9         0.0458
     44 H14        68.4671   58.2896   -8.1516 H         1 1P9         0.0458
     45 H15        67.9965   55.7611   -8.5135 H         1 1P9         0.0293
     46 H16        66.2017   55.7195   -8.5738 H         1 1P9         0.0293
     47 H17        66.0557   54.4093   -6.5797 H         1 1P9         0.0264
     48 H18        67.7555   54.7655   -6.1212 H         1 1P9         0.0264
     49 H19        67.5460   52.4681   -7.0785 H         1 1P9         0.0230
     50 H20        68.5582   53.5176   -8.1276 H         1 1P9         0.0230
     51 H21        66.8583   53.1614   -8.5861 H         1 1P9         0.0230
@<TRIPOS>BOND
     1    1    2 2  
     2    2    3 am 
     3    2    4 1  
     4    3    6 1  
     5    4    5 1  
     6    5    6 ar 
     7    5   11 ar 
     8    6    7 ar 
     9    7    8 ar 
    10    8    9 1  
    11    8   10 ar 
    12   10   11 ar 
    13   11   12 1  
    14   12   13 1  
    15   13   14 am 
    16   13   16 1  
    17   14   15 2  
    18   14   22 am 
    19   16   17 ar 
    20   16   21 ar 
    21   17   18 ar 
    22   17   22 1  
    23   18   19 ar 
    24   19   20 ar 
    25   20   21 ar 
    26   22   23 1  
    27   23   24 1  
    28   23   28 1  
    29   24   25 1  
    30   25   26 ar 
    31   25   27 ar 
    32   28   29 1  
    33   29   30 1  
    34    3   31 1  
    35    4   32 1  
    36    4   33 1  
    37    7   34 1  
    38   10   35 1  
    39   12   36 1  
    40   12   37 1  
    41   18   38 1  
    42   19   39 1  
    43   20   40 1  
    44   21   41 1  
    45   23   42 1  
    46   24   43 1  
    47   24   44 1  
    48   28   45 1  
    49   28   46 1  
    50   29   47 1  
    51   29   48 1  
    52   30   49 1  
    53   30   50 1  
    54   30   51 1  
@<TRIPOS>SUBSTRUCTURE
     1 1P9         1

