### 
### Created by X-TOOL on Mon Sep 10 21:13:16 2018
### 

@<TRIPOS>MOLECULE
4k6i_ligand
   53    55     1     0     0
SMALL
GAST_HUCK


@<TRIPOS>ATOM
      1 O53        -9.6200   18.9690   -2.4360 O.co2     1 9RA        -0.5608
      2 C51        -8.7570   19.6730   -3.0050 C.2       1 9RA         0.0627
      3 O52        -9.0200   20.5530   -3.8510 O.co2     1 9RA        -0.5608
      4 C11        -7.2810   19.4260   -2.6730 C.ar      1 9RA         0.0100
      5 C10        -6.3020   19.7110   -3.6190 C.ar      1 9RA        -0.0472
      6 C12        -6.9110   18.8430   -1.4650 C.ar      1 9RA        -0.0472
      7 C13        -5.5790   18.5380   -1.2150 C.ar      1 9RA        -0.0501
      8 C14        -4.5950   18.8090   -2.1650 C.ar      1 9RA        -0.0094
      9 C9         -4.9690   19.4030   -3.3660 C.ar      1 9RA        -0.0501
     10 C47        -3.2740   18.4370   -1.9390 C.2       1 9RA         0.0145
     11 C48        -2.9620   17.6090   -0.8690 C.2       1 9RA        -0.0701
     12 C4         -2.2450   18.8670   -2.7790 C.ar      1 9RA         0.0467
     13 C3         -1.5010   19.9840   -2.4230 C.ar      1 9RA         0.0204
     14 C43        -1.8450   20.7860   -1.1650 C.3       1 9RA        -0.0101
     15 C2         -0.4630   20.4020   -3.2460 C.ar      1 9RA        -0.0138
     16 C5         -1.9320   18.1890   -3.9510 C.ar      1 9RA        -0.0091
     17 C6         -0.8900   18.6050   -4.7760 C.ar      1 9RA        -0.0425
     18 C19        -0.6010   17.8050   -6.0500 C.3       1 9RA        -0.0402
     19 C27        -0.5480   16.3170   -5.6980 C.3       1 9RA        -0.0833
     20 C31        -1.7300   18.0570   -7.0490 C.3       1 9RA        -0.0833
     21 C20         0.7280   18.2180   -6.6930 C.3       1 9RA        -0.0793
     22 C21         0.8520   19.7370   -6.7160 C.3       1 9RA        -0.0816
     23 C22         1.0080   20.2420   -5.2810 C.3       1 9RA        -0.0453
     24 C1         -0.1500   19.7300   -4.4180 C.ar      1 9RA        -0.0487
     25 C39         1.0310   21.7680   -5.2870 C.3       1 9RA        -0.0865
     26 C35         2.3210   19.7330   -4.6920 C.3       1 9RA        -0.0865
     27 H1         -6.5791   20.1756   -4.5584 H         1 9RA         0.0650
     28 H2         -7.6646   18.6261   -0.7166 H         1 9RA         0.0650
     29 H3         -5.3014   18.0841   -0.2705 H         1 9RA         0.0631
     30 H4         -4.2150   19.6280   -4.1116 H         1 9RA         0.0631
     31 H5         -3.7493   17.2620   -0.2014 H         1 9RA         0.0730
     32 H6         -1.9300   17.3066   -0.6974 H         1 9RA         0.0730
     33 H7         -1.1418   21.6256   -1.0617 H         1 9RA         0.0464
     34 H8         -1.7695   20.1339   -0.2824 H         1 9RA         0.0464
     35 H9         -2.8707   21.1748   -1.2471 H         1 9RA         0.0464
     36 H10         0.1162   21.2743   -2.9654 H         1 9RA         0.0905
     37 H11        -2.5121   17.3166   -4.2293 H         1 9RA         0.0994
     38 H12        -0.3408   15.7325   -6.6065 H         1 9RA         0.0136
     39 H13        -1.5142   16.0058   -5.2742 H         1 9RA         0.0136
     40 H14         0.2491   16.1429   -4.9603 H         1 9RA         0.0136
     41 H15        -1.7654   19.1274   -7.2999 H         1 9RA         0.0136
     42 H16        -2.6886   17.7530   -6.6033 H         1 9RA         0.0136
     43 H17        -1.5485   17.4721   -7.9627 H         1 9RA         0.0136
     44 H18         0.7679   17.8346   -7.7232 H         1 9RA         0.0164
     45 H19         1.5601   17.7943   -6.1116 H         1 9RA         0.0164
     46 H20        -0.0516   20.1747   -7.1654 H         1 9RA         0.0154
     47 H21         1.7330   20.0269   -7.3074 H         1 9RA         0.0154
     48 H22         1.1431   22.1370   -4.2568 H         1 9RA         0.0125
     49 H23         0.0900   22.1473   -5.7119 H         1 9RA         0.0125
     50 H24         1.8765   22.1196   -5.8964 H         1 9RA         0.0125
     51 H25         2.3165   18.6331   -4.6823 H         1 9RA         0.0125
     52 H26         2.4316   20.1082   -3.6639 H         1 9RA         0.0125
     53 H27         3.1611   20.0908   -5.3053 H         1 9RA         0.0125
@<TRIPOS>BOND
     1    1    2 ar 
     2    2    3 ar 
     3    2    4 1  
     4    4    5 ar 
     5    4    6 ar 
     6    5    9 ar 
     7    6    7 ar 
     8    7    8 ar 
     9    8    9 ar 
    10    8   10 1  
    11   10   11 2  
    12   10   12 1  
    13   12   13 ar 
    14   12   16 ar 
    15   13   14 1  
    16   13   15 ar 
    17   15   24 ar 
    18   16   17 ar 
    19   17   18 1  
    20   17   24 ar 
    21   18   19 1  
    22   18   20 1  
    23   18   21 1  
    24   21   22 1  
    25   22   23 1  
    26   23   24 1  
    27   23   25 1  
    28   23   26 1  
    29    5   27 1  
    30    6   28 1  
    31    7   29 1  
    32    9   30 1  
    33   11   31 1  
    34   11   32 1  
    35   14   33 1  
    36   14   34 1  
    37   14   35 1  
    38   15   36 1  
    39   16   37 1  
    40   19   38 1  
    41   19   39 1  
    42   19   40 1  
    43   20   41 1  
    44   20   42 1  
    45   20   43 1  
    46   21   44 1  
    47   21   45 1  
    48   22   46 1  
    49   22   47 1  
    50   25   48 1  
    51   25   49 1  
    52   25   50 1  
    53   26   51 1  
    54   26   52 1  
    55   26   53 1  
@<TRIPOS>SUBSTRUCTURE
     1 9RA         1

