### 
### Created by X-TOOL on Mon Sep 10 21:13:16 2018
### 

@<TRIPOS>MOLECULE
4k6z_ligand
   39    42     1     0     0
SMALL
GAST_HUCK


@<TRIPOS>ATOM
      1 C1         26.5510    6.3990    1.9700 C.2       1 1Q3        -0.0409
      2 C2         27.8130    7.0090    1.9280 C.2       1 1Q3         0.0490
      3 N3         28.9070    6.4210    1.3690 N.am      1 1Q3        -0.2236
      4 C5         28.8640    5.1080    0.7670 C.2       1 1Q3         0.2434
      5 O6         29.9070    4.6280    0.3230 O.2       1 1Q3        -0.3880
      6 C7         27.5300    4.4170    0.7900 C.ar      1 1Q3         0.1124
      7 C8         26.3770    5.0720    1.3890 C.ar      1 1Q3         0.0334
      8 C9         25.2020    4.2420    1.3440 C.ar      1 1Q3         0.1250
      9 N10        25.2130    3.0190    0.8020 N.ar      1 1Q3        -0.2663
     10 C11        26.3500    2.5300    0.3220 C.ar      1 1Q3         0.0823
     11 N12        27.5200    3.1710    0.2800 N.ar      1 1Q3        -0.2874
     12 C13        26.1900    1.1600   -0.0770 C.2       1 1Q3         0.0309
     13 C14        27.0850    0.2750   -0.6410 C.2       1 1Q3         0.0112
     14 N15        26.4890   -0.9190   -0.7010 N.2       1 1Q3        -0.2130
     15 N17        25.2250   -0.8870   -0.2310 N.pl3     1 1Q3        -0.2127
     16 C18        25.0200    0.3660    0.1500 C.2       1 1Q3         0.0690
     17 N19        23.9740    4.3540    1.8680 N.pl3     1 1Q3        -0.2963
     18 C20        23.2460    5.1820    2.7890 C.3       1 1Q3         0.0670
     19 C21        21.7860    5.2230    2.3080 C.3       1 1Q3        -0.0272
     20 C22        21.0120    4.2540    3.2230 C.3       1 1Q3        -0.0486
     21 C23        22.0480    3.3580    3.8940 C.3       1 1Q3        -0.0241
     22 C24        23.0520    4.4390    4.1680 C.3       1 1Q3         0.1067
     23 C25        24.2790    3.9320    4.7960 C.1       1 1Q3         0.0954
     24 N26        25.2260    3.5860    5.3220 N.1       1 1Q3        -0.3032
     25 H1         25.7084    6.9112    2.4321 H         1 1Q3         0.0305
     26 H2         27.9237    8.0010    2.3635 H         1 1Q3         0.1118
     27 H3         29.7748    6.9178    1.3754 H         1 1Q3         0.2493
     28 H4         28.0946    0.5075   -0.9766 H         1 1Q3         0.0689
     29 H5         24.5592   -1.6712   -0.1791 H         1 1Q3         0.2617
     30 H6         24.0904    0.7399    0.5766 H         1 1Q3         0.1086
     31 H7         23.3604    3.6162    1.4937 H         1 1Q3         0.1856
     32 H8         23.7076    6.1748    2.8944 H         1 1Q3         0.0585
     33 H9         21.7191    4.8953    1.2601 H         1 1Q3         0.0289
     34 H10        21.3813    6.2417    2.4002 H         1 1Q3         0.0289
     35 H11        20.3149    3.6463    2.6274 H         1 1Q3         0.0267
     36 H12        20.4503    4.8177    3.9825 H         1 1Q3         0.0267
     37 H13        22.4363    2.5810    3.2191 H         1 1Q3         0.0289
     38 H14        21.6695    2.8888    4.8141 H         1 1Q3         0.0289
     39 H15        22.6107    5.1535    4.8784 H         1 1Q3         0.0616
@<TRIPOS>BOND
     1    1    2 2  
     2    1    7 1  
     3    2    3 1  
     4    3    4 am 
     5    4    5 2  
     6    4    6 1  
     7    6    7 ar 
     8    6   11 ar 
     9    7    8 ar 
    10    8    9 ar 
    11    8   17 1  
    12    9   10 ar 
    13   10   11 ar 
    14   10   12 1  
    15   12   13 1  
    16   12   16 2  
    17   13   14 2  
    18   14   15 1  
    19   15   16 1  
    20   17   18 1  
    21   18   19 1  
    22   18   22 1  
    23   19   20 1  
    24   20   21 1  
    25   21   22 1  
    26   22   23 1  
    27   23   24 3  
    28    1   25 1  
    29    2   26 1  
    30    3   27 1  
    31   13   28 1  
    32   15   29 1  
    33   16   30 1  
    34   17   31 1  
    35   18   32 1  
    36   19   33 1  
    37   19   34 1  
    38   20   35 1  
    39   20   36 1  
    40   21   37 1  
    41   21   38 1  
    42   22   39 1  
@<TRIPOS>SUBSTRUCTURE
     1 1Q3         1

