### 
### Created by X-TOOL on Mon Sep 10 21:13:17 2018
### 

@<TRIPOS>MOLECULE
4k72_ligand
   64    63     1     0     0
SMALL
GAST_HUCK


@<TRIPOS>ATOM
      1 N          -5.3110   24.4770   45.1570 N.4       1 ASP         0.2391
      2 CA         -3.9830   24.7430   44.6700 C.3       1 ASP         0.0764
      3 C          -3.0830   23.7650   45.3400 C.2       1 ASP         0.2285
      4 O          -3.3840   23.4000   46.4610 O.2       1 ASP        -0.3906
      5 CB         -3.6080   26.1440   45.0870 C.3       1 ASP         0.0607
      6 CG         -4.5380   27.1340   44.5380 C.2       1 ASP         0.0425
      7 OD1        -5.5060   26.6990   43.9510 O.co2     1 ASP        -0.5686
      8 OD2        -4.3270   28.3020   44.6560 O.co2     1 ASP        -0.5686
      9 N          -1.9910   23.3390   44.7180 N.am      1 SER        -0.2588
     10 CA         -1.0280   22.6040   45.5290 C.3       1 SER         0.1540
     11 C           0.0240   23.5140   46.1520 C.2       1 SER         0.2062
     12 O           0.5390   24.4190   45.4970 O.2       1 SER        -0.3943
     13 CB         -0.3380   21.5520   44.6710 C.3       1 SER         0.0843
     14 OG         -1.2920   20.7570   43.9990 O.3       1 SER        -0.3903
     15 N           0.3470   23.2570   47.4180 N.am      1 ILE        -0.2634
     16 CA          1.3990   23.9970   48.1090 C.3       1 ILE         0.1335
     17 C           2.7280   23.2900   47.9070 C.2       1 ILE         0.2036
     18 O           2.8260   22.0790   48.1040 O.2       1 ILE        -0.3944
     19 CB          1.1440   24.0680   49.6240 C.3       1 ILE        -0.0037
     20 CG1        -0.3210   24.3990   49.9290 C.3       1 ILE        -0.0491
     21 CG2         2.1260   25.0450   50.2920 C.3       1 ILE        -0.0582
     22 CD1        -0.8630   25.6050   49.2020 C.3       1 ILE        -0.0648
     23 N           3.7510   24.0440   47.5180 N.am      1 ILE        -0.2692
     24 CA          5.0790   23.4830   47.3090 C.3       1 ILE         0.0969
     25 C           6.1330   24.3660   47.9590 C.2       1 ILE         0.0604
     26 O           5.9160   25.5600   48.1550 O.co2     1 ILE        -0.5666
     27 CB          5.4300   23.3440   45.8050 C.3       1 ILE        -0.0092
     28 CG1         4.2550   22.7560   45.0200 C.3       1 ILE        -0.0497
     29 CG2         6.6850   22.4920   45.6270 C.3       1 ILE        -0.0588
     30 CD1         4.4720   22.7700   43.5070 C.3       1 ILE        -0.0649
     31 OXT         7.2250   23.8980   48.2790 O.co2     1 ILE        -0.5666
     32 H          -5.9605   25.1183   44.7292 H         1 ASP         0.2016
     33 H          -5.3319   24.5954   46.1578 H         1 ASP         0.2016
     34 H          -5.5708   23.5311   44.9251 H         1 ASP         0.2016
     35 H          -3.9314   24.6379   43.5763 H         1 ASP         0.1117
     36 H          -2.5939   26.3660   44.7233 H         1 ASP         0.0512
     37 H          -3.6258   26.2071   46.1850 H         1 ASP         0.0512
     38 H          -1.8369   23.5128   43.7453 H         1 SER         0.1885
     39 H          -1.5737   22.1003   46.3404 H         1 SER         0.0823
     40 H           0.2801   20.9088   45.3146 H         1 SER         0.0606
     41 H           0.3022   22.0527   43.9298 H         1 SER         0.0606
     42 H          -1.8259   21.3095   43.4402 H         1 SER         0.2097
     43 H          -0.1444   22.5375   47.9089 H         1 ILE         0.1883
     44 H           1.4502   25.0161   47.6981 H         1 ILE         0.0803
     45 H           1.3433   23.0696   50.0405 H         1 ILE         0.0345
     46 H          -0.4125   24.5816   51.0099 H         1 ILE         0.0267
     47 H          -0.9333   23.5285   49.6511 H         1 ILE         0.0267
     48 H           3.1574   24.7587   50.0385 H         1 ILE         0.0235
     49 H           1.9933   25.0094   51.3834 H         1 ILE         0.0235
     50 H           1.9298   26.0657   49.9319 H         1 ILE         0.0235
     51 H          -1.9147   25.7611   49.4841 H         1 ILE         0.0230
     52 H          -0.7952   25.4400   48.1166 H         1 ILE         0.0230
     53 H          -0.2744   26.4931   49.4754 H         1 ILE         0.0230
     54 H           3.6054   25.0214   47.3649 H         1 ILE         0.1875
     55 H           5.1089   22.4856   47.7720 H         1 ILE         0.0729
     56 H           5.6377   24.3482   45.4071 H         1 ILE         0.0338
     57 H           3.3533   23.3430   45.2489 H         1 ILE         0.0267
     58 H           4.1061   21.7147   45.3418 H         1 ILE         0.0267
     59 H           7.5131   22.9349   46.1998 H         1 ILE         0.0234
     60 H           6.9550   22.4550   44.5613 H         1 ILE         0.0234
     61 H           6.4909   21.4726   45.9918 H         1 ILE         0.0234
     62 H           3.5940   22.3355   43.0067 H         1 ILE         0.0230
     63 H           5.3654   22.1781   43.2592 H         1 ILE         0.0230
     64 H           4.6126   23.8064   43.1663 H         1 ILE         0.0230
@<TRIPOS>BOND
     1    1    2 1  
     2    2    3 1  
     3    2    5 1  
     4    3    4 2  
     5    3    9 am 
     6    5    6 1  
     7    6    7 ar 
     8    6    8 ar 
     9    9   10 1  
    10   10   11 1  
    11   10   13 1  
    12   11   12 2  
    13   11   15 am 
    14   13   14 1  
    15   15   16 1  
    16   16   17 1  
    17   16   19 1  
    18   17   18 2  
    19   17   23 am 
    20   19   20 1  
    21   19   21 1  
    22   20   22 1  
    23   23   24 1  
    24   24   25 1  
    25   24   27 1  
    26   25   26 ar 
    27   25   31 ar 
    28   27   28 1  
    29   27   29 1  
    30   28   30 1  
    31    1   32 1  
    32    1   33 1  
    33    1   34 1  
    34    2   35 1  
    35    5   36 1  
    36    5   37 1  
    37    9   38 1  
    38   10   39 1  
    39   13   40 1  
    40   13   41 1  
    41   14   42 1  
    42   15   43 1  
    43   16   44 1  
    44   19   45 1  
    45   20   46 1  
    46   20   47 1  
    47   21   48 1  
    48   21   49 1  
    49   21   50 1  
    50   22   51 1  
    51   22   52 1  
    52   22   53 1  
    53   23   54 1  
    54   24   55 1  
    55   27   56 1  
    56   28   57 1  
    57   28   58 1  
    58   29   59 1  
    59   29   60 1  
    60   29   61 1  
    61   30   62 1  
    62   30   63 1  
    63   30   64 1  
@<TRIPOS>SUBSTRUCTURE
     1 ASP         1

