### 
### Created by X-TOOL on Mon Sep 10 21:13:14 2018
### 

@<TRIPOS>MOLECULE
4k77_ligand
   34    36     1     0     0
SMALL
GAST_HUCK


@<TRIPOS>ATOM
      1 C1         16.7810    3.4300    1.3360 C.2       1 1Q4        -0.0379
      2 C2         17.2900    2.1910    1.2600 C.2       1 1Q4         0.0511
      3 N3         16.6540    1.1550    0.6280 N.am      1 1Q4        -0.2222
      4 C5         15.4500    1.3050    0.0230 C.2       1 1Q4         0.2450
      5 O6         14.9060    0.3610   -0.5510 O.2       1 1Q4        -0.3882
      6 C7         14.8080    2.6310    0.0700 C.ar      1 1Q4         0.1194
      7 C8         15.4790    3.6860    0.7300 C.ar      1 1Q4         0.0381
      8 C9         14.8530    4.9600    0.7520 C.ar      1 1Q4         0.1322
      9 N10        13.6760    5.0910    0.1530 N.ar      1 1Q4        -0.2593
     10 C11        13.0880    4.0630   -0.4400 C.ar      1 1Q4         0.0627
     11 N12        13.6270    2.8740   -0.4890 N.ar      1 1Q4        -0.2805
     12 N13        15.4410    6.0400    1.3810 N.pl3     1 1Q4        -0.2975
     13 C14        14.8070    7.3570    1.3150 C.3       1 1Q4         0.0408
     14 C15        13.9920    7.5560    2.5930 C.3       1 1Q4        -0.0295
     15 C16        13.5060    9.0090    2.7050 C.3       1 1Q4        -0.0509
     16 C17        14.7000    9.9750    2.6760 C.3       1 1Q4        -0.0529
     17 C18        15.3340    9.8400    1.2910 C.3       1 1Q4        -0.0509
     18 C19        15.9080    8.4180    1.1830 C.3       1 1Q4        -0.0295
     19 H1         17.3275    4.2266    1.8387 H         1 1Q4         0.0308
     20 H2         18.2566    1.9992    1.7236 H         1 1Q4         0.1138
     21 H3         17.0932    0.2568    0.6124 H         1 1Q4         0.2502
     22 H4         12.1199    4.2144   -0.9036 H         1 1Q4         0.0991
     23 H5         16.3247    5.9184    1.8959 H         1 1Q4         0.1856
     24 H6         14.1398    7.4118    0.4422 H         1 1Q4         0.0561
     25 H7         14.6208    7.3173    3.4634 H         1 1Q4         0.0288
     26 H8         13.1212    6.8842    2.5745 H         1 1Q4         0.0288
     27 H9         12.9590    9.1367    3.6508 H         1 1Q4         0.0266
     28 H10        12.8370    9.2338    1.8613 H         1 1Q4         0.0266
     29 H11        15.4275    9.7035    3.4550 H         1 1Q4         0.0265
     30 H12        14.3574   11.0076    2.8381 H         1 1Q4         0.0265
     31 H13        16.1391   10.5801    1.1726 H         1 1Q4         0.0266
     32 H14        14.5732    9.9981    0.5125 H         1 1Q4         0.0266
     33 H15        16.3993    8.3039    0.2055 H         1 1Q4         0.0288
     34 H16        16.6466    8.2687    1.9843 H         1 1Q4         0.0288
@<TRIPOS>BOND
     1    1    2 2  
     2    1    7 1  
     3    2    3 1  
     4    3    4 am 
     5    4    5 2  
     6    4    6 1  
     7    6    7 ar 
     8    6   11 ar 
     9    7    8 ar 
    10    8    9 ar 
    11    8   12 1  
    12    9   10 ar 
    13   10   11 ar 
    14   12   13 1  
    15   13   14 1  
    16   13   18 1  
    17   14   15 1  
    18   15   16 1  
    19   16   17 1  
    20   17   18 1  
    21    1   19 1  
    22    2   20 1  
    23    3   21 1  
    24   10   22 1  
    25   12   23 1  
    26   13   24 1  
    27   14   25 1  
    28   14   26 1  
    29   15   27 1  
    30   15   28 1  
    31   16   29 1  
    32   16   30 1  
    33   17   31 1  
    34   17   32 1  
    35   18   33 1  
    36   18   34 1  
@<TRIPOS>SUBSTRUCTURE
     1 1Q4         1

