### 
### Created by X-TOOL on Mon Sep 10 21:13:13 2018
### 

@<TRIPOS>MOLECULE
4k8a_ligand
   16    17     1     0     0
SMALL
GAST_HUCK


@<TRIPOS>ATOM
      1 C1        -11.4370  -26.7470   43.8250 C.2       1 K8A         0.1945
      2 N2        -12.9930  -26.9980   45.2820 N.2       1 K8A        -0.1365
      3 N3        -11.7950  -26.5830   45.0860 N.2       1 K8A        -0.2039
      4 N4        -13.4940  -27.4380   44.1820 N.2       1 K8A        -0.0622
      5 N5        -12.5080  -27.2850   43.1890 N.pl3     1 K8A        -0.1490
      6 C6        -10.1370  -26.3790   43.2080 C.ar      1 K8A         0.0706
      7 N7         -8.0830  -25.1820   43.3170 N.ar      1 K8A        -0.2884
      8 C8         -9.7950  -26.8350   41.9220 C.ar      1 K8A        -0.0153
      9 C9         -9.2320  -25.5360   43.8760 C.ar      1 K8A         0.0316
     10 C10        -8.5750  -26.4380   41.3780 C.ar      1 K8A         0.0452
     11 BR1        -8.0840  -26.9980   39.6400 Br        1 K8A        -0.0393
     12 C12        -7.7380  -25.5930   42.1050 C.ar      1 K8A         0.0242
     13 H1        -12.5836  -27.5296   42.1913 H         1 K8A         0.2713
     14 H2        -10.4655  -27.4808   41.3666 H         1 K8A         0.0806
     15 H3         -9.4779  -25.1688   44.8658 H         1 K8A         0.0892
     16 H4         -6.7969  -25.2692   41.6755 H         1 K8A         0.0874
@<TRIPOS>BOND
     1    1    3 2  
     2    1    5 1  
     3    1    6 1  
     4    3    2 1  
     5    2    4 2  
     6    4    5 1  
     7    6    8 ar 
     8    6    9 ar 
     9    9    7 ar 
    10    7   12 ar 
    11    8   10 ar 
    12   10   11 1  
    13   10   12 ar 
    14    5   13 1  
    15    8   14 1  
    16    9   15 1  
    17   12   16 1  
@<TRIPOS>SUBSTRUCTURE
     1 K8A         1

