### 
### Created by X-TOOL on Mon Sep 10 21:13:15 2018
### 

@<TRIPOS>MOLECULE
4k8s_ligand
   82    86     1     0     0
SMALL
GAST_HUCK


@<TRIPOS>ATOM
      1 C2         62.7910   -7.5770   25.8210 C.3       1 1QT        -0.0194
      2 C3         61.5640   -8.2960   26.4190 C.3       1 1QT        -0.0472
      3 C4         62.1140   -9.6590   25.8810 C.3       1 1QT        -0.0194
      4 C1         63.0780   -8.8480   24.9650 C.3       1 1QT         0.0955
      5 C24        62.6050   -8.7400   23.4920 C.3       1 1QT         0.0316
      6 O3         64.4250   -9.2790   25.0160 O.3       1 1QT        -0.3192
      7 C26        65.3460   -8.6360   24.2980 C.ar      1 1QT         0.0917
      8 C27        66.6640   -8.7020   24.7510 C.ar      1 1QT        -0.0458
      9 C28        67.6470   -8.0070   24.0610 C.ar      1 1QT        -0.0758
     10 C29        67.2970   -7.2980   22.9140 C.ar      1 1QT        -0.0605
     11 C31        68.3180   -6.5610   22.1120 C.3       1 1QT        -0.0286
     12 C32        68.2360   -5.1020   22.5240 C.3       1 1QT        -0.0570
     13 C30        66.0010   -7.2340   22.4720 C.ar      1 1QT        -0.0617
     14 C25        65.0170   -7.9190   23.1550 C.ar      1 1QT         0.0273
     15 C23        63.5780   -7.8340   22.6410 C.3       1 1QT         0.0112
     16 N2         63.5370   -8.1160   21.1560 N.4       1 1QT         0.2416
     17 C22        63.7280   -9.5410   20.7250 C.3       1 1QT        -0.0032
     18 C21        64.2380   -9.4640   19.2620 C.3       1 1QT         0.1193
     19 O2         65.1530   -8.3720   19.1870 O.3       1 1QT        -0.3840
     20 C5         64.9920  -10.7200   18.7280 C.3       1 1QT         0.0821
     21 C20        65.4010  -10.5140   17.2690 C.3       1 1QT         0.0050
     22 C18        65.8430  -11.8010   16.6350 C.ar      1 1QT        -0.0475
     23 C19        64.9420  -12.5670   15.9160 C.ar      1 1QT        -0.0591
     24 C17        67.1610  -12.2150   16.8210 C.ar      1 1QT        -0.0672
     25 C16        67.5730  -13.4170   16.2610 C.ar      1 1QT        -0.0752
     26 C15        66.6780  -14.1960   15.5160 C.ar      1 1QT        -0.0673
     27 C14        65.3530  -13.7700   15.3350 C.ar      1 1QT        -0.0498
     28 C13        64.3790  -14.6460   14.5240 C.3       1 1QT        -0.0207
     29 C12        63.3610  -15.3160   15.4520 C.3       1 1QT        -0.0434
     30 C11        64.0070  -16.4530   16.2520 C.3       1 1QT        -0.0513
     31 C10        63.0850  -16.9390   17.3900 C.3       1 1QT        -0.0528
     32 C9         62.8080  -15.7510   18.3330 C.3       1 1QT        -0.0510
     33 C8         64.0750  -15.1210   18.9590 C.3       1 1QT        -0.0361
     34 C7         63.6310  -14.0750   20.0040 C.3       1 1QT         0.0372
     35 C6         64.4660  -12.8090   19.9280 C.2       1 1QT         0.1764
     36 O1         65.3230  -12.6090   20.7760 O.2       1 1QT        -0.3971
     37 N1         64.2280  -11.9780   18.9030 N.am      1 1QT        -0.2792
     38 H1         63.5765   -7.3357   26.5523 H         1 1QT         0.0297
     39 H2         62.5490   -6.6793   25.2332 H         1 1QT         0.0297
     40 H3         60.6037   -7.9917   25.9771 H         1 1QT         0.0267
     41 H4         61.4979   -8.2381   27.5155 H         1 1QT         0.0267
     42 H5         61.3748  -10.2681   25.3401 H         1 1QT         0.0297
     43 H6         62.6170  -10.2790   26.6377 H         1 1QT         0.0297
     44 H7         61.5967   -8.3008   23.4709 H         1 1QT         0.0371
     45 H8         62.5757   -9.7471   23.0505 H         1 1QT         0.0371
     46 H9         66.9161   -9.2870   25.6281 H         1 1QT         0.0505
     47 H10        68.6733   -8.0156   24.4097 H         1 1QT         0.0472
     48 H11        68.1012   -6.6633   21.0384 H         1 1QT         0.0402
     49 H12        69.3223   -6.9573   22.3227 H         1 1QT         0.0402
     50 H13        68.9748   -4.5183   21.9552 H         1 1QT         0.0249
     51 H14        68.4475   -5.0123   23.5997 H         1 1QT         0.0249
     52 H15        67.2264   -4.7183   22.3155 H         1 1QT         0.0249
     53 H16        65.7513   -6.6502   21.5934 H         1 1QT         0.0469
     54 H17        63.2414   -6.7958   22.7781 H         1 1QT         0.0992
     55 H18        64.2635   -7.5678   20.7227 H         1 1QT         0.2029
     56 H19        62.6384   -7.8133   20.8141 H         1 1QT         0.2029
     57 H20        62.7750  -10.0883   20.7720 H         1 1QT         0.0840
     58 H21        64.4698  -10.0406   21.3653 H         1 1QT         0.0840
     59 H22        63.3737   -9.2774   18.6077 H         1 1QT         0.0672
     60 H23        65.4844   -8.2983   18.2997 H         1 1QT         0.2101
     61 H24        65.9142  -10.8203   19.3191 H         1 1QT         0.0606
     62 H25        66.2302   -9.7924   17.2286 H         1 1QT         0.0448
     63 H26        64.5414  -10.1166   16.7094 H         1 1QT         0.0448
     64 H27        63.9167  -12.2337   15.8033 H         1 1QT         0.0494
     65 H28        67.8532  -11.6083   17.3936 H         1 1QT         0.0499
     66 H29        68.5935  -13.7547   16.4011 H         1 1QT         0.0582
     67 H30        67.0098  -15.1304   15.0781 H         1 1QT         0.0499
     68 H31        64.9480  -15.4217   13.9906 H         1 1QT         0.0425
     69 H32        63.8460  -14.0165   13.7962 H         1 1QT         0.0425
     70 H33        62.5383  -15.7249   14.8471 H         1 1QT         0.0287
     71 H34        62.9640  -14.5654   16.1513 H         1 1QT         0.0287
     72 H35        64.9513  -16.0928   16.6863 H         1 1QT         0.0267
     73 H36        64.2125  -17.2948   15.5745 H         1 1QT         0.0267
     74 H37        63.5783  -17.7487   17.9477 H         1 1QT         0.0265
     75 H38        62.1380  -17.3077   16.9690 H         1 1QT         0.0265
     76 H39        62.1604  -16.1037   19.1492 H         1 1QT         0.0267
     77 H40        62.2841  -14.9720   17.7598 H         1 1QT         0.0267
     78 H41        64.6736  -14.6331   18.1757 H         1 1QT         0.0290
     79 H42        64.6764  -15.9021   19.4470 H         1 1QT         0.0290
     80 H43        63.7352  -14.5099   21.0090 H         1 1QT         0.0502
     81 H44        62.5770  -13.8172   19.8235 H         1 1QT         0.0502
     82 H45        63.5172  -12.2129   18.2400 H         1 1QT         0.1857
@<TRIPOS>BOND
     1    1    2 1  
     2    1    4 1  
     3    2    3 1  
     4    3    4 1  
     5    4    5 1  
     6    4    6 1  
     7    5   15 1  
     8    6    7 1  
     9    7    8 ar 
    10    7   14 ar 
    11    8    9 ar 
    12    9   10 ar 
    13   10   11 1  
    14   10   13 ar 
    15   11   12 1  
    16   13   14 ar 
    17   14   15 1  
    18   15   16 1  
    19   16   17 1  
    20   17   18 1  
    21   18   19 1  
    22   18   20 1  
    23   20   21 1  
    24   20   37 1  
    25   21   22 1  
    26   22   23 ar 
    27   22   24 ar 
    28   23   27 ar 
    29   24   25 ar 
    30   25   26 ar 
    31   26   27 ar 
    32   27   28 1  
    33   28   29 1  
    34   29   30 1  
    35   30   31 1  
    36   31   32 1  
    37   32   33 1  
    38   33   34 1  
    39   34   35 1  
    40   35   36 2  
    41   35   37 am 
    42    1   38 1  
    43    1   39 1  
    44    2   40 1  
    45    2   41 1  
    46    3   42 1  
    47    3   43 1  
    48    5   44 1  
    49    5   45 1  
    50    8   46 1  
    51    9   47 1  
    52   11   48 1  
    53   11   49 1  
    54   12   50 1  
    55   12   51 1  
    56   12   52 1  
    57   13   53 1  
    58   15   54 1  
    59   16   55 1  
    60   16   56 1  
    61   17   57 1  
    62   17   58 1  
    63   18   59 1  
    64   19   60 1  
    65   20   61 1  
    66   21   62 1  
    67   21   63 1  
    68   23   64 1  
    69   24   65 1  
    70   25   66 1  
    71   26   67 1  
    72   28   68 1  
    73   28   69 1  
    74   29   70 1  
    75   29   71 1  
    76   30   72 1  
    77   30   73 1  
    78   31   74 1  
    79   31   75 1  
    80   32   76 1  
    81   32   77 1  
    82   33   78 1  
    83   33   79 1  
    84   34   80 1  
    85   34   81 1  
    86   37   82 1  
@<TRIPOS>SUBSTRUCTURE
     1 1QT         1

