### 
### Created by X-TOOL on Sun Sep  9 21:52:40 2018
### 

@<TRIPOS>MOLECULE
4k9g_ligand
   29    30     1     0     0
SMALL
GAST_HUCK


@<TRIPOS>ATOM
      1 O1         34.5310  -30.5580   31.3510 O.3       1 NON        -0.3316
      2 C1         34.1960  -29.7720   30.2950 C.ar      1 NON         0.1230
      3 C2         33.2380  -28.7810   30.4540 C.ar      1 NON         0.1609
      4 F2         32.7030  -28.5270   31.6640 F         1 NON        -0.1897
      5 C3         32.8570  -28.0140   29.3630 C.ar      1 NON        -0.0271
      6 C4         33.4430  -28.2370   28.1230 C.ar      1 NON        -0.0165
      7 C5         34.4070  -29.2240   27.9580 C.ar      1 NON        -0.0645
      8 C6         34.7820  -29.9930   29.0550 C.ar      1 NON        -0.0328
      9 C7         33.0550  -27.3900   27.0930 C.2       1 NON         0.0494
     10 N8         31.8610  -26.7980   27.0250 N.2       1 NON        -0.1772
     11 O9         31.7720  -25.9480   25.9000 O.3       1 NON        -0.2470
     12 C10        33.1200  -25.7340   25.4720 C.3       1 NON         0.1238
     13 C11        33.8270  -27.0420   25.8200 C.3       1 NON         0.0277
     14 C12        33.1930  -25.4340   23.9740 C.3       1 NON         0.0553
     15 C13        32.4350  -24.1400   23.6750 C.2       1 NON         0.1051
     16 O13        31.3320  -23.9400   24.1850 O.2       1 NON        -0.3918
     17 C14        33.0630  -23.0940   22.7520 C.3       1 NON         0.0095
     18 H1         34.8707  -30.0155   32.0530 H         1 NON         0.2479
     19 H2         32.1040  -27.2426   29.4774 H         1 NON         0.0580
     20 H3         34.8606  -29.3925   26.9880 H         1 NON         0.0566
     21 H4         35.5331  -30.7664   28.9419 H         1 NON         0.0537
     22 H5         33.5698  -24.8963   26.0251 H         1 NON         0.0722
     23 H6         33.6979  -27.8033   25.0366 H         1 NON         0.0462
     24 H7         34.8995  -26.8937   26.0140 H         1 NON         0.0462
     25 H8         32.7388  -26.2631   23.4116 H         1 NON         0.0526
     26 H9         34.2451  -25.3202   23.6738 H         1 NON         0.0526
     27 H10        32.3813  -22.2365   22.6523 H         1 NON         0.0458
     28 H11        33.2405  -23.5383   21.7615 H         1 NON         0.0458
     29 H12        34.0186  -22.7551   23.1785 H         1 NON         0.0458
@<TRIPOS>BOND
     1    1    2 1  
     2    2    3 ar 
     3    2    8 ar 
     4    3    4 1  
     5    3    5 ar 
     6    5    6 ar 
     7    6    7 ar 
     8    6    9 1  
     9    7    8 ar 
    10    9   10 2  
    11    9   13 1  
    12   10   11 1  
    13   11   12 1  
    14   12   13 1  
    15   12   14 1  
    16   14   15 1  
    17   15   16 2  
    18   15   17 1  
    19    1   18 1  
    20    5   19 1  
    21    7   20 1  
    22    8   21 1  
    23   12   22 1  
    24   13   23 1  
    25   13   24 1  
    26   14   25 1  
    27   14   26 1  
    28   17   27 1  
    29   17   28 1  
    30   17   29 1  
@<TRIPOS>SUBSTRUCTURE
     1 NON         1

