### 
### Created by X-TOOL on Mon Sep 10 21:13:14 2018
### 

@<TRIPOS>MOLECULE
4k9h_ligand
   82    86     1     0     0
SMALL
GAST_HUCK


@<TRIPOS>ATOM
      1 O1         60.6160  -15.8510   20.5330 O.2       1 1QU        -0.3853
      2 C1         61.4090  -16.4100   21.3220 C.2       1 1QU         0.2047
      3 C2         60.9310  -17.2990   22.4310 C.3       1 1QU         0.0455
      4 C3         62.2270  -17.6360   23.2290 C.3       1 1QU        -0.0100
      5 C4         63.3930  -17.1810   22.3610 C.3       1 1QU         0.0562
      6 N1         62.7750  -16.3600   21.3070 N.am      1 1QU        -0.2211
      7 C33        63.4630  -15.6940   20.4070 C.2       1 1QU         0.1317
      8 C13        64.2330  -14.5470   20.7080 C.2       1 1QU        -0.0453
      9 C5         63.3440  -16.1380   19.0970 C.2       1 1QU         0.2440
     10 O4         62.6530  -17.0980   18.7880 O.2       1 1QU        -0.4072
     11 N2         63.9750  -15.4870   18.1080 N.am      1 1QU        -0.2069
     12 C6         63.8120  -16.0310   16.7620 C.3       1 1QU         0.0782
     13 C7         65.2040  -16.3140   16.1130 C.3       1 1QU        -0.0206
     14 C8         65.1910  -15.5550   14.8160 C.3       1 1QU        -0.0500
     15 C9         64.1970  -14.4310   15.0620 C.3       1 1QU        -0.0500
     16 C10        63.0630  -15.0630   15.8380 C.3       1 1QU        -0.0206
     17 C11        64.7190  -14.3650   18.3690 C.2       1 1QU         0.0671
     18 C12        64.8970  -13.8990   19.6620 C.2       1 1QU         0.0417
     19 C26        65.7420  -12.6150   19.8810 C.2       1 1QU         0.1771
     20 O2         66.2810  -12.4370   20.9630 O.2       1 1QU        -0.4039
     21 N3         65.5620  -11.6330   18.9870 N.am      1 1QU        -0.2845
     22 C27        66.3500  -10.3900   19.0030 C.3       1 1QU         0.0809
     23 C31        66.9600  -10.1810   17.5900 C.3       1 1QU         0.0064
     24 C20        67.5310  -11.5040   17.0100 C.ar      1 1QU        -0.0408
     25 C21        68.3160  -12.3670   17.7790 C.ar      1 1QU        -0.0603
     26 C22        68.7930  -13.5630   17.2400 C.ar      1 1QU        -0.0686
     27 C23        68.5380  -13.8840   15.9180 C.ar      1 1QU        -0.0687
     28 C24        67.7800  -13.0170   15.1530 C.ar      1 1QU        -0.0686
     29 C25        67.2660  -11.8590   15.7050 C.ar      1 1QU        -0.0603
     30 C28        65.6680   -9.1330   19.4560 C.3       1 1QU         0.1191
     31 O3         66.5710   -8.0390   19.2730 O.3       1 1QU        -0.3841
     32 C29        65.2960   -9.1750   20.9410 C.3       1 1QU        -0.0033
     33 N4         64.9230   -7.8290   21.3490 N.4       1 1QU         0.2413
     34 C30        64.8810   -7.7080   22.8450 C.3       1 1QU         0.0066
     35 C14        66.3560   -7.5570   23.3620 C.ar      1 1QU         0.0303
     36 C15        67.2620   -6.6420   22.7790 C.ar      1 1QU        -0.0257
     37 C19        66.7710   -8.3570   24.4120 C.ar      1 1QU        -0.0265
     38 C18        68.0960   -8.2220   24.8520 C.ar      1 1QU        -0.0376
     39 C17        68.9720   -7.3200   24.2710 C.ar      1 1QU        -0.0377
     40 C16        68.5650   -6.4900   23.2400 C.ar      1 1QU         0.0411
     41 C32        69.5670   -5.4560   22.5740 C.3       1 1QU         0.3750
     42 F2         70.7020   -5.2660   23.2260 F         1 1QU        -0.2204
     43 F3         69.0640   -4.2370   22.3880 F         1 1QU        -0.2204
     44 F1         69.8560   -5.9640   21.4010 F         1 1QU        -0.2204
     45 H1         60.4708  -18.2134   22.0284 H         1 1QU         0.0508
     46 H2         60.2050  -16.7731   23.0684 H         1 1QU         0.0508
     47 H3         62.2897  -18.7184   23.4144 H         1 1QU         0.0314
     48 H4         62.2341  -17.0986   24.1888 H         1 1QU         0.0314
     49 H5         63.9125  -18.0466   21.9241 H         1 1QU         0.0589
     50 H6         64.1055  -16.5846   22.9497 H         1 1QU         0.0589
     51 H7         64.3071  -14.1773   21.7296 H         1 1QU         0.0383
     52 H8         63.2450  -16.9709   16.8328 H         1 1QU         0.0673
     53 H9         65.3330  -17.3908   15.9293 H         1 1QU         0.0296
     54 H10        66.0143  -15.9533   16.7637 H         1 1QU         0.0296
     55 H11        64.8574  -16.1987   13.9888 H         1 1QU         0.0266
     56 H12        66.1889  -15.1523   14.5878 H         1 1QU         0.0266
     57 H13        63.8311  -14.0246   14.1076 H         1 1QU         0.0266
     58 H14        64.6634  -13.6258   15.6487 H         1 1QU         0.0266
     59 H15        62.5049  -14.3107   16.4147 H         1 1QU         0.0296
     60 H16        62.3726  -15.6001   15.1711 H         1 1QU         0.0296
     61 H17        65.1804  -13.8280   17.5415 H         1 1QU         0.1124
     62 H18        64.8640  -11.7495   18.2804 H         1 1QU         0.1837
     63 H19        67.1777  -10.5574   19.7079 H         1 1QU         0.0604
     64 H20        67.7717   -9.4418   17.6578 H         1 1QU         0.0449
     65 H21        66.1767   -9.8048   16.9155 H         1 1QU         0.0449
     66 H22        68.5567  -12.1055   18.8031 H         1 1QU         0.0557
     67 H23        69.3658  -14.2435   17.8596 H         1 1QU         0.0599
     68 H24        68.9265  -14.8007   15.4892 H         1 1QU         0.0559
     69 H25        67.5872  -13.2475   14.1115 H         1 1QU         0.0599
     70 H26        66.6401  -11.2152   15.0977 H         1 1QU         0.0557
     71 H27        64.7588   -8.9790   18.8563 H         1 1QU         0.0672
     72 H28        66.8023   -7.9711   18.3540 H         1 1QU         0.2101
     73 H29        66.1575   -9.5190   21.5321 H         1 1QU         0.0840
     74 H30        64.4490   -9.8598   21.0945 H         1 1QU         0.0840
     75 H31        64.0119   -7.6127   20.9758 H         1 1QU         0.2029
     76 H32        65.5989   -7.1758   20.9851 H         1 1QU         0.2029
     77 H33        64.4237   -8.6091   23.2796 H         1 1QU         0.0985
     78 H34        64.2928   -6.8237   23.1315 H         1 1QU         0.0985
     79 H35        66.9293   -6.0375   21.9430 H         1 1QU         0.0782
     80 H36        66.0949   -9.0642   24.8788 H         1 1QU         0.0805
     81 H37        68.4445   -8.8415   25.6704 H         1 1QU         0.0683
     82 H38        69.9934   -7.2629   24.6294 H         1 1QU         0.0802
@<TRIPOS>BOND
     1    1    2 2  
     2    2    3 1  
     3    2    6 am 
     4    3    4 1  
     5    4    5 1  
     6    5    6 1  
     7    6    7 1  
     8    7    8 2  
     9    7    9 1  
    10    8   18 1  
    11    9   10 2  
    12    9   11 am 
    13   11   12 1  
    14   11   17 1  
    15   12   13 1  
    16   12   16 1  
    17   13   14 1  
    18   14   15 1  
    19   15   16 1  
    20   17   18 2  
    21   18   19 1  
    22   19   20 2  
    23   19   21 am 
    24   21   22 1  
    25   22   23 1  
    26   22   30 1  
    27   23   24 1  
    28   24   25 ar 
    29   24   29 ar 
    30   25   26 ar 
    31   26   27 ar 
    32   27   28 ar 
    33   28   29 ar 
    34   30   31 1  
    35   30   32 1  
    36   32   33 1  
    37   33   34 1  
    38   34   35 1  
    39   35   36 ar 
    40   35   37 ar 
    41   36   40 ar 
    42   37   38 ar 
    43   38   39 ar 
    44   39   40 ar 
    45   40   41 1  
    46   41   42 1  
    47   41   43 1  
    48   41   44 1  
    49    3   45 1  
    50    3   46 1  
    51    4   47 1  
    52    4   48 1  
    53    5   49 1  
    54    5   50 1  
    55    8   51 1  
    56   12   52 1  
    57   13   53 1  
    58   13   54 1  
    59   14   55 1  
    60   14   56 1  
    61   15   57 1  
    62   15   58 1  
    63   16   59 1  
    64   16   60 1  
    65   17   61 1  
    66   21   62 1  
    67   22   63 1  
    68   23   64 1  
    69   23   65 1  
    70   25   66 1  
    71   26   67 1  
    72   27   68 1  
    73   28   69 1  
    74   29   70 1  
    75   30   71 1  
    76   31   72 1  
    77   32   73 1  
    78   32   74 1  
    79   33   75 1  
    80   33   76 1  
    81   34   77 1  
    82   34   78 1  
    83   36   79 1  
    84   37   80 1  
    85   38   81 1  
    86   39   82 1  
@<TRIPOS>SUBSTRUCTURE
     1 1QU         1

