### 
### Created by X-TOOL on Mon Sep 10 21:13:12 2018
### 

@<TRIPOS>MOLECULE
4k9y_ligand
   63    67     1     0     0
SMALL
GAST_HUCK


@<TRIPOS>ATOM
      1 C1        -28.9920  -30.8790    9.2530 C.ar      1 K9Y         0.0535
      2 N2        -28.3570  -30.7960    8.0980 N.ar      1 K9Y        -0.2695
      3 C3        -27.9110  -31.8900    7.4740 C.ar      1 K9Y         0.1721
      4 C4        -28.1370  -33.1700    8.0430 C.ar      1 K9Y         0.1067
      5 C5        -28.8230  -33.2120    9.2750 C.ar      1 K9Y         0.1299
      6 N6        -29.2010  -32.0540    9.8360 N.ar      1 K9Y        -0.2699
      7 N7        -27.5860  -34.0950    7.2120 N.2       1 K9Y        -0.2942
      8 N8        -27.2560  -32.1210    6.2950 N.pl3     1 K9Y        -0.1862
      9 C9        -27.0430  -33.4820    6.1950 C.2       1 K9Y         0.1221
     10 C10       -26.5330  -29.0100    4.3790 C.ar      1 K9Y        -0.0452
     11 C11       -25.1470  -29.1540    4.2340 C.ar      1 K9Y         0.0606
     12 C12       -24.5140  -30.3230    4.6740 C.ar      1 K9Y        -0.0452
     13 C13       -25.2630  -31.2740    5.3480 C.ar      1 K9Y        -0.0406
     14 C14       -26.6440  -31.1320    5.5100 C.ar      1 K9Y         0.0858
     15 C15       -27.2830  -29.9840    5.0410 C.ar      1 K9Y        -0.0406
     16 N16       -20.7620  -25.7080    1.9370 N.pl3     1 K9Y        -0.1067
     17 C17       -21.2830  -26.8890    2.3700 C.2       1 K9Y         0.2187
     18 C18       -20.2910  -27.8290    2.3370 C.2       1 K9Y        -0.0194
     19 C19       -19.1070  -27.1840    1.9880 C.2       1 K9Y        -0.0041
     20 N20       -19.4050  -25.9340    1.7240 N.2       1 K9Y        -0.1672
     21 C21       -17.7520  -27.8270    1.7930 C.3       1 K9Y        -0.0463
     22 C22       -21.4300  -24.4800    1.7160 C.ar      1 K9Y         0.1228
     23 C23       -21.0720  -23.7580    0.5780 C.ar      1 K9Y        -0.0265
     24 C24       -21.6740  -22.5400    0.3010 C.ar      1 K9Y        -0.0608
     25 C25       -22.6870  -22.0680    1.1410 C.ar      1 K9Y        -0.0493
     26 C26       -23.0820  -22.7990    2.2710 C.ar      1 K9Y        -0.0608
     27 C27       -22.4250  -23.9920    2.5800 C.ar      1 K9Y        -0.0265
     28 C28       -23.3740  -20.7630    0.7860 C.3       1 K9Y        -0.0327
     29 N29       -22.6320  -27.1280    2.6150 N.am      1 K9Y        -0.1798
     30 C30       -23.0950  -28.0790    3.4350 C.2       1 K9Y         0.3215
     31 O31       -22.3350  -28.8050    4.0720 O.2       1 K9Y        -0.3794
     32 N32       -24.4490  -28.2040    3.4900 N.am      1 K9Y        -0.2174
     33 C33       -17.8420  -28.8120    0.6280 C.3       1 K9Y        -0.0859
     34 C34       -16.7370  -26.7570    1.3860 C.3       1 K9Y        -0.0859
     35 C35       -17.2440  -28.5970    3.0140 C.3       1 K9Y        -0.0859
     36 N36       -28.9930  -34.4050    9.9540 N.pl3     1 K9Y        -0.3152
     37 H1        -29.3481  -29.9744    9.7325 H         1 K9Y         0.0994
     38 H2        -26.5018  -33.9718    5.3868 H         1 K9Y         0.1353
     39 H3        -27.0275  -28.1347    3.9736 H         1 K9Y         0.0487
     40 H4        -23.4574  -30.4810    4.4907 H         1 K9Y         0.0487
     41 H5        -24.7675  -32.1465    5.7583 H         1 K9Y         0.0543
     42 H6        -28.3485  -29.8498    5.1887 H         1 K9Y         0.0543
     43 H7        -20.4059  -28.8915    2.5461 H         1 K9Y         0.0221
     44 H8        -20.3183  -24.1515   -0.0944 H         1 K9Y         0.0595
     45 H9        -21.3619  -21.9589   -0.5592 H         1 K9Y         0.0550
     46 H10       -23.8900  -22.4412    2.8988 H         1 K9Y         0.0550
     47 H11       -22.6810  -24.5381    3.4807 H         1 K9Y         0.0595
     48 H12       -22.9226  -20.3476   -0.1271 H         1 K9Y         0.0385
     49 H13       -23.2527  -20.0479    1.6130 H         1 K9Y         0.0385
     50 H14       -24.4448  -20.9471    0.6146 H         1 K9Y         0.0385
     51 H15       -23.3005  -26.5501    2.1467 H         1 K9Y         0.2343
     52 H16       -24.9898  -27.5588    2.9502 H         1 K9Y         0.2242
     53 H17       -16.8625  -29.2882    0.4740 H         1 K9Y         0.0131
     54 H18       -18.1357  -28.2739   -0.2853 H         1 K9Y         0.0131
     55 H19       -18.5925  -29.5829    0.8568 H         1 K9Y         0.0131
     56 H20       -16.6362  -26.0201    2.1965 H         1 K9Y         0.0131
     57 H21       -17.0832  -26.2519    0.4722 H         1 K9Y         0.0131
     58 H22       -15.7619  -27.2296    1.1968 H         1 K9Y         0.0131
     59 H23       -17.9811  -29.3628    3.2973 H         1 K9Y         0.0131
     60 H24       -17.0986  -27.9001    3.8526 H         1 K9Y         0.0131
     61 H25       -16.2872  -29.0817    2.7699 H         1 K9Y         0.0131
     62 H26       -29.4963  -34.4190   10.8526 H         1 K9Y         0.1820
     63 H27       -28.6163  -35.2794    9.5611 H         1 K9Y         0.1820
@<TRIPOS>BOND
     1    2    1 ar 
     2    1    6 ar 
     3    3    2 ar 
     4    3    4 ar 
     5    8    3 1  
     6    4    5 ar 
     7    7    4 1  
     8    5    6 ar 
     9    5   36 1  
    10    9    7 2  
    11    8    9 1  
    12   14    8 1  
    13   11   10 ar 
    14   10   15 ar 
    15   11   12 ar 
    16   32   11 1  
    17   12   13 ar 
    18   13   14 ar 
    19   15   14 ar 
    20   17   16 1  
    21   16   20 1  
    22   16   22 1  
    23   17   18 2  
    24   29   17 1  
    25   18   19 1  
    26   19   20 2  
    27   19   21 1  
    28   21   33 1  
    29   21   34 1  
    30   21   35 1  
    31   22   23 ar 
    32   22   27 ar 
    33   23   24 ar 
    34   24   25 ar 
    35   26   25 ar 
    36   25   28 1  
    37   27   26 ar 
    38   30   29 am 
    39   30   31 2  
    40   30   32 am 
    41    1   37 1  
    42    9   38 1  
    43   10   39 1  
    44   12   40 1  
    45   13   41 1  
    46   15   42 1  
    47   18   43 1  
    48   23   44 1  
    49   24   45 1  
    50   26   46 1  
    51   27   47 1  
    52   28   48 1  
    53   28   49 1  
    54   28   50 1  
    55   29   51 1  
    56   32   52 1  
    57   33   53 1  
    58   33   54 1  
    59   33   55 1  
    60   34   56 1  
    61   34   57 1  
    62   34   58 1  
    63   35   59 1  
    64   35   60 1  
    65   35   61 1  
    66   36   62 1  
    67   36   63 1  
@<TRIPOS>SUBSTRUCTURE
     1 K9Y         1

