### 
### Created by X-TOOL on Mon Sep 10 21:13:13 2018
### 

@<TRIPOS>MOLECULE
4kab_ligand
   15    16     1     0     0
SMALL
GAST_HUCK


@<TRIPOS>ATOM
      1 C1         -8.3810   26.1070  -41.9180 C.2       1 4KA         0.1089
      2 C2         -9.5010   26.3510  -42.7170 C.2       1 4KA         0.1005
      3 N3         -9.7540   27.3440  -40.7280 N.2       1 4KA        -0.2310
      4 N4        -10.3630   27.1210  -41.9800 N.pl3     1 4KA        -0.2379
      5 C5         -8.5980   26.7430  -40.6970 C.2       1 4KA         0.0445
      6 N6         -8.1110   25.1250  -43.8880 N.2       1 4KA        -0.2197
      7 N7         -7.5090   25.3440  -42.6420 N.pl3     1 4KA        -0.2279
      8 C8         -9.2790   25.7090  -43.9380 C.2       1 4KA         0.0332
      9 C9         -7.6450   26.6950  -39.5440 C.3       1 4KA        -0.0247
     10 H1        -11.2829   27.4710  -42.2838 H         1 4KA         0.2346
     11 H2         -6.5896   24.9978  -42.3325 H         1 4KA         0.2406
     12 H3         -9.9622   25.6973  -44.7860 H         1 4KA         0.0672
     13 H4         -8.0543   27.2776  -38.7055 H         1 4KA         0.0372
     14 H5         -6.6782   27.1216  -39.8494 H         1 4KA         0.0372
     15 H6         -7.5021   25.6506  -39.2296 H         1 4KA         0.0372
@<TRIPOS>BOND
     1    1    2 2  
     2    1    5 1  
     3    1    7 1  
     4    2    4 1  
     5    2    8 1  
     6    4    3 1  
     7    3    5 2  
     8    5    9 1  
     9    7    6 1  
    10    6    8 2  
    11    4   10 1  
    12    7   11 1  
    13    8   12 1  
    14    9   13 1  
    15    9   14 1  
    16    9   15 1  
@<TRIPOS>SUBSTRUCTURE
     1 4KA         1

