### 
### Created by X-TOOL on Mon Sep 10 21:13:13 2018
### 

@<TRIPOS>MOLECULE
4kao_ligand
   59    62     1     0     0
SMALL
GAST_HUCK


@<TRIPOS>ATOM
      1 N1          4.6260  -13.0950   15.8830 N.pl3     1 KAO        -0.1067
      2 C2          3.8280  -11.9720   15.7770 C.2       1 KAO         0.2188
      3 C3          3.1130  -12.1710   14.6260 C.2       1 KAO        -0.0194
      4 C4          3.5140  -13.4050   14.0940 C.2       1 KAO        -0.0041
      5 N5          4.4360  -13.9820   14.8460 N.2       1 KAO        -0.1672
      6 N6          3.8110  -10.9310   16.6820 N.am      1 KAO        -0.1792
      7 C7          2.7710  -10.0310   16.7830 C.2       1 KAO         0.3248
      8 C8          3.0220  -14.0850   12.8290 C.3       1 KAO        -0.0463
      9 C9          1.4990  -14.0200   12.7700 C.3       1 KAO        -0.0859
     10 C10         3.6020  -13.3800   11.6070 C.3       1 KAO        -0.0859
     11 C11         3.4630  -15.5440   12.8240 C.3       1 KAO        -0.0859
     12 C12         5.5720  -13.4230   16.8960 C.ar      1 KAO         0.1228
     13 C13         6.8570  -13.8050   16.5560 C.ar      1 KAO        -0.0265
     14 C14         7.7580  -14.1570   17.5400 C.ar      1 KAO        -0.0608
     15 C15         7.4070  -14.1350   18.8790 C.ar      1 KAO        -0.0493
     16 C16         6.1200  -13.7420   19.2060 C.ar      1 KAO        -0.0608
     17 C17         5.2090  -13.3890   18.2310 C.ar      1 KAO        -0.0265
     18 C18         8.3920  -14.5350   19.9470 C.3       1 KAO        -0.0327
     19 O19         1.6910  -10.2500   16.2520 O.2       1 KAO        -0.3780
     20 N20         3.0440   -8.9060   17.5100 N.am      1 KAO        -0.2114
     21 C21         2.1750   -7.8110   17.7120 C.ar      1 KAO         0.0707
     22 C22         1.9470   -7.3040   18.9810 C.ar      1 KAO        -0.0381
     23 C23         1.0630   -6.2590   19.1620 C.ar      1 KAO        -0.0647
     24 C24         0.3820   -5.6920   18.0910 C.ar      1 KAO        -0.0250
     25 C25         0.6350   -6.2040   16.8240 C.ar      1 KAO        -0.0647
     26 C26         1.5170   -7.2470   16.6330 C.ar      1 KAO        -0.0381
     27 C27        -0.6080   -4.6110   18.2970 C.ar      1 KAO        -0.0003
     28 C28        -1.1890   -4.3940   19.5390 C.ar      1 KAO        -0.0389
     29 C29        -2.1430   -3.4140   19.6940 C.ar      1 KAO        -0.0365
     30 C30        -2.4970   -2.6650   18.6010 C.ar      1 KAO         0.0084
     31 N31        -1.9590   -2.8350   17.3930 N.ar      1 KAO        -0.2993
     32 C32        -1.0340   -3.7910   17.2620 C.ar      1 KAO         0.0147
     33 H1          2.3707  -11.4961   14.2024 H         1 KAO         0.0221
     34 H2          4.5928  -10.8235   17.2962 H         1 KAO         0.2344
     35 H3          1.1462  -14.5135   11.8524 H         1 KAO         0.0131
     36 H4          1.1767  -12.9683   12.7678 H         1 KAO         0.0131
     37 H5          1.0759  -14.5314   13.6472 H         1 KAO         0.0131
     38 H6          4.7004  -13.4243   11.6452 H         1 KAO         0.0131
     39 H7          3.2774  -12.3290   11.6016 H         1 KAO         0.0131
     40 H8          3.2465  -13.8783   10.6931 H         1 KAO         0.0131
     41 H9          3.0465  -16.0559   13.7041 H         1 KAO         0.0131
     42 H10         4.5613  -15.5952   12.8557 H         1 KAO         0.0131
     43 H11         3.0993  -16.0339   11.9087 H         1 KAO         0.0131
     44 H12         7.1569  -13.8279   15.5146 H         1 KAO         0.0595
     45 H13         8.7611  -14.4569   17.2589 H         1 KAO         0.0550
     46 H14         5.8223  -13.7110   20.2479 H         1 KAO         0.0550
     47 H15         4.2072  -13.0845   18.5116 H         1 KAO         0.0595
     48 H16         9.3487  -14.8102   19.4789 H         1 KAO         0.0385
     49 H17         7.9967  -15.3955   20.5067 H         1 KAO         0.0385
     50 H18         8.5497  -13.6913   20.6349 H         1 KAO         0.0385
     51 H19         3.9453   -8.8532   17.9400 H         1 KAO         0.2283
     52 H20         2.4639   -7.7288   19.8339 H         1 KAO         0.0511
     53 H21         0.8964   -5.8723   20.1609 H         1 KAO         0.0597
     54 H22         0.1282   -5.7744   15.9675 H         1 KAO         0.0597
     55 H23         1.6956   -7.6266   15.6335 H         1 KAO         0.0511
     56 H24        -0.8907   -4.9976   20.3885 H         1 KAO         0.0719
     57 H25        -2.6045   -3.2380   20.6590 H         1 KAO         0.0702
     58 H26        -3.2516   -1.8967   18.7254 H         1 KAO         0.0800
     59 H27        -0.5881   -3.9349   16.2845 H         1 KAO         0.0809
@<TRIPOS>BOND
     1    1    2 1  
     2    1    5 1  
     3    1   12 1  
     4    2    3 2  
     5    2    6 1  
     6    3    4 1  
     7    4    5 2  
     8    4    8 1  
     9    6    7 am 
    10    7   19 2  
    11    7   20 am 
    12    8    9 1  
    13    8   10 1  
    14    8   11 1  
    15   12   13 ar 
    16   12   17 ar 
    17   13   14 ar 
    18   14   15 ar 
    19   15   16 ar 
    20   15   18 1  
    21   16   17 ar 
    22   20   21 1  
    23   21   22 ar 
    24   21   26 ar 
    25   22   23 ar 
    26   23   24 ar 
    27   24   25 ar 
    28   24   27 1  
    29   25   26 ar 
    30   27   28 ar 
    31   27   32 ar 
    32   28   29 ar 
    33   29   30 ar 
    34   30   31 ar 
    35   31   32 ar 
    36    3   33 1  
    37    6   34 1  
    38    9   35 1  
    39    9   36 1  
    40    9   37 1  
    41   10   38 1  
    42   10   39 1  
    43   10   40 1  
    44   11   41 1  
    45   11   42 1  
    46   11   43 1  
    47   13   44 1  
    48   14   45 1  
    49   16   46 1  
    50   17   47 1  
    51   18   48 1  
    52   18   49 1  
    53   18   50 1  
    54   20   51 1  
    55   22   52 1  
    56   23   53 1  
    57   25   54 1  
    58   26   55 1  
    59   28   56 1  
    60   29   57 1  
    61   30   58 1  
    62   32   59 1  
@<TRIPOS>SUBSTRUCTURE
     1 KAO         1

