### 
### Created by X-TOOL on Mon Sep 10 21:13:15 2018
### 

@<TRIPOS>MOLECULE
4kb8_ligand
   40    42     1     0     0
SMALL
GAST_HUCK


@<TRIPOS>ATOM
      1 N3         -7.6210   -0.2520    9.0160 N.2       1 1QN        -0.2053
      2 C4         -8.9000   -3.0210   10.9680 C.ar      1 1QN        -0.0559
      3 N2         -6.5570    0.5350    9.3340 N.pl3     1 1QN        -0.2025
      4 C7         -5.7540   -2.2410   11.5130 C.ar      1 1QN        -0.0228
      5 C6         -9.2460   -2.6330    8.6060 C.ar      1 1QN        -0.0559
      6 C9         -5.2290   -4.4900   12.1350 C.ar      1 1QN        -0.0049
      7 C13        -6.3170   -1.2800   10.6010 C.2       1 1QN         0.0171
      8 C8         -5.8240   -3.6040   11.2360 C.ar      1 1QN        -0.0432
      9 C16        -6.3760    1.8470    8.7020 C.3       1 1QN         0.0627
     10 C1        -10.3220   -3.5110    8.6070 C.ar      1 1QN        -0.0278
     11 C2        -10.6720   -4.1420    9.8040 C.ar      1 1QN         0.1325
     12 C3         -9.9590   -3.9150   10.9870 C.ar      1 1QN        -0.0278
     13 C5         -8.5460   -2.3750    9.7840 C.ar      1 1QN        -0.0154
     14 F1        -11.7050   -4.9740    9.8260 F         1 1QN        -0.1832
     15 N1         -4.5640   -4.1050   13.2480 N.ar      1 1QN        -0.3023
     16 C10        -4.4890   -2.7710   13.4830 C.ar      1 1QN         0.0639
     17 C11        -5.0930   -1.8110   12.6640 C.ar      1 1QN        -0.0302
     18 C12        -7.4960   -1.3710    9.7970 C.2       1 1QN         0.0497
     19 C14        -5.7370   -0.0460   10.2940 C.2       1 1QN         0.0701
     20 C15        -3.7130   -2.3530   14.7130 C.3       1 1QN         0.0134
     21 N4         -2.3110   -2.0980   14.3270 N.4       1 1QN         0.2388
     22 C17        -2.1040   -0.8220   13.6300 C.3       1 1QN        -0.0433
     23 H1         -8.3445   -2.8231   11.8776 H         1 1QN         0.0609
     24 H2         -8.9487   -2.1456    7.6845 H         1 1QN         0.0609
     25 H3         -5.3044   -5.5515   11.9287 H         1 1QN         0.0779
     26 H4         -6.3267   -3.9666   10.3467 H         1 1QN         0.0605
     27 H5         -5.4629    2.3195    9.0931 H         1 1QN         0.0611
     28 H6         -7.2437    2.4848    8.9261 H         1 1QN         0.0611
     29 H7         -6.2857    1.7202    7.6131 H         1 1QN         0.0611
     30 H8        -10.8794   -3.7031    7.6974 H         1 1QN         0.0605
     31 H9        -10.2303   -4.4293   11.9018 H         1 1QN         0.0605
     32 H10        -5.0485   -0.7580   12.9176 H         1 1QN         0.0596
     33 H11        -4.8275    0.3747   10.7203 H         1 1QN         0.1081
     34 H12        -3.7495   -3.1561   15.4638 H         1 1QN         0.1006
     35 H13        -4.1529   -1.4370   15.1341 H         1 1QN         0.1006
     36 H14        -2.0094   -2.8433   13.7191 H         1 1QN         0.2027
     37 H15        -1.7476   -2.0972   15.1628 H         1 1QN         0.2027
     38 H16        -1.0389   -0.7099   13.3790 H         1 1QN         0.0777
     39 H17        -2.4161    0.0070   14.2822 H         1 1QN         0.0777
     40 H18        -2.7018   -0.8073   12.7067 H         1 1QN         0.0777
@<TRIPOS>BOND
     1    1    3 1  
     2   18    1 2  
     3    2   12 ar 
     4   13    2 ar 
     5    3    9 1  
     6   19    3 1  
     7    7    4 1  
     8    4    8 ar 
     9    4   17 ar 
    10    5   10 ar 
    11   13    5 ar 
    12    8    6 ar 
    13    6   15 ar 
    14   18    7 1  
    15    7   19 2  
    16   10   11 ar 
    17   12   11 ar 
    18   11   14 1  
    19   13   18 1  
    20   15   16 ar 
    21   16   17 ar 
    22   16   20 1  
    23   20   21 1  
    24   21   22 1  
    25    2   23 1  
    26    5   24 1  
    27    6   25 1  
    28    8   26 1  
    29    9   27 1  
    30    9   28 1  
    31    9   29 1  
    32   10   30 1  
    33   12   31 1  
    34   17   32 1  
    35   19   33 1  
    36   20   34 1  
    37   20   35 1  
    38   21   36 1  
    39   21   37 1  
    40   22   38 1  
    41   22   39 1  
    42   22   40 1  
@<TRIPOS>SUBSTRUCTURE
     1 1QN         1

