### 
### Created by X-TOOL on Mon Sep 10 21:13:12 2018
### 

@<TRIPOS>MOLECULE
4kb9_ligand
   87    91     1     0     0
SMALL
GAST_HUCK


@<TRIPOS>ATOM
      1 C2          8.1700   15.4470   14.8940 C.ar      1 G79         0.0908
      2 C3          9.5360   15.4690   14.6330 C.ar      1 G79        -0.0313
      3 C4         10.2680   16.6460   14.8270 C.ar      1 G79        -0.0440
      4 C5          9.6820   17.7440   15.4430 C.ar      1 G79         0.0971
      5 C6          8.3290   17.7360   15.6910 C.ar      1 G79        -0.0440
      6 C7          7.5640   16.5960   15.4090 C.ar      1 G79        -0.0313
      7 S8         10.6980   19.1080   15.9430 S.o2      1 G79         0.0657
      8 O9         11.7430   19.1870   14.9110 O.2       1 G79        -0.1515
      9 O10         9.7850   20.2740   16.1280 O.2       1 G79        -0.1515
     10 N11        11.3990   18.8580   17.4080 N.am      1 G79        -0.2325
     11 C12        10.4730   18.5830   18.4880 C.3       1 G79         0.0319
     12 C13        10.7130   19.3510   19.7790 C.3       1 G79        -0.0296
     13 C14        10.7100   20.8650   19.6040 C.3       1 G79        -0.0612
     14 C15         9.6870   18.9810   20.8520 C.3       1 G79        -0.0612
     15 C16        12.6810   18.1710   17.4910 C.3       1 G79         0.0578
     16 C17        13.8080   19.0930   17.9840 C.3       1 G79         0.0967
     17 O18        14.9630   18.3070   18.3140 O.3       1 G79        -0.3877
     18 C19        14.1560   20.1960   16.9780 C.3       1 G79         0.0807
     19 N20        15.0460   21.1590   17.6250 N.am      1 G79        -0.2550
     20 C21        14.7000   22.4390   17.7010 C.2       1 G79         0.3202
     21 O22        13.6290   22.9770   17.4240 O.2       1 G79        -0.3775
     22 O23        15.7760   23.2150   18.1410 O.3       1 G79        -0.2602
     23 C24        15.5280   24.6100   18.1570 C.3       1 G79         0.0937
     24 C25        16.4500   24.9100   20.4440 C.3       1 G79        -0.0480
     25 C26        17.6000   25.7420   19.9200 C.3       1 G79        -0.0260
     26 C27        17.8790   25.3880   18.4980 C.3       1 G79         0.0676
     27 O28        18.5290   24.1500   18.3350 O.3       1 G79        -0.3474
     28 C29        18.3120   23.6260   17.0380 C.3       1 G79         0.1627
     29 C30        17.3080   24.5490   16.3690 C.3       1 G79         0.0201
     30 C31        16.7160   25.3420   17.5420 C.3       1 G79         0.0234
     31 C32        14.8800   19.6670   15.7400 C.3       1 G79         0.0064
     32 C33        16.5640   21.1690   14.5490 C.ar      1 G79        -0.0603
     33 C34        16.8540   22.2290   13.6910 C.ar      1 G79        -0.0686
     34 C35        15.8310   22.8820   13.0130 C.ar      1 G79        -0.0687
     35 C36        14.5270   22.5170   13.2680 C.ar      1 G79        -0.0686
     36 C37        14.2200   21.4840   14.1270 C.ar      1 G79        -0.0603
     37 C38        15.2320   20.8070   14.7830 C.ar      1 G79        -0.0408
     38 O39         7.5250   14.2600   14.7110 O.3       1 G79        -0.3212
     39 C40         6.1360   14.3490   14.9200 C.3       1 G79         0.0594
     40 O41        19.5170   23.6540   16.2540 O.3       1 G79        -0.3510
     41 C42        19.5950   24.9820   15.7440 C.3       1 G79         0.0511
     42 C43        18.1710   25.4240   15.5000 C.3       1 G79        -0.0215
     43 C44        15.2330   25.0720   19.5580 C.3       1 G79        -0.0218
     44 H1         10.0341   14.5737   14.2790 H         1 G79         0.0542
     45 H2         11.2983   16.7008   14.4945 H         1 G79         0.0608
     46 H3          7.8519   18.6161   16.1068 H         1 G79         0.0608
     47 H4          6.4955   16.6057   15.5915 H         1 G79         0.0542
     48 H5         10.5328   17.5091   18.7184 H         1 G79         0.0480
     49 H6          9.4603   18.8263   18.1342 H         1 G79         0.0480
     50 H7         11.7087   19.0610   20.1456 H         1 G79         0.0311
     51 H8         10.8890   21.3468   20.5765 H         1 G79         0.0233
     52 H9          9.7349   21.1866   19.2095 H         1 G79         0.0233
     53 H10        11.5040   21.1543   18.8998 H         1 G79         0.0233
     54 H11         9.6777   17.8897   20.9896 H         1 G79         0.0233
     55 H12         8.6888   19.3193   20.5371 H         1 G79         0.0233
     56 H13         9.9568   19.4679   21.8008 H         1 G79         0.0233
     57 H14        12.9449   17.7933   16.4922 H         1 G79         0.0504
     58 H15        12.5848   17.3262   18.1889 H         1 G79         0.0504
     59 H16        13.4584   19.5858   18.9032 H         1 G79         0.0634
     60 H17        15.2547   17.8355   17.5426 H         1 G79         0.2100
     61 H18        13.2274   20.6957   16.6649 H         1 G79         0.0604
     62 H19        15.9165   20.8534   18.0108 H         1 G79         0.1873
     63 H20        14.6417   24.8152   17.5386 H         1 G79         0.0651
     64 H21        16.2014   25.2375   21.4643 H         1 G79         0.0267
     65 H22        16.7473   23.8511   20.4610 H         1 G79         0.0267
     66 H23        18.4967   25.5472   20.5266 H         1 G79         0.0290
     67 H24        17.3377   26.8083   19.9852 H         1 G79         0.0290
     68 H25        18.5592   26.1725   18.1349 H         1 G79         0.0601
     69 H26        17.9254   22.5981   17.1003 H         1 G79         0.0912
     70 H27        16.5345   24.0219   15.7912 H         1 G79         0.0355
     71 H28        16.4084   26.3516   17.2319 H         1 G79         0.0359
     72 H29        14.2276   18.9497   15.2206 H         1 G79         0.0449
     73 H30        15.8053   19.1612   16.0529 H         1 G79         0.0449
     74 H31        17.3677   20.6266   15.0336 H         1 G79         0.0557
     75 H32        17.8815   22.5453   13.5520 H         1 G79         0.0599
     76 H33        16.0551   23.6641   12.2967 H         1 G79         0.0559
     77 H34        13.7225   23.0559   12.7807 H         1 G79         0.0599
     78 H35        13.1858   21.2022   14.2884 H         1 G79         0.0557
     79 H36         5.6768   13.3627   14.7575 H         1 G79         0.0577
     80 H37         5.7048   15.0748   14.2148 H         1 G79         0.0577
     81 H38         5.9407   14.6789   15.9510 H         1 G79         0.0577
     82 H39        20.1652   24.9964   14.8034 H         1 G79         0.0561
     83 H40        20.0795   25.6441   16.4767 H         1 G79         0.0561
     84 H41        18.0462   26.4807   15.7787 H         1 G79         0.0292
     85 H42        17.9059   25.2903   14.4408 H         1 G79         0.0292
     86 H43        14.4058   24.4742   19.9684 H         1 G79         0.0294
     87 H44        14.9425   26.1327   19.5345 H         1 G79         0.0294
@<TRIPOS>BOND
     1    2    1 ar 
     2    6    1 ar 
     3    1   38 1  
     4    3    2 ar 
     5    4    3 ar 
     6    4    5 ar 
     7    7    4 1  
     8    5    6 ar 
     9    7    8 2  
    10    7    9 2  
    11   10    7 am 
    12   10   11 1  
    13   15   10 1  
    14   11   12 1  
    15   12   13 1  
    16   12   14 1  
    17   16   15 1  
    18   16   17 1  
    19   18   16 1  
    20   18   19 1  
    21   31   18 1  
    22   19   20 am 
    23   20   21 2  
    24   20   22 1  
    25   22   23 1  
    26   23   30 1  
    27   23   43 1  
    28   24   25 1  
    29   43   24 1  
    30   26   25 1  
    31   26   27 1  
    32   30   26 1  
    33   28   27 1  
    34   29   28 1  
    35   28   40 1  
    36   30   29 1  
    37   29   42 1  
    38   37   31 1  
    39   32   33 ar 
    40   32   37 ar 
    41   33   34 ar 
    42   34   35 ar 
    43   35   36 ar 
    44   36   37 ar 
    45   38   39 1  
    46   40   41 1  
    47   41   42 1  
    48    2   44 1  
    49    3   45 1  
    50    5   46 1  
    51    6   47 1  
    52   11   48 1  
    53   11   49 1  
    54   12   50 1  
    55   13   51 1  
    56   13   52 1  
    57   13   53 1  
    58   14   54 1  
    59   14   55 1  
    60   14   56 1  
    61   15   57 1  
    62   15   58 1  
    63   16   59 1  
    64   17   60 1  
    65   18   61 1  
    66   19   62 1  
    67   23   63 1  
    68   24   64 1  
    69   24   65 1  
    70   25   66 1  
    71   25   67 1  
    72   26   68 1  
    73   28   69 1  
    74   29   70 1  
    75   30   71 1  
    76   31   72 1  
    77   31   73 1  
    78   32   74 1  
    79   33   75 1  
    80   34   76 1  
    81   35   77 1  
    82   36   78 1  
    83   39   79 1  
    84   39   80 1  
    85   39   81 1  
    86   41   82 1  
    87   41   83 1  
    88   42   84 1  
    89   42   85 1  
    90   43   86 1  
    91   43   87 1  
@<TRIPOS>SUBSTRUCTURE
     1 G79         1

