### 
### Created by X-TOOL on Mon Sep 10 21:13:15 2018
### 

@<TRIPOS>MOLECULE
4kba_ligand
   42    45     1     0     0
SMALL
GAST_HUCK


@<TRIPOS>ATOM
      1 N3         -6.4420    0.5270    9.0030 N.pl3     1 1QM        -0.2052
      2 C4         -6.1520   -1.2490   10.3160 C.2       1 1QM         0.0129
      3 N2         -7.5490   -0.2390    8.7920 N.2       1 1QM        -0.2070
      4 C7         -9.0710   -2.7430    8.4930 C.ar      1 1QM        -0.0562
      5 C6         -8.4460   -2.3250    9.6670 C.ar      1 1QM        -0.0162
      6 C9        -10.5770   -4.0750    9.7980 C.ar      1 1QM         0.1323
      7 C13        -6.2610    1.8110    8.3180 C.3       1 1QM         0.0619
      8 C8        -10.1360   -3.6320    8.5480 C.ar      1 1QM        -0.0280
      9 C18        -3.6360   -2.6170   14.4610 C.3       1 1QM         0.0124
     10 C16        -3.0850   -0.3760   12.4400 C.3       1 1QM         0.1098
     11 C1         -5.6050   -2.2380   11.2070 C.ar      1 1QM         0.0088
     12 C2         -5.8890   -3.5860   10.9810 C.ar      1 1QM        -0.0509
     13 C3         -5.3850   -4.5430   11.8630 C.ar      1 1QM        -0.0159
     14 N1         -4.6590   -4.2450   12.9620 N.ar      1 1QM        -0.3121
     15 C5         -7.3910   -1.3310    9.6000 C.2       1 1QM         0.0473
     16 C10        -9.9510   -3.6720   10.9820 C.ar      1 1QM        -0.0280
     17 C11        -8.8740   -2.8030   10.9050 C.ar      1 1QM        -0.0562
     18 F1        -11.6140   -4.9010    9.8710 F         1 1QM        -0.1833
     19 C12        -5.5710   -0.0410    9.9260 C.2       1 1QM         0.0656
     20 C14        -4.3880   -2.9390   13.1870 C.ar      1 1QM         0.0950
     21 C15        -4.7960   -1.9250   12.3080 C.ar      1 1QM         0.1264
     22 O1         -4.4730   -0.6190   12.5580 O.3       1 1QM        -0.3101
     23 N4         -2.3220   -2.0120   14.2230 N.4       1 1QM         0.2413
     24 C17        -2.3720   -0.6150   13.7840 C.3       1 1QM        -0.0039
     25 H1         -8.7246   -2.3730    7.5348 H         1 1QM         0.0608
     26 H2         -5.3072    2.2616    8.6298 H         1 1QM         0.0610
     27 H3         -7.0887    2.4864    8.5803 H         1 1QM         0.0610
     28 H4         -6.2513    1.6481    7.2302 H         1 1QM         0.0610
     29 H5        -10.6162   -3.9758    7.6390 H         1 1QM         0.0604
     30 H6         -3.4934   -3.5493   15.0272 H         1 1QM         0.0981
     31 H7         -4.2404   -1.9159   15.0552 H         1 1QM         0.0981
     32 H8         -2.9266    0.6669   12.1282 H         1 1QM         0.0667
     33 H9         -2.6634   -1.0532   11.6827 H         1 1QM         0.0667
     34 H10        -6.4928   -3.8854   10.1320 H         1 1QM         0.0575
     35 H11        -5.5883   -5.5870   11.6536 H         1 1QM         0.0685
     36 H12       -10.3017   -4.0327   11.9422 H         1 1QM         0.0604
     37 H13        -8.3630   -2.4941   11.8097 H         1 1QM         0.0608
     38 H14        -4.6260    0.3730   10.2745 H         1 1QM         0.1044
     39 H15        -1.8510   -2.5496   13.5122 H         1 1QM         0.2028
     40 H16        -1.7948   -2.0545   15.0811 H         1 1QM         0.2028
     41 H17        -2.8975   -0.0341   14.5562 H         1 1QM         0.0841
     42 H18        -1.3384   -0.2503   13.6907 H         1 1QM         0.0841
@<TRIPOS>BOND
     1    1    3 1  
     2    1    7 1  
     3   19    1 1  
     4   11    2 1  
     5    2   15 1  
     6    2   19 2  
     7   15    3 2  
     8    5    4 ar 
     9    4    8 ar 
    10   15    5 1  
    11    5   17 ar 
    12    8    6 ar 
    13   16    6 ar 
    14    6   18 1  
    15   20    9 1  
    16    9   23 1  
    17   22   10 1  
    18   10   24 1  
    19   11   12 ar 
    20   21   11 ar 
    21   12   13 ar 
    22   14   13 ar 
    23   20   14 ar 
    24   17   16 ar 
    25   21   20 ar 
    26   21   22 1  
    27   23   24 1  
    28    4   25 1  
    29    7   26 1  
    30    7   27 1  
    31    7   28 1  
    32    8   29 1  
    33    9   30 1  
    34    9   31 1  
    35   10   32 1  
    36   10   33 1  
    37   12   34 1  
    38   13   35 1  
    39   16   36 1  
    40   17   37 1  
    41   19   38 1  
    42   23   39 1  
    43   23   40 1  
    44   24   41 1  
    45   24   42 1  
@<TRIPOS>SUBSTRUCTURE
     1 1QM         1

