### 
### Created by X-TOOL on Mon Sep 10 21:13:14 2018
### 

@<TRIPOS>MOLECULE
4kbc_ligand
   32    34     1     0     0
SMALL
GAST_HUCK


@<TRIPOS>ATOM
      1 N3        -25.3380   -0.7920   41.4820 N.ar      1 1QJ        -0.3053
      2 C4        -20.0940    1.4310   42.8570 C.ar      1 1QJ        -0.0278
      3 N2        -19.3070   -1.5430   39.2390 N.2       1 1QJ        -0.2075
      4 C7        -20.2810   -0.9310   39.9790 C.2       1 1QJ         0.0496
      5 C6        -19.9970    0.2590   40.7540 C.ar      1 1QJ        -0.0154
      6 C9        -21.2290   -2.7700   39.0670 C.2       1 1QJ         0.0675
      7 C13       -24.8960   -2.0650   41.3340 C.ar      1 1QJ         0.0451
      8 C8        -21.5020   -1.6710   39.8870 C.2       1 1QJ         0.0169
      9 C1        -19.2440    1.2880   40.1910 C.ar      1 1QJ        -0.0559
     10 C2        -18.9100    2.4000   40.9530 C.ar      1 1QJ        -0.0278
     11 C3        -19.3280    2.4530   42.2860 C.ar      1 1QJ         0.1325
     12 C5        -20.4310    0.3360   42.0760 C.ar      1 1QJ        -0.0559
     13 N1        -19.9000   -2.6410   38.6960 N.pl3     1 1QJ        -0.2133
     14 C10       -22.7800   -1.3620   40.4700 C.ar      1 1QJ        -0.0230
     15 C11       -23.1950   -0.0420   40.6300 C.ar      1 1QJ        -0.0432
     16 C12       -24.4750    0.1910   41.1390 C.ar      1 1QJ        -0.0050
     17 C14       -23.6330   -2.3980   40.8460 C.ar      1 1QJ        -0.0332
     18 C15       -25.8550   -3.1790   41.6960 C.3       1 1QJ         0.0914
     19 O1        -26.1960   -3.8890   40.5440 O.3       1 1QJ        -0.3802
     20 F1        -18.9950    3.4990   43.0320 F         1 1QJ        -0.1832
     21 H1        -20.4177    1.4939   43.8896 H         1 1QJ         0.0605
     22 H2        -21.9178   -3.5629   38.7795 H         1 1QJ         0.1079
     23 H3        -18.9193    1.2203   39.1590 H         1 1QJ         0.0609
     24 H4        -18.3357    3.2121   40.5220 H         1 1QJ         0.0605
     25 H5        -21.0334   -0.4620   42.4947 H         1 1QJ         0.0609
     26 H6        -19.4136   -3.3045   38.0762 H         1 1QJ         0.2623
     27 H7        -22.5423    0.7824   40.3666 H         1 1QJ         0.0605
     28 H8        -24.7948    1.2189   41.2663 H         1 1QJ         0.0779
     29 H9        -23.3233   -3.4334   40.7615 H         1 1QJ         0.0595
     30 H10       -26.7630   -2.7503   42.1452 H         1 1QJ         0.0748
     31 H11       -25.3746   -3.8573   42.4165 H         1 1QJ         0.0748
     32 H12       -26.6105   -3.3020   39.9227 H         1 1QJ         0.2130
@<TRIPOS>BOND
     1    7    1 ar 
     2    1   16 ar 
     3    2   11 ar 
     4   12    2 ar 
     5    4    3 2  
     6   13    3 1  
     7    4    5 1  
     8    8    4 1  
     9    5    9 ar 
    10    5   12 ar 
    11    8    6 2  
    12    6   13 1  
    13   17    7 ar 
    14    7   18 1  
    15   14    8 1  
    16    9   10 ar 
    17   10   11 ar 
    18   11   20 1  
    19   14   15 ar 
    20   14   17 ar 
    21   15   16 ar 
    22   18   19 1  
    23    2   21 1  
    24    6   22 1  
    25    9   23 1  
    26   10   24 1  
    27   12   25 1  
    28   13   26 1  
    29   15   27 1  
    30   16   28 1  
    31   17   29 1  
    32   18   30 1  
    33   18   31 1  
    34   19   32 1  
@<TRIPOS>SUBSTRUCTURE
     1 1QJ         1

