### 
### Created by X-TOOL on Mon Sep 10 21:13:14 2018
### 

@<TRIPOS>MOLECULE
4kbk_ligand
   45    48     1     0     0
SMALL
GAST_HUCK


@<TRIPOS>ATOM
      1 N3         21.9270   21.9230  -51.4410 N.ar      1 1QG        -0.3019
      2 C4         21.5980   24.8690  -47.1080 C.2       1 1QG         0.0497
      3 N2         20.8480   25.3820  -46.0840 N.2       1 1QG        -0.2053
      4 C7         25.1540   25.3630  -46.0740 C.ar      1 1QG        -0.0278
      5 C6         23.8040   25.0460  -46.0300 C.ar      1 1QG        -0.0559
      6 C9         24.9430   25.8310  -48.4640 C.ar      1 1QG        -0.0278
      7 C13        22.7110   22.0100  -50.3460 C.ar      1 1QG        -0.0048
      8 C8         25.7090   25.7540  -47.2950 C.ar      1 1QG         0.1325
      9 C18        17.4060   22.7890  -53.9690 C.3       1 1QG         0.0880
     10 C16        19.8860   22.4450  -52.6390 C.3       1 1QG         0.0484
     11 C19        18.6420   23.6270  -54.3480 C.3       1 1QG        -0.0078
     12 C1         18.4440   25.4500  -45.5210 C.3       1 1QG         0.0627
     13 N1         19.5630   25.0210  -46.3650 N.pl3     1 1QG        -0.2025
     14 C2         19.4600   24.2920  -47.5440 C.2       1 1QG         0.0701
     15 C3         20.7630   24.1670  -48.0320 C.2       1 1QG         0.0171
     16 C5         23.0250   25.1270  -47.1830 C.ar      1 1QG        -0.0154
     17 C10        23.5960   25.5110  -48.3960 C.ar      1 1QG        -0.0559
     18 F1         27.0000   26.0600  -47.3490 F         1 1QG        -0.1832
     19 C11        21.1610   23.4280  -49.2000 C.ar      1 1QG        -0.0228
     20 C12        22.3730   22.7430  -49.2060 C.ar      1 1QG        -0.0432
     21 C14        20.7470   22.5980  -51.4080 C.ar      1 1QG         0.0692
     22 C15        20.3280   23.3640  -50.3200 C.ar      1 1QG        -0.0299
     23 C17        18.5820   21.7060  -52.2670 C.3       1 1QG         0.1022
     24 O1         17.7840   21.5570  -53.4130 O.3       1 1QG        -0.3666
     25 N4         19.4940   23.7810  -53.1470 N.4       1 1QG         0.2464
     26 H1         25.7650   25.3085  -45.1802 H         1 1QG         0.0605
     27 H2         23.3531   24.7340  -45.0949 H         1 1QG         0.0609
     28 H3         25.3934   26.1343  -49.4022 H         1 1QG         0.0605
     29 H4         23.6571   21.4808  -50.3515 H         1 1QG         0.0779
     30 H5         16.8046   22.6066  -54.8718 H         1 1QG         0.0613
     31 H6         16.8055   23.3458  -53.2346 H         1 1QG         0.0613
     32 H7         20.4356   21.8880  -53.4121 H         1 1QG         0.1066
     33 H8         18.3231   24.6171  -54.7056 H         1 1QG         0.0837
     34 H9         19.2078   23.1156  -55.1407 H         1 1QG         0.0837
     35 H10        17.5037   25.0489  -45.9271 H         1 1QG         0.0611
     36 H11        18.3972   26.5489  -45.5048 H         1 1QG         0.0611
     37 H12        18.5913   25.0741  -44.4978 H         1 1QG         0.0611
     38 H13        18.5500   23.8989  -47.9949 H         1 1QG         0.1081
     39 H14        22.9839   25.5594  -49.2894 H         1 1QG         0.0609
     40 H15        23.0363   22.7775  -48.3493 H         1 1QG         0.0605
     41 H16        19.3830   23.8945  -50.3428 H         1 1QG         0.0596
     42 H17        18.0336   22.2880  -51.5117 H         1 1QG         0.0643
     43 H18        18.8264   20.7141  -51.8592 H         1 1QG         0.0643
     44 H19        20.3213   24.3041  -53.3878 H         1 1QG         0.2034
     45 H20        18.9808   24.2738  -52.4330 H         1 1QG         0.2034
@<TRIPOS>BOND
     1    7    1 ar 
     2    1   21 ar 
     3    2    3 2  
     4   15    2 1  
     5    2   16 1  
     6   13    3 1  
     7    5    4 ar 
     8    4    8 ar 
     9   16    5 ar 
    10    6    8 ar 
    11   17    6 ar 
    12   20    7 ar 
    13    8   18 1  
    14   11    9 1  
    15    9   24 1  
    16   21   10 1  
    17   10   23 1  
    18   10   25 1  
    19   25   11 1  
    20   13   12 1  
    21   14   13 1  
    22   15   14 2  
    23   19   15 1  
    24   16   17 ar 
    25   19   20 ar 
    26   19   22 ar 
    27   21   22 ar 
    28   23   24 1  
    29    4   26 1  
    30    5   27 1  
    31    6   28 1  
    32    7   29 1  
    33    9   30 1  
    34    9   31 1  
    35   10   32 1  
    36   11   33 1  
    37   11   34 1  
    38   12   35 1  
    39   12   36 1  
    40   12   37 1  
    41   14   38 1  
    42   17   39 1  
    43   20   40 1  
    44   22   41 1  
    45   23   42 1  
    46   23   43 1  
    47   25   44 1  
    48   25   45 1  
@<TRIPOS>SUBSTRUCTURE
     1 1QG         1

