### 
### Created by X-TOOL on Mon Sep 10 21:13:12 2018
### 

@<TRIPOS>MOLECULE
4kc1_ligand
   45    47     1     0     0
SMALL
GAST_HUCK


@<TRIPOS>ATOM
      1 O4         17.9670   23.6360   11.3430 O.2       1 WS1        -0.4124
      2 C4         17.4970   23.5590   10.1830 C.2       1 WS1         0.1822
      3 N3         18.1330   24.1720    9.1740 N.am      1 WS1        -0.1865
      4 C2         17.6570   24.1120    7.9260 C.2       1 WS1         0.3328
      5 O2         18.2680   24.6880    7.0080 O.2       1 WS1        -0.3815
      6 C5         16.3230   22.8440    9.9320 C.2       1 WS1         0.0062
      7 C6         15.8230   22.7750    8.6290 C.2       1 WS1         0.0591
      8 N1         16.4770   23.3970    7.6300 N.am      1 WS1        -0.1592
      9 C1'        15.9870   23.3680    6.2360 C.3       1 WS1         0.2058
     10 O4'        14.6660   22.8160    6.1900 O.3       1 WS1        -0.3369
     11 C2'        16.8630   22.5090    5.3290 C.3       1 WS1         0.1387
     12 O2'        16.8990   23.0470    3.9930 O.3       1 WS1        -0.3836
     13 C3'        16.1050   21.2030    5.3130 C.3       1 WS1         0.1143
     14 O3'        16.4370   20.4110    4.1710 O.3       1 WS1        -0.3864
     15 C4'        14.6500   21.6700    5.3320 C.3       1 WS1         0.1105
     16 C5'        13.6100   20.6550    5.8180 C.3       1 WS1         0.0595
     17 N11        14.0200   19.9300    7.0130 N.am      1 WS1        -0.2817
     18 C12        14.6140   18.7390    6.9170 C.2       1 WS1         0.2218
     19 O13        15.0590   18.3190    5.8480 O.2       1 WS1        -0.3791
     20 C14        14.7600   17.8610    8.1250 C.ar      1 WS1         0.1136
     21 C15        14.3460   18.2560    9.3990 C.ar      1 WS1        -0.0212
     22 C16        14.5200   17.3720   10.4660 C.ar      1 WS1        -0.0433
     23 C17        15.0980   16.1200   10.2420 C.ar      1 WS1        -0.0260
     24 C18        15.4910   15.7710    8.9510 C.ar      1 WS1         0.0587
     25 N19        15.3170   16.6450    7.9350 N.ar      1 WS1        -0.2757
     26 C20        16.1190   14.4290    8.6500 C.3       1 WS1         0.0944
     27 O21        16.3220   14.3340    7.2370 O.3       1 WS1        -0.3798
     28 H1         18.9742   24.6806    9.3574 H         1 WS1         0.2259
     29 H2         15.8011   22.3438   10.7465 H         1 WS1         0.0258
     30 H3         14.9086   22.2207    8.4226 H         1 WS1         0.1178
     31 H4         15.9700   24.3979    5.8500 H         1 WS1         0.0997
     32 H5         17.8820   22.3964    5.7275 H         1 WS1         0.0676
     33 H6         17.2537   23.9280    4.0170 H         1 WS1         0.2101
     34 H7         16.3268   20.6167    6.2169 H         1 WS1         0.0648
     35 H8         15.9427   19.6001    4.1949 H         1 WS1         0.2100
     36 H9         14.3648   21.9698    4.3128 H         1 WS1         0.0644
     37 H10        13.4315   19.9268    5.0131 H         1 WS1         0.0546
     38 H11        12.6763   21.1924    6.0400 H         1 WS1         0.0546
     39 H12        13.8546   20.3291    7.9149 H         1 WS1         0.1848
     40 H13        13.8980   19.2304    9.5566 H         1 WS1         0.0705
     41 H14        14.2077   17.6562   11.4644 H         1 WS1         0.0729
     42 H15        15.2394   15.4272   11.0636 H         1 WS1         0.0685
     43 H16        15.4504   13.6222    8.9846 H         1 WS1         0.0753
     44 H17        17.0843   14.3450    9.1707 H         1 WS1         0.0753
     45 H18        16.7167   13.4949    7.0306 H         1 WS1         0.2130
@<TRIPOS>BOND
     1    1    2 2  
     2    2    3 am 
     3    2    6 1  
     4    3    4 am 
     5    4    5 2  
     6    4    8 am 
     7    6    7 2  
     8    7    8 1  
     9    8    9 1  
    10    9   10 1  
    11    9   11 1  
    12   10   15 1  
    13   11   12 1  
    14   11   13 1  
    15   13   14 1  
    16   13   15 1  
    17   15   16 1  
    18   16   17 1  
    19   17   18 am 
    20   18   19 2  
    21   18   20 1  
    22   20   21 ar 
    23   20   25 ar 
    24   21   22 ar 
    25   22   23 ar 
    26   23   24 ar 
    27   24   25 ar 
    28   24   26 1  
    29   26   27 1  
    30    3   28 1  
    31    6   29 1  
    32    7   30 1  
    33    9   31 1  
    34   11   32 1  
    35   12   33 1  
    36   13   34 1  
    37   14   35 1  
    38   15   36 1  
    39   16   37 1  
    40   16   38 1  
    41   17   39 1  
    42   21   40 1  
    43   22   41 1  
    44   23   42 1  
    45   26   43 1  
    46   26   44 1  
    47   27   45 1  
@<TRIPOS>SUBSTRUCTURE
     1 WS1         1

