### 
### Created by X-TOOL on Mon Sep 10 21:13:13 2018
### 

@<TRIPOS>MOLECULE
4kc2_ligand
   45    47     1     0     0
SMALL
GAST_HUCK


@<TRIPOS>ATOM
      1 O4         17.9810   23.6120   11.2450 O.2       1 WS2        -0.4124
      2 C4         17.4920   23.5780   10.0860 C.2       1 WS2         0.1822
      3 N3         18.1390   24.1820    9.0760 N.am      1 WS2        -0.1865
      4 C2         17.6510   24.1570    7.8260 C.2       1 WS2         0.3328
      5 O2         18.2810   24.7260    6.9120 O.2       1 WS2        -0.3815
      6 C5         16.2900   22.9060    9.8430 C.2       1 WS2         0.0062
      7 C6         15.7750   22.8790    8.5430 C.2       1 WS2         0.0591
      8 N1         16.4350   23.4880    7.5410 N.am      1 WS2        -0.1592
      9 C1'        15.9160   23.4750    6.1610 C.3       1 WS2         0.2058
     10 O4'        14.6010   22.9100    6.1140 O.3       1 WS2        -0.3369
     11 C2'        16.7950   22.5830    5.2920 C.3       1 WS2         0.1387
     12 O2'        16.8410   23.0820    3.9440 O.3       1 WS2        -0.3836
     13 C3'        16.0510   21.2690    5.3080 C.3       1 WS2         0.1143
     14 O3'        16.3730   20.4590    4.1750 O.3       1 WS2        -0.3864
     15 C4'        14.5990   21.7310    5.3050 C.3       1 WS2         0.1105
     16 C5'        13.5610   20.7300    5.8190 C.3       1 WS2         0.0595
     17 N11        13.9870   20.0050    7.0040 N.am      1 WS2        -0.2817
     18 C12        14.5410   18.7950    6.9210 C.2       1 WS2         0.2218
     19 O13        14.9740   18.3660    5.8580 O.2       1 WS2        -0.3791
     20 C14        14.6620   17.9240    8.1420 C.ar      1 WS2         0.1136
     21 C15        14.1020   18.3020    9.3660 C.ar      1 WS2        -0.0212
     22 C16        14.2420   17.4560   10.4700 C.ar      1 WS2        -0.0433
     23 C17        14.9390   16.2550   10.3330 C.ar      1 WS2        -0.0260
     24 C18        15.4790   15.9100    9.0930 C.ar      1 WS2         0.0587
     25 N19        15.3350   16.7500    8.0370 N.ar      1 WS2        -0.2757
     26 C20        16.2470   14.6130    8.9180 C.3       1 WS2         0.0944
     27 O1'        16.3620   14.3010    7.5280 O.3       1 WS2        -0.3798
     28 H1         18.9990   24.6585    9.2584 H         1 WS2         0.2259
     29 H2         15.7616   22.4099   10.6558 H         1 WS2         0.0258
     30 H3         14.8372   22.3636    8.3411 H         1 WS2         0.1178
     31 H4         15.9014   24.5012    5.7652 H         1 WS2         0.0997
     32 H5         17.8112   22.4874    5.7022 H         1 WS2         0.0676
     33 H6         17.1989   23.9620    3.9453 H         1 WS2         0.2101
     34 H7         16.2769   20.7022    6.2233 H         1 WS2         0.0648
     35 H8         15.8868   19.6442    4.2212 H         1 WS2         0.2100
     36 H9         14.3190   21.9902    4.2733 H         1 WS2         0.0644
     37 H10        13.3560   20.0013    5.0209 H         1 WS2         0.0546
     38 H11        12.6387   21.2788    6.0603 H         1 WS2         0.0546
     39 H12        13.8617   20.4236    7.9035 H         1 WS2         0.1848
     40 H13        13.5658   19.2396    9.4578 H         1 WS2         0.0705
     41 H14        13.8119   17.7312   11.4262 H         1 WS2         0.0729
     42 H15        15.0603   15.5944   11.1838 H         1 WS2         0.0685
     43 H16        15.7125   13.8002    9.4314 H         1 WS2         0.0753
     44 H17        17.2519   14.7225    9.3518 H         1 WS2         0.0753
     45 H18        16.8243   15.0023    7.0844 H         1 WS2         0.2130
@<TRIPOS>BOND
     1    1    2 2  
     2    2    3 am 
     3    2    6 1  
     4    3    4 am 
     5    4    5 2  
     6    4    8 am 
     7    6    7 2  
     8    7    8 1  
     9    8    9 1  
    10    9   10 1  
    11    9   11 1  
    12   10   15 1  
    13   11   12 1  
    14   11   13 1  
    15   13   14 1  
    16   13   15 1  
    17   15   16 1  
    18   16   17 1  
    19   17   18 am 
    20   18   19 2  
    21   18   20 1  
    22   20   21 ar 
    23   20   25 ar 
    24   21   22 ar 
    25   22   23 ar 
    26   23   24 ar 
    27   24   25 ar 
    28   24   26 1  
    29   26   27 1  
    30    3   28 1  
    31    6   29 1  
    32    7   30 1  
    33    9   31 1  
    34   11   32 1  
    35   12   33 1  
    36   13   34 1  
    37   14   35 1  
    38   15   36 1  
    39   16   37 1  
    40   16   38 1  
    41   17   39 1  
    42   21   40 1  
    43   22   41 1  
    44   23   42 1  
    45   26   43 1  
    46   26   44 1  
    47   27   45 1  
@<TRIPOS>SUBSTRUCTURE
     1 WS2         1

