### 
### Created by X-TOOL on Mon Sep 10 21:13:12 2018
### 

@<TRIPOS>MOLECULE
4kc4_ligand
   45    47     1     0     0
SMALL
GAST_HUCK


@<TRIPOS>ATOM
      1 O4         17.9710   23.7190   11.2720 O.2       1 WS3        -0.4124
      2 C4         17.5040   23.6300   10.1120 C.2       1 WS3         0.1822
      3 N3         18.1520   24.2200    9.0960 N.am      1 WS3        -0.1865
      4 C2         17.6810   24.1460    7.8420 C.2       1 WS3         0.3328
      5 O2         18.2980   24.7080    6.9240 O.2       1 WS3        -0.3815
      6 C5         16.3280   22.9170    9.8680 C.2       1 WS3         0.0062
      7 C6         15.8320   22.8400    8.5650 C.2       1 WS3         0.0591
      8 N1         16.4920   23.4360    7.5500 N.am      1 WS3        -0.1592
      9 C11        16.0000   23.3880    6.1590 C.3       1 WS3         0.2058
     10 O44        14.6800   22.8300    6.1120 O.3       1 WS3        -0.3369
     11 C22        16.8830   22.5090    5.2720 C.3       1 WS3         0.1387
     12 O22        16.9270   22.9990    3.9170 O.3       1 WS3        -0.3836
     13 C33        16.1380   21.1990    5.2740 C.3       1 WS3         0.1143
     14 O33        16.4820   20.4250    4.1210 O.3       1 WS3        -0.3864
     15 C44        14.6830   21.6600    5.2850 C.3       1 WS3         0.1105
     16 C55        13.6480   20.6540    5.7940 C.3       1 WS3         0.0595
     17 N11        14.1080   19.9340    6.9710 N.am      1 WS3        -0.2817
     18 C12        14.7070   18.7480    6.8620 C.2       1 WS3         0.2218
     19 O13        15.1270   18.3300    5.7810 O.2       1 WS3        -0.3791
     20 C14        14.8800   17.9010    8.0900 C.ar      1 WS3         0.1136
     21 C15        14.4290   18.3410    9.3390 C.ar      1 WS3        -0.0212
     22 C16        14.6070   17.5240   10.4560 C.ar      1 WS3        -0.0433
     23 C17        15.2320   16.2860   10.3010 C.ar      1 WS3        -0.0260
     24 C18        15.6680   15.8820    9.0360 C.ar      1 WS3         0.0587
     25 N19        15.4840   16.6940    7.9670 N.ar      1 WS3        -0.2757
     26 C20        16.3460   14.5400    8.8610 C.3       1 WS3         0.0944
     27 O1'        16.2920   14.1350    7.4900 O.3       1 WS3        -0.3798
     28 H1         18.9980   24.7220    9.2760 H         1 WS3         0.2259
     29 H2         15.8030   22.4259   10.6860 H         1 WS3         0.0258
     30 H3         14.9090   22.2969    8.3671 H         1 WS3         0.1178
     31 H4         15.9833   24.4116    5.7566 H         1 WS3         0.0997
     32 H5         17.9000   22.4127    5.6800 H         1 WS3         0.0676
     33 H6         17.2791   23.8813    3.9118 H         1 WS3         0.2101
     34 H7         16.3648   20.6138    6.1774 H         1 WS3         0.0648
     35 H8         16.0043   19.6039    4.1381 H         1 WS3         0.2100
     36 H9         14.3980   21.9312    4.2578 H         1 WS3         0.0644
     37 H10        13.4384   19.9277    4.9950 H         1 WS3         0.0546
     38 H11        12.7249   21.1951    6.0491 H         1 WS3         0.0546
     39 H12        13.9727   20.3352    7.8770 H         1 WS3         0.1848
     40 H13        13.9463   19.3065    9.4380 H         1 WS3         0.0705
     41 H14        14.2640   17.8470   11.4323 H         1 WS3         0.0729
     42 H15        15.3789   15.6398   11.1588 H         1 WS3         0.0685
     43 H16        15.8338   13.7903    9.4819 H         1 WS3         0.0753
     44 H17        17.3971   14.6201    9.1752 H         1 WS3         0.0753
     45 H18        16.7355   14.7808    6.9525 H         1 WS3         0.2130
@<TRIPOS>BOND
     1    1    2 2  
     2    2    3 am 
     3    2    6 1  
     4    3    4 am 
     5    4    5 2  
     6    4    8 am 
     7    6    7 2  
     8    7    8 1  
     9    8    9 1  
    10    9   10 1  
    11    9   11 1  
    12   10   15 1  
    13   11   12 1  
    14   11   13 1  
    15   13   14 1  
    16   13   15 1  
    17   15   16 1  
    18   16   17 1  
    19   17   18 am 
    20   18   19 2  
    21   18   20 1  
    22   20   21 ar 
    23   20   25 ar 
    24   21   22 ar 
    25   22   23 ar 
    26   23   24 ar 
    27   24   25 ar 
    28   24   26 1  
    29   26   27 1  
    30    3   28 1  
    31    6   29 1  
    32    7   30 1  
    33    9   31 1  
    34   11   32 1  
    35   12   33 1  
    36   13   34 1  
    37   14   35 1  
    38   15   36 1  
    39   16   37 1  
    40   16   38 1  
    41   17   39 1  
    42   21   40 1  
    43   22   41 1  
    44   23   42 1  
    45   26   43 1  
    46   26   44 1  
    47   27   45 1  
@<TRIPOS>SUBSTRUCTURE
     1 WS3         1

