### 
### Created by X-TOOL on Mon Sep 10 21:13:17 2018
### 

@<TRIPOS>MOLECULE
4kcg_ligand
   62    64     1     0     0
SMALL
GAST_HUCK


@<TRIPOS>ATOM
      1 CAC       -38.1030    9.6770    2.8670 C.3       1 1QC         0.0732
      2 SBH       -37.5630    8.2960    1.8620 S.o2      1 1QC         0.0362
      3 OAF       -38.3940    7.0420    2.1690 O.2       1 1QC        -0.1558
      4 OAG       -36.0740    8.0760    2.2020 O.2       1 1QC        -0.1558
      5 NAT       -37.7380    8.5840    0.1760 N.am      1 1QC        -0.2495
      6 CAM       -36.7120    7.8740   -0.6390 C.3       1 1QC         0.0535
      7 CAN       -35.9050    8.8500   -1.5350 C.3       1 1QC         0.0847
      8 OAV       -36.7830    9.9060   -1.9520 O.3       1 1QC        -0.3195
      9 CBD       -36.3040   10.8000   -2.8340 C.ar      1 1QC         0.1234
     10 CAK       -34.9490   11.0830   -2.9360 C.ar      1 1QC        -0.0283
     11 CBC       -37.2560   11.4350   -3.6260 C.ar      1 1QC         0.1239
     12 OAU       -38.5510   11.0670   -3.4250 O.3       1 1QC        -0.3219
     13 CAB       -39.4930   11.6540   -4.3440 C.3       1 1QC         0.0581
     14 CAI       -36.8540   12.3750   -4.5560 C.ar      1 1QC        -0.0365
     15 CAH       -35.4920   12.6550   -4.6610 C.ar      1 1QC        -0.0673
     16 CBA       -34.5320   12.0110   -3.8740 C.ar      1 1QC        -0.0059
     17 CBG       -33.2290   12.3200   -3.9820 C.2       1 1QC         0.0911
     18 NAS       -32.2640   11.9720   -3.1230 N.2       1 1QC        -0.3234
     19 SAX       -32.5780   13.2320   -5.1530 S.3       1 1QC        -0.0153
     20 CBF       -31.0510   13.1860   -4.5880 C.2       1 1QC         0.0266
     21 CAO       -29.8120   13.8750   -5.2420 C.3       1 1QC        -0.0125
     22 CAL       -29.9690   15.4050   -5.2940 C.3       1 1QC        -0.0464
     23 CAA       -29.6140   16.0480   -3.9300 C.3       1 1QC        -0.0635
     24 CBE       -31.0490   12.4460   -3.4640 C.2       1 1QC         0.0084
     25 CAP       -29.7730   12.1500   -2.6430 C.3       1 1QC         0.0408
     26 SAW       -28.9190   10.5720   -3.0760 S.3       1 1QC        -0.0547
     27 C2        -27.2300   11.0230   -3.4750 C.ar      1 1QC         0.1331
     28 N3        -26.2620   10.0970   -3.6080 N.ar      1 1QC        -0.2611
     29 N1        -26.9230   12.2990   -3.6400 N.ar      1 1QC        -0.2611
     30 C6        -25.6790   12.6930   -3.9210 C.ar      1 1QC         0.1021
     31 NAD       -25.4920   14.0010   -4.0780 N.pl3     1 1QC        -0.3204
     32 C5        -24.6320   11.7600   -4.0620 C.ar      1 1QC         0.0131
     33 C4        -24.9810   10.4290   -3.8730 C.ar      1 1QC         0.1021
     34 NAE       -24.0620    9.4840   -3.9640 N.pl3     1 1QC        -0.3204
     35 H         -39.1649    9.8829    2.6670 H         1 1QC         0.0482
     36 H         -37.5044   10.5662    2.6203 H         1 1QC         0.0482
     37 H         -37.9715    9.4299    3.9308 H         1 1QC         0.0482
     38 H         -38.4513    9.1653   -0.2155 H         1 1QC         0.1669
     39 H         -37.2162    7.1368   -1.2811 H         1 1QC         0.0502
     40 H         -36.0167    7.3560    0.0379 H         1 1QC         0.0502
     41 H         -35.5209    8.3153   -2.4162 H         1 1QC         0.0625
     42 H         -35.0630    9.2693   -0.9647 H         1 1QC         0.0625
     43 H         -34.2311   10.5865   -2.2932 H         1 1QC         0.0527
     44 H         -40.5070   11.3006   -4.1053 H         1 1QC         0.0575
     45 H         -39.2346   11.3596   -5.3719 H         1 1QC         0.0575
     46 H         -39.4566   12.7499   -4.2563 H         1 1QC         0.0575
     47 H         -37.5770   12.8803   -5.1860 H         1 1QC         0.0524
     48 H         -35.1655   13.3989   -5.3787 H         1 1QC         0.0529
     49 H         -29.6930   13.4945   -6.2672 H         1 1QC         0.0423
     50 H         -28.9160   13.6290   -4.6533 H         1 1QC         0.0423
     51 H         -31.0109   15.6510   -5.5469 H         1 1QC         0.0285
     52 H         -29.2988   15.8090   -6.0670 H         1 1QC         0.0285
     53 H         -29.7349   17.1393   -3.9966 H         1 1QC         0.0231
     54 H         -28.5715   15.8097   -3.6725 H         1 1QC         0.0231
     55 H         -30.2835   15.6517   -3.1524 H         1 1QC         0.0231
     56 H         -30.0530   12.1065   -1.5801 H         1 1QC         0.0513
     57 H         -29.0649   12.9765   -2.8021 H         1 1QC         0.0513
     58 H         -24.5533   14.3645   -4.2961 H         1 1QC         0.1796
     59 H         -26.2860   14.6500   -3.9814 H         1 1QC         0.1796
     60 H         -23.6191   12.0620   -4.3026 H         1 1QC         0.0494
     61 H         -23.0837    9.7348   -4.1662 H         1 1QC         0.1796
     62 H         -24.3239    8.4965   -3.8328 H         1 1QC         0.1796
@<TRIPOS>BOND
     1    1    2 1  
     2    2    3 2  
     3    2    4 2  
     4    2    5 am 
     5    5    6 1  
     6    6    7 1  
     7    7    8 1  
     8    8    9 1  
     9    9   10 ar 
    10    9   11 ar 
    11   10   16 ar 
    12   11   12 1  
    13   11   14 ar 
    14   12   13 1  
    15   14   15 ar 
    16   15   16 ar 
    17   16   17 1  
    18   17   18 2  
    19   17   19 1  
    20   18   24 1  
    21   19   20 1  
    22   20   21 1  
    23   20   24 2  
    24   21   22 1  
    25   22   23 1  
    26   24   25 1  
    27   25   26 1  
    28   26   27 1  
    29   27   28 ar 
    30   27   29 ar 
    31   28   33 ar 
    32   29   30 ar 
    33   30   31 1  
    34   30   32 ar 
    35   32   33 ar 
    36   33   34 1  
    37    1   35 1  
    38    1   36 1  
    39    1   37 1  
    40    5   38 1  
    41    6   39 1  
    42    6   40 1  
    43    7   41 1  
    44    7   42 1  
    45   10   43 1  
    46   13   44 1  
    47   13   45 1  
    48   13   46 1  
    49   14   47 1  
    50   15   48 1  
    51   21   49 1  
    52   21   50 1  
    53   22   51 1  
    54   22   52 1  
    55   23   53 1  
    56   23   54 1  
    57   23   55 1  
    58   25   56 1  
    59   25   57 1  
    60   31   58 1  
    61   31   59 1  
    62   32   60 1  
    63   34   61 1  
    64   34   62 1  
@<TRIPOS>SUBSTRUCTURE
     1 1QC         1

