### 
### Created by X-TOOL on Mon Sep 10 21:13:13 2018
### 

@<TRIPOS>MOLECULE
4ke0_ligand
   79    83     1     0     0
SMALL
GAST_HUCK


@<TRIPOS>ATOM
      1 C2         29.2900    0.1920   10.7140 C.3       1 1R8        -0.0194
      2 C3         28.0370   -0.5240   11.2250 C.3       1 1R8        -0.0472
      3 C4         27.4650    0.8270   11.7140 C.3       1 1R8        -0.0194
      4 C1         28.7860    1.5110   11.3470 C.3       1 1R8         0.0955
      5 C12        29.5470    1.9580   12.6110 C.3       1 1R8         0.0316
      6 O13        28.6310    2.5870   10.4100 O.3       1 1R8        -0.3192
      7 C15        29.7640    3.2720   10.0740 C.ar      1 1R8         0.0917
      8 C16        29.7600    4.0180    8.8880 C.ar      1 1R8        -0.0458
      9 C17        30.9010    4.7300    8.5000 C.ar      1 1R8        -0.0758
     10 C18        32.0380    4.7110    9.2980 C.ar      1 1R8        -0.0605
     11 C20        33.2990    5.4800    8.8900 C.3       1 1R8        -0.0286
     12 C21        34.3420    4.5010    8.3220 C.3       1 1R8        -0.0570
     13 C19        32.0370    3.9770   10.4780 C.ar      1 1R8        -0.0617
     14 C14        30.9050    3.2650   10.8860 C.ar      1 1R8         0.0273
     15 C11        30.9570    2.4480   12.2150 C.3       1 1R8         0.0112
     16 N10        31.6080    3.2050   13.3270 N.4       1 1R8         0.2416
     17 C9         31.0010    4.5240   13.6320 C.3       1 1R8        -0.0032
     18 C6         32.0320    5.3850   14.3540 C.3       1 1R8         0.1193
     19 O8         33.1630    5.4830   13.5070 O.3       1 1R8        -0.3840
     20 C5         31.5340    6.7940   14.7140 C.3       1 1R8         0.0821
     21 C22        32.6370    7.5870   15.4370 C.3       1 1R8         0.0050
     22 C23        32.1340    8.9420   15.9500 C.ar      1 1R8        -0.0475
     23 C24        31.5870    9.0370   17.2340 C.ar      1 1R8        -0.0591
     24 C28        32.2190   10.0810   15.1400 C.ar      1 1R8        -0.0672
     25 C27        31.7450   11.3070   15.6300 C.ar      1 1R8        -0.0752
     26 C26        31.1910   11.4000   16.9150 C.ar      1 1R8        -0.0673
     27 C25        31.1170   10.2570   17.7240 C.ar      1 1R8        -0.0498
     28 C29        30.5060   10.3240   19.1440 C.3       1 1R8        -0.0207
     29 C30        28.9510   10.3560   19.1200 C.3       1 1R8        -0.0434
     30 C33        28.3030    9.1000   18.4700 C.3       1 1R8        -0.0511
     31 C34        27.9740    9.3500   16.9720 C.3       1 1R8        -0.0508
     32 C35        27.1720    8.2010   16.3290 C.3       1 1R8        -0.0361
     33 C36        27.9830    6.9090   16.1490 C.3       1 1R8         0.0372
     34 C31        29.1190    7.0760   15.1390 C.2       1 1R8         0.1764
     35 O32        28.8850    7.5100   14.0110 O.2       1 1R8        -0.3971
     36 N7         30.3310    6.6990   15.5620 N.am      1 1R8        -0.2792
     37 H1         29.3753    0.2227    9.6178 H         1 1R8         0.0297
     38 H2         30.2300   -0.1834   11.1446 H         1 1R8         0.0297
     39 H3         28.2303   -1.2478   12.0305 H         1 1R8         0.0267
     40 H4         27.4408   -1.0047   10.4354 H         1 1R8         0.0267
     41 H5         27.2278    0.8531   12.7878 H         1 1R8         0.0297
     42 H6         26.5983    1.1837   11.1382 H         1 1R8         0.0297
     43 H7         29.6351    1.1096   13.3055 H         1 1R8         0.0371
     44 H8         28.9980    2.7764   13.0996 H         1 1R8         0.0371
     45 H9         28.8705    4.0439    8.2690 H         1 1R8         0.0505
     46 H10        30.8974    5.2968    7.5760 H         1 1R8         0.0472
     47 H11        33.7174    5.9899    9.7703 H         1 1R8         0.0402
     48 H12        33.0409    6.2250    8.1230 H         1 1R8         0.0402
     49 H13        35.2455    5.0564    8.0303 H         1 1R8         0.0249
     50 H14        33.9248    3.9910    7.4412 H         1 1R8         0.0249
     51 H15        34.6012    3.7559    9.0886 H         1 1R8         0.0249
     52 H16        32.9295    3.9561   11.0929 H         1 1R8         0.0469
     53 H17        31.5742    1.5573   12.0261 H         1 1R8         0.0992
     54 H18        32.5732    3.3557   13.0787 H         1 1R8         0.2029
     55 H19        31.5596    2.6392   14.1598 H         1 1R8         0.2029
     56 H20        30.1196    4.3854   14.2754 H         1 1R8         0.0840
     57 H21        30.6982    5.0167   12.6963 H         1 1R8         0.0840
     58 H22        32.3177    4.8771   15.2870 H         1 1R8         0.0672
     59 H23        33.8276    6.0152   13.9283 H         1 1R8         0.2101
     60 H24        31.2715    7.3234   13.7862 H         1 1R8         0.0606
     61 H25        33.4669    7.7595   14.7360 H         1 1R8         0.0448
     62 H26        32.9961    6.9956   16.2921 H         1 1R8         0.0448
     63 H27        31.5272    8.1517   17.8568 H         1 1R8         0.0494
     64 H28        32.6461   10.0161   14.1458 H         1 1R8         0.0499
     65 H29        31.8077   12.1927   15.0082 H         1 1R8         0.0582
     66 H30        30.8217   12.3511   17.2812 H         1 1R8         0.0499
     67 H31        30.8703   11.2343   19.6427 H         1 1R8         0.0425
     68 H32        30.8323    9.4397   19.7110 H         1 1R8         0.0425
     69 H33        28.6318   11.2427   18.5527 H         1 1R8         0.0287
     70 H34        28.5904   10.4342   20.1563 H         1 1R8         0.0287
     71 H35        27.3735    8.8576   19.0060 H         1 1R8         0.0267
     72 H36        29.0023    8.2545   18.5476 H         1 1R8         0.0267
     73 H37        28.9187    9.4685   16.4211 H         1 1R8         0.0267
     74 H38        27.3847   10.2754   16.8927 H         1 1R8         0.0267
     75 H39        26.8221    8.5323   15.3401 H         1 1R8         0.0290
     76 H40        26.3055    7.9809   16.9698 H         1 1R8         0.0290
     77 H41        27.3094    6.1142   15.7962 H         1 1R8         0.0502
     78 H42        28.4120    6.6218   17.1203 H         1 1R8         0.0502
     79 H43        30.4250    6.3385   16.4900 H         1 1R8         0.1857
@<TRIPOS>BOND
     1    1    2 1  
     2    1    4 1  
     3    2    3 1  
     4    3    4 1  
     5    4    5 1  
     6    4    6 1  
     7    5   15 1  
     8    6    7 1  
     9    7    8 ar 
    10    7   14 ar 
    11    8    9 ar 
    12    9   10 ar 
    13   10   11 1  
    14   10   13 ar 
    15   11   12 1  
    16   13   14 ar 
    17   14   15 1  
    18   15   16 1  
    19   16   17 1  
    20   17   18 1  
    21   18   19 1  
    22   18   20 1  
    23   20   21 1  
    24   20   36 1  
    25   21   22 1  
    26   22   23 ar 
    27   22   24 ar 
    28   23   27 ar 
    29   24   25 ar 
    30   25   26 ar 
    31   26   27 ar 
    32   27   28 1  
    33   28   29 1  
    34   29   30 1  
    35   30   31 1  
    36   31   32 1  
    37   32   33 1  
    38   33   34 1  
    39   34   35 2  
    40   34   36 am 
    41    1   37 1  
    42    1   38 1  
    43    2   39 1  
    44    2   40 1  
    45    3   41 1  
    46    3   42 1  
    47    5   43 1  
    48    5   44 1  
    49    8   45 1  
    50    9   46 1  
    51   11   47 1  
    52   11   48 1  
    53   12   49 1  
    54   12   50 1  
    55   12   51 1  
    56   13   52 1  
    57   15   53 1  
    58   16   54 1  
    59   16   55 1  
    60   17   56 1  
    61   17   57 1  
    62   18   58 1  
    63   19   59 1  
    64   20   60 1  
    65   21   61 1  
    66   21   62 1  
    67   23   63 1  
    68   24   64 1  
    69   25   65 1  
    70   26   66 1  
    71   28   67 1  
    72   28   68 1  
    73   29   69 1  
    74   29   70 1  
    75   30   71 1  
    76   30   72 1  
    77   31   73 1  
    78   31   74 1  
    79   32   75 1  
    80   32   76 1  
    81   33   77 1  
    82   33   78 1  
    83   36   79 1  
@<TRIPOS>SUBSTRUCTURE
     1 1R8         1

