### 
### Created by X-TOOL on Mon Sep 10 21:13:15 2018
### 

@<TRIPOS>MOLECULE
4ke1_ligand
   83    88     1     0     0
SMALL
GAST_HUCK


@<TRIPOS>ATOM
      1 C2         61.5320   46.1340    9.1980 C.3       1 1R6        -0.0194
      2 C3         61.3230   44.6630    8.8160 C.3       1 1R6        -0.0472
      3 C4         62.7340   44.3450    9.3440 C.3       1 1R6        -0.0194
      4 C1         63.0310   45.8480    9.3580 C.3       1 1R6         0.0955
      5 C19        63.8370   46.3040    8.1350 C.3       1 1R6         0.0316
      6 O1         63.5750   46.3350   10.5970 O.3       1 1R6        -0.3192
      7 C21        63.7990   47.6890   10.6690 C.ar      1 1R6         0.0917
      8 C22        63.9030   48.2700   11.9380 C.ar      1 1R6        -0.0458
      9 C23        64.1260   49.6410   12.0720 C.ar      1 1R6        -0.0758
     10 C24        64.2660   50.4390   10.9290 C.ar      1 1R6        -0.0605
     11 C26        64.5210   51.9420   11.0830 C.3       1 1R6        -0.0286
     12 C27        63.3020   52.7610   10.6650 C.3       1 1R6        -0.0570
     13 C25        64.1830   49.8630    9.6530 C.ar      1 1R6        -0.0617
     14 C20        63.9610   48.4820    9.5180 C.ar      1 1R6         0.0273
     15 C18        63.8410   47.8500    8.1100 C.3       1 1R6         0.0112
     16 N2         64.8740   48.3230    7.1720 N.4       1 1R6         0.2416
     17 C17        66.2800   48.0650    7.5560 C.3       1 1R6        -0.0032
     18 C16        67.1540   49.0640    6.7850 C.3       1 1R6         0.1191
     19 O2         66.6620   50.3840    7.0440 O.3       1 1R6        -0.3841
     20 C12        68.6220   49.0410    7.2460 C.3       1 1R6         0.0808
     21 C11        69.4450   50.1480    6.5540 C.3       1 1R6         0.0048
     22 C9         70.9620   49.9040    6.6780 C.ar      1 1R6        -0.0476
     23 C10        71.6920   49.4160    5.6000 C.ar      1 1R6        -0.0591
     24 C8         71.6110   50.1700    7.8800 C.ar      1 1R6        -0.0672
     25 C7         72.9860   49.9480    7.9890 C.ar      1 1R6        -0.0752
     26 C6         73.7130   49.4480    6.9110 C.ar      1 1R6        -0.0673
     27 C5         73.0690   49.1920    5.7040 C.ar      1 1R6        -0.0498
     28 C13        73.8530   48.6410    4.5070 C.3       1 1R6        -0.0207
     29 C14        74.1880   47.1510    4.6920 C.3       1 1R6        -0.0406
     30 C15        73.0500   46.2290    4.2540 C.3       1 1R6        -0.0204
     31 C34        73.1010   44.8830    5.0150 C.3       1 1R6         0.0736
     32 N3         71.8780   44.6900    5.8430 N.am      1 1R6        -0.1988
     33 C33        71.3060   45.7840    6.4860 C.2       1 1R6         0.0927
     34 C32        71.2730   43.4090    5.9950 C.2       1 1R6         0.2033
     35 O4         71.7440   42.4170    5.4390 O.2       1 1R6        -0.4184
     36 C31        70.1250   43.2570    6.7760 C.2       1 1R6        -0.0103
     37 C30        69.5620   44.3670    7.4040 C.2       1 1R6        -0.0580
     38 C29        70.1700   45.6180    7.2670 C.2       1 1R6         0.0709
     39 C28        69.5540   46.8520    7.8870 C.2       1 1R6         0.1842
     40 O3         69.3050   46.9530    9.0840 O.2       1 1R6        -0.4036
     41 N1         69.2190   47.7420    6.9470 N.am      1 1R6        -0.2841
     42 H1         61.0267   46.4376   10.1267 H         1 1R6         0.0297
     43 H2         61.2897   46.8491    8.3981 H         1 1R6         0.0297
     44 H3         61.1947   44.4902    7.7373 H         1 1R6         0.0267
     45 H4         60.5117   44.1642    9.3663 H         1 1R6         0.0267
     46 H5         63.3589   43.7653    8.6487 H         1 1R6         0.0297
     47 H6         62.7511   43.8697   10.3358 H         1 1R6         0.0297
     48 H7         63.3711   45.9177    7.2165 H         1 1R6         0.0371
     49 H8         64.8688   45.9299    8.2081 H         1 1R6         0.0371
     50 H9         63.8097   47.6508   12.8228 H         1 1R6         0.0505
     51 H10        64.1907   50.0873   13.0577 H         1 1R6         0.0472
     52 H11        65.3761   52.2262   10.4522 H         1 1R6         0.0402
     53 H12        64.7538   52.1592   12.1359 H         1 1R6         0.0402
     54 H13        63.5201   53.8321   10.7882 H         1 1R6         0.0249
     55 H14        62.4427   52.4871   11.2947 H         1 1R6         0.0249
     56 H15        63.0650   52.5540    9.6110 H         1 1R6         0.0249
     57 H16        64.2901   50.4833    8.7705 H         1 1R6         0.0469
     58 H17        62.8682   48.1697    7.7082 H         1 1R6         0.0992
     59 H18        64.7621   49.3195    7.0696 H         1 1R6         0.2029
     60 H19        64.7112   47.8737    6.2845 H         1 1R6         0.2029
     61 H20        66.5603   47.0354    7.2891 H         1 1R6         0.0840
     62 H21        66.4074   48.2108    8.6388 H         1 1R6         0.0840
     63 H22        67.1016   48.8382    5.7097 H         1 1R6         0.0672
     64 H23        67.1924   51.0164    6.5737 H         1 1R6         0.2101
     65 H24        68.6506   49.2066    8.3331 H         1 1R6         0.0604
     66 H25        69.2018   51.1146    7.0193 H         1 1R6         0.0448
     67 H26        69.1761   50.1763    5.4878 H         1 1R6         0.0448
     68 H27        71.1863   49.2058    4.6645 H         1 1R6         0.0494
     69 H28        71.0519   50.5479    8.7283 H         1 1R6         0.0499
     70 H29        73.4924   50.1671    8.9221 H         1 1R6         0.0582
     71 H30        74.7757   49.2591    7.0118 H         1 1R6         0.0499
     72 H31        74.7898   49.2078    4.4014 H         1 1R6         0.0425
     73 H32        73.2472   48.7610    3.5967 H         1 1R6         0.0425
     74 H33        74.3991   46.9677    5.7559 H         1 1R6         0.0288
     75 H34        75.0812   46.9148    4.0950 H         1 1R6         0.0288
     76 H35        73.1393   46.0354    3.1749 H         1 1R6         0.0296
     77 H36        72.0885   46.7220    4.4598 H         1 1R6         0.0296
     78 H37        73.9841   44.8739    5.6707 H         1 1R6         0.0653
     79 H38        73.1759   44.0613    4.2875 H         1 1R6         0.0653
     80 H39        71.7504   46.7722    6.3763 H         1 1R6         0.1354
     81 H40        69.6710   42.2742    6.8940 H         1 1R6         0.0412
     82 H41        68.6549   44.2601    7.9971 H         1 1R6         0.0675
     83 H42        69.3859   47.5060    5.9897 H         1 1R6         0.1837
@<TRIPOS>BOND
     1    1    2 1  
     2    1    4 1  
     3    2    3 1  
     4    3    4 1  
     5    4    5 1  
     6    4    6 1  
     7    5   15 1  
     8    6    7 1  
     9    7    8 ar 
    10    7   14 ar 
    11    8    9 ar 
    12    9   10 ar 
    13   10   11 1  
    14   10   13 ar 
    15   11   12 1  
    16   13   14 ar 
    17   14   15 1  
    18   15   16 1  
    19   16   17 1  
    20   17   18 1  
    21   18   19 1  
    22   18   20 1  
    23   20   21 1  
    24   20   41 1  
    25   21   22 1  
    26   22   23 ar 
    27   22   24 ar 
    28   23   27 ar 
    29   24   25 ar 
    30   25   26 ar 
    31   26   27 ar 
    32   27   28 1  
    33   28   29 1  
    34   29   30 1  
    35   30   31 1  
    36   31   32 1  
    37   32   33 1  
    38   32   34 am 
    39   33   38 2  
    40   34   35 2  
    41   34   36 1  
    42   36   37 2  
    43   37   38 1  
    44   38   39 1  
    45   39   40 2  
    46   39   41 am 
    47    1   42 1  
    48    1   43 1  
    49    2   44 1  
    50    2   45 1  
    51    3   46 1  
    52    3   47 1  
    53    5   48 1  
    54    5   49 1  
    55    8   50 1  
    56    9   51 1  
    57   11   52 1  
    58   11   53 1  
    59   12   54 1  
    60   12   55 1  
    61   12   56 1  
    62   13   57 1  
    63   15   58 1  
    64   16   59 1  
    65   16   60 1  
    66   17   61 1  
    67   17   62 1  
    68   18   63 1  
    69   19   64 1  
    70   20   65 1  
    71   21   66 1  
    72   21   67 1  
    73   23   68 1  
    74   24   69 1  
    75   25   70 1  
    76   26   71 1  
    77   28   72 1  
    78   28   73 1  
    79   29   74 1  
    80   29   75 1  
    81   30   76 1  
    82   30   77 1  
    83   31   78 1  
    84   31   79 1  
    85   33   80 1  
    86   36   81 1  
    87   37   82 1  
    88   41   83 1  
@<TRIPOS>SUBSTRUCTURE
     1 1R6         1

