### 
### Created by X-TOOL on Mon Sep 10 21:13:18 2018
### 

@<TRIPOS>MOLECULE
4keq_ligand
   19    20     1     0     0
SMALL
GAST_HUCK


@<TRIPOS>ATOM
      1 CAA         1.6850    6.9910  -12.7550 C.3       1 5PN        -0.0174
      2 CAI         0.6890    6.1920  -12.2000 C.ar      1 5PN         0.0505
      3 NAF        -0.5240    6.6840  -11.9340 N.ar      1 5PN        -0.3111
      4 CAD        -1.5050    5.8520  -11.3820 C.ar      1 5PN         0.0052
      5 CAK        -1.2190    4.5750  -11.1220 C.ar      1 5PN         0.0777
      6 CAH        -1.9450    3.5970  -10.6030 C.2       1 5PN         0.2608
      7 OAB        -3.0940    3.7900  -10.2170 O.2       1 5PN        -0.3608
      8 OAG        -1.2830    2.4170  -10.4970 O.3       1 5PN        -0.2642
      9 CAE         0.0190    2.7140  -11.0200 C.3       1 5PN         0.1165
     10 CAL        -0.0100    4.0670  -11.3840 C.ar      1 5PN         0.0506
     11 CAJ         0.9220    4.8580  -11.9070 C.ar      1 5PN         0.1257
     12 OAC         2.1480    4.3380  -12.1710 O.3       1 5PN        -0.3321
     13 H           2.5992    6.3948  -12.8924 H         1 5PN         0.0403
     14 H           1.8955    7.8351  -12.0819 H         1 5PN         0.0403
     15 H           1.3473    7.3742  -13.7292 H         1 5PN         0.0403
     16 H          -2.4927    6.2434  -11.1667 H         1 5PN         0.0741
     17 H           0.2303    2.0865  -11.8984 H         1 5PN         0.0790
     18 H           0.7877    2.5412  -10.2524 H         1 5PN         0.0790
     19 H           2.0611    3.6248  -12.7926 H         1 5PN         0.2456
@<TRIPOS>BOND
     1    1    2 1  
     2    2    3 ar 
     3    2   11 ar 
     4    3    4 ar 
     5    4    5 ar 
     6    5    6 1  
     7    5   10 ar 
     8    6    7 2  
     9    6    8 1  
    10    8    9 1  
    11    9   10 1  
    12   10   11 ar 
    13   11   12 1  
    14    1   13 1  
    15    1   14 1  
    16    1   15 1  
    17    4   16 1  
    18    9   17 1  
    19    9   18 1  
    20   12   19 1  
@<TRIPOS>SUBSTRUCTURE
     1 5PN         1

