### 
### Created by X-TOOL on Mon Sep 10 21:13:12 2018
### 

@<TRIPOS>MOLECULE
4kfp_ligand
   65    69     1     0     0
SMALL
GAST_HUCK


@<TRIPOS>ATOM
      1 C4         15.5550    4.8440    0.0430 C.ar      1 1R7        -0.0437
      2 C5         16.3210    5.6960    0.8090 C.ar      1 1R7        -0.0566
      3 C6         16.1860    7.0690    0.6840 C.ar      1 1R7        -0.0208
      4 C7         17.0690    7.9660    1.5190 C.3       1 1R7         0.0681
      5 C13        14.9810    9.1330    6.7640 C.ar      1 1R7        -0.0104
      6 C15        14.1240    9.4540    8.9640 C.ar      1 1R7         0.0113
      7 C17        13.1270   10.5530    7.1920 C.ar      1 1R7         0.0113
      8 C24        15.2300    4.6020   -4.0460 C.3       1 1R7         0.0102
      9 C28        14.1450    2.3810   -3.8010 C.3       1 1R7         0.0102
     10 C1         15.2900    7.5920   -0.2390 C.ar      1 1R7        -0.0566
     11 C2         14.5190    6.7340   -1.0080 C.ar      1 1R7        -0.0437
     12 C3         14.6480    5.3550   -0.8690 C.ar      1 1R7         0.0815
     13 N8         16.6610    8.1640    2.9080 N.am      1 1R7        -0.2363
     14 C9         15.6480    9.0070    3.1440 C.2       1 1R7         0.3680
     15 O10        15.1130    9.5440    2.2030 O.2       1 1R7        -0.3432
     16 N11        15.2400    9.2510    4.3910 N.am      1 1R7        -0.2155
     17 C12        15.8080    8.6620    5.6110 C.2       1 1R7         0.0470
     18 C14        15.0450    8.8560    8.1240 C.ar      1 1R7        -0.0336
     19 N16        13.2060   10.2690    8.4800 N.ar      1 1R7        -0.2967
     20 C18        14.0050    9.9950    6.2890 C.ar      1 1R7        -0.0022
     21 C19        14.1480   10.1440    4.7980 C.2       1 1R7         0.0458
     22 S20        13.6910    4.2210   -1.8290 S.o2      1 1R7        -0.0028
     23 O21        13.3060    3.2190   -0.8930 O.2       1 1R7        -0.1699
     24 O22        12.7030    4.9790   -2.5090 O.2       1 1R7        -0.1699
     25 C23        14.8340    3.5190   -3.0480 C.3       1 1R7         0.0907
     26 C25        16.1440    4.0030   -5.1230 C.3       1 1R7        -0.0299
     27 N26        15.4560    2.9150   -5.8350 N.4       1 1R7         0.2376
     28 C27        15.0860    1.8400   -4.8890 C.3       1 1R7        -0.0299
     29 C29        16.2950    2.3870   -6.9310 C.3       1 1R7        -0.0166
     30 C30        15.5560    1.2730   -7.6810 C.3       1 1R7         0.0139
     31 C31        16.4060    0.7880   -8.8660 C.3       1 1R7         0.0528
     32 O32        16.7250    1.8860   -9.7300 O.3       1 1R7        -0.3794
     33 C33        17.4710    2.9170   -9.0840 C.3       1 1R7         0.0528
     34 C34        16.6370    3.4950   -7.9330 C.3       1 1R7         0.0139
     35 H1         15.6631    3.7712    0.1551 H         1 1R7         0.0618
     36 H2         17.0352    5.2883    1.5153 H         1 1R7         0.0558
     37 H3         17.0982    8.9530    1.0343 H         1 1R7         0.0685
     38 H4         18.0791    7.5305    1.5252 H         1 1R7         0.0685
     39 H5         14.1563    9.2518   10.0285 H         1 1R7         0.0827
     40 H6         12.3606   11.2346    6.8410 H         1 1R7         0.0825
     41 H7         15.7639    5.4069   -3.5196 H         1 1R7         0.0335
     42 H8         14.3255    5.0109   -4.5201 H         1 1R7         0.0335
     43 H9         13.2227    2.7565   -4.2682 H         1 1R7         0.0335
     44 H10        13.8968    1.5733   -3.0968 H         1 1R7         0.0335
     45 H11        15.1939    8.6652   -0.3576 H         1 1R7         0.0558
     46 H12        13.8113    7.1395   -1.7220 H         1 1R7         0.0618
     47 H13        17.1222    7.6867    3.6560 H         1 1R7         0.1917
     48 H14        16.6732    8.0029    5.6656 H         1 1R7         0.0392
     49 H15        15.8005    8.1857    8.5178 H         1 1R7         0.0710
     50 H16        13.5572   10.7881    4.1484 H         1 1R7         0.0385
     51 H17        15.7304    3.1370   -2.5375 H         1 1R7         0.0543
     52 H18        17.0528    3.6063   -4.6469 H         1 1R7         0.0815
     53 H19        16.4197    4.7886   -5.8419 H         1 1R7         0.0815
     54 H20        14.6102    3.2864   -6.2384 H         1 1R7         0.2036
     55 H21        14.5785    1.0333   -5.4383 H         1 1R7         0.0815
     56 H22        15.9970    1.4447   -4.4159 H         1 1R7         0.0815
     57 H23        17.2251    1.9837   -6.5040 H         1 1R7         0.0853
     58 H24        14.5961    1.6592   -8.0545 H         1 1R7         0.0342
     59 H25        15.3715    0.4322   -6.9961 H         1 1R7         0.0342
     60 H26        15.8419    0.0324   -9.4323 H         1 1R7         0.0562
     61 H27        17.3372    0.3422   -8.4865 H         1 1R7         0.0562
     62 H28        17.7018    3.7129   -9.8073 H         1 1R7         0.0562
     63 H29        18.4079    2.4998   -8.6864 H         1 1R7         0.0562
     64 H30        17.2130    4.2821   -7.4244 H         1 1R7         0.0342
     65 H31        15.7070    3.9231   -8.3353 H         1 1R7         0.0342
@<TRIPOS>BOND
     1    1    2 ar 
     2   12    1 ar 
     3    2    3 ar 
     4    3    4 1  
     5   10    3 ar 
     6    4   13 1  
     7   17    5 2  
     8    5   18 ar 
     9   20    5 ar 
    10   18    6 ar 
    11   19    6 ar 
    12    7   19 ar 
    13   20    7 ar 
    14   25    8 1  
    15    8   26 1  
    16   25    9 1  
    17    9   28 1  
    18   11   10 ar 
    19   12   11 ar 
    20   22   12 1  
    21   13   14 am 
    22   14   15 2  
    23   14   16 am 
    24   16   17 1  
    25   16   21 1  
    26   21   20 2  
    27   22   23 2  
    28   22   24 2  
    29   22   25 1  
    30   26   27 1  
    31   27   28 1  
    32   27   29 1  
    33   29   30 1  
    34   29   34 1  
    35   30   31 1  
    36   31   32 1  
    37   32   33 1  
    38   33   34 1  
    39    1   35 1  
    40    2   36 1  
    41    4   37 1  
    42    4   38 1  
    43    6   39 1  
    44    7   40 1  
    45    8   41 1  
    46    8   42 1  
    47    9   43 1  
    48    9   44 1  
    49   10   45 1  
    50   11   46 1  
    51   13   47 1  
    52   17   48 1  
    53   18   49 1  
    54   21   50 1  
    55   25   51 1  
    56   26   52 1  
    57   26   53 1  
    58   27   54 1  
    59   28   55 1  
    60   28   56 1  
    61   29   57 1  
    62   30   58 1  
    63   30   59 1  
    64   31   60 1  
    65   31   61 1  
    66   33   62 1  
    67   33   63 1  
    68   34   64 1  
    69   34   65 1  
@<TRIPOS>SUBSTRUCTURE
     1 1R7         1

