### 
### Created by X-TOOL on Mon Sep 10 21:13:13 2018
### 

@<TRIPOS>MOLECULE
4kfq_ligand
   21    23     1     0     0
SMALL
GAST_HUCK


@<TRIPOS>ATOM
      1 OAA        26.2830   35.7100   49.9170 O.2       1 KFQ        -0.3704
      2 CAJ        26.5270   35.3740   48.7300 C.2       1 KFQ         0.2806
      3 CAN        26.6270   33.9680   48.3660 C.2       1 KFQ         0.2468
      4 NAG        26.4860   32.9380   49.1940 N.2       1 KFQ        -0.2450
      5 NAH        26.6680   31.8120   48.4640 N.2       1 KFQ        -0.2475
      6 CAK        26.9030   32.1760   47.2150 C.2       1 KFQ         0.2134
      7 SAB        27.1610   31.0040   45.9380 S.3       1 KFQ        -0.0549
      8 NAO        26.8840   33.5470   47.0930 N.pl3     1 KFQ        -0.1534
      9 CAM        27.0890   34.4600   46.0210 C.ar      1 KFQ         0.1309
     10 CAF        27.3530   34.0760   44.6950 C.ar      1 KFQ        -0.0379
     11 CAD        27.5250   35.0490   43.7260 C.ar      1 KFQ        -0.0804
     12 CAC        27.4250   36.4090   44.0770 C.ar      1 KFQ        -0.0815
     13 CAE        27.1520   36.7990   45.3800 C.ar      1 KFQ        -0.0428
     14 CAL        26.9780   35.8230   46.3660 C.ar      1 KFQ         0.1067
     15 NAI        26.7070   36.2160   47.6880 N.am      1 KFQ        -0.2264
     16 H1         27.3221   31.4868   45.0680 H         1 KFQ         0.1319
     17 H2         27.4213   33.0262   44.4334 H         1 KFQ         0.0543
     18 H3         27.7358   34.7654   42.7012 H         1 KFQ         0.0477
     19 H4         27.5641   37.1662   43.3139 H         1 KFQ         0.0523
     20 H5         27.0743   37.8506   45.6314 H         1 KFQ         0.0486
     21 H6         26.6422   37.1967   47.8724 H         1 KFQ         0.2272
@<TRIPOS>BOND
     1    1    2 2  
     2    2    3 1  
     3    2   15 am 
     4    3    4 2  
     5    3    8 1  
     6    4    5 1  
     7    5    6 2  
     8    6    7 1  
     9    6    8 1  
    10    8    9 1  
    11    9   10 ar 
    12    9   14 ar 
    13   10   11 ar 
    14   11   12 ar 
    15   12   13 ar 
    16   13   14 ar 
    17   14   15 1  
    18    7   16 1  
    19   10   17 1  
    20   11   18 1  
    21   12   19 1  
    22   13   20 1  
    23   15   21 1  
@<TRIPOS>SUBSTRUCTURE
     1 KFQ         1

