### 
### Created by X-TOOL on Mon Sep 10 21:13:17 2018
### 

@<TRIPOS>MOLECULE
4kif_ligand
   19    19     1     0     0
SMALL
GAST_HUCK


@<TRIPOS>ATOM
      1 C1          9.0970  101.9340  159.9540 C.2       1 PPY         0.1269
      2 O1          7.8420  102.0370  159.8100 O.co2     1 PPY        -0.5464
      3 O2          9.6210  102.3660  160.9790 O.co2     1 PPY        -0.5464
      4 C2         10.0350  101.3320  159.0030 C.2       1 PPY         0.1826
      5 O3          9.6660  100.9540  157.9320 O.2       1 PPY        -0.3548
      6 C3         11.4580  101.2120  159.5000 C.3       1 PPY         0.0638
      7 C1'        12.5240  100.4680  158.7300 C.ar      1 PPY        -0.0249
      8 C2'        13.6600  100.1020  159.4600 C.ar      1 PPY        -0.0579
      9 C3'        14.7170   99.4080  158.8580 C.ar      1 PPY        -0.0681
     10 C4'        14.6360   99.0610  157.5160 C.ar      1 PPY        -0.0684
     11 C5'        13.5110   99.4190  156.7820 C.ar      1 PPY        -0.0681
     12 C6'        12.4630  100.1220  157.3730 C.ar      1 PPY        -0.0579
     13 H          11.3981  100.7274  160.4857 H         1 PPY         0.0655
     14 H          11.8284  102.2409  159.6191 H         1 PPY         0.0655
     15 H          13.7232  100.3603  160.5109 H         1 PPY         0.0561
     16 H          15.5943   99.1430  159.4370 H         1 PPY         0.0600
     17 H          15.4445   98.5147  157.0439 H         1 PPY         0.0562
     18 H          13.4481   99.1473  155.7345 H         1 PPY         0.0600
     19 H          11.5985  100.4020  156.7819 H         1 PPY         0.0561
@<TRIPOS>BOND
     1    1    2 ar 
     2    1    3 ar 
     3    1    4 1  
     4    4    5 2  
     5    4    6 1  
     6    6    7 1  
     7    7    8 ar 
     8    7   12 ar 
     9    8    9 ar 
    10    9   10 ar 
    11   10   11 ar 
    12   11   12 ar 
    13    6   13 1  
    14    6   14 1  
    15    8   15 1  
    16    9   16 1  
    17   10   17 1  
    18   11   18 1  
    19   12   19 1  
@<TRIPOS>SUBSTRUCTURE
     1 PPY         1

