### 
### Created by X-TOOL on Mon Sep 10 21:13:18 2018
### 

@<TRIPOS>MOLECULE
4kij_ligand
   29    30     1     0     0
SMALL
GAST_HUCK


@<TRIPOS>ATOM
      1 OAD       -28.2990  -17.3430   53.0300 O.3       1 KIJ        -0.2114
      2 CAT       -28.7300  -18.0880   54.1120 C.ar      1 KIJ         0.3584
      3 CAP       -29.2640  -19.3810   53.9090 C.ar      1 KIJ         0.2491
      4 OAC       -29.3630  -19.8730   52.6480 O.3       1 KIJ        -0.3057
      5 CAJ       -29.6780  -20.1590   54.9780 C.ar      1 KIJ         0.0580
      6 CAQ       -29.5740  -19.6400   56.2560 C.ar      1 KIJ         0.0733
      7 CAN       -29.9940  -20.3880   57.3300 C.2       1 KIJ         0.0986
      8 OAB       -29.3230  -20.3850   58.3750 O.co2     1 KIJ        -0.5482
      9 OAA       -31.0410  -21.0590   57.2680 O.co2     1 KIJ        -0.5482
     10 CAL       -29.0590  -18.3650   56.4840 C.ar      1 KIJ         0.0872
     11 CAS       -28.6510  -17.5580   55.4240 C.ar      1 KIJ         0.3551
     12 OAM       -28.0960  -16.3010   55.6520 O.3       1 KIJ        -0.0985
     13 CAO       -28.7120  -15.0560   55.7960 C.ar      1 KIJ         0.2525
     14 CAK       -28.9340  -14.4260   57.0400 C.ar      1 KIJ         0.0728
     15 CAH       -29.0370  -14.3480   54.6540 C.ar      1 KIJ         0.0440
     16 CAG       -29.6100  -13.0830   54.7560 C.ar      1 KIJ        -0.0123
     17 CAI       -29.8480  -12.4800   55.9840 C.ar      1 KIJ         0.0082
     18 CAR       -29.5110  -13.1440   57.1470 C.ar      1 KIJ         0.1256
     19 NAU       -29.7980  -12.5350   58.3210 N.2       1 KIJ        -0.2055
     20 OAF       -30.3590  -11.0320   58.3680 O.2       1 KIJ        -0.4863
     21 OAE       -29.7420  -13.2630   59.5920 O.2       1 KIJ        -0.4863
     22 H         -29.0255  -17.2022   52.4343 H         1 KIJ         0.3279
     23 H         -28.4987  -19.9120   52.2558 H         1 KIJ         0.2552
     24 H         -30.0754  -21.1544   54.8162 H         1 KIJ         0.0970
     25 H         -28.9748  -17.9962   57.4999 H         1 KIJ         0.0762
     26 H         -28.6501  -14.9476   57.9469 H         1 KIJ         0.0960
     27 H         -28.8455  -14.7782   53.6776 H         1 KIJ         0.0924
     28 H         -29.8784  -12.5529   53.8493 H         1 KIJ         0.0753
     29 H         -30.2957  -11.4938   56.0294 H         1 KIJ         0.0998
@<TRIPOS>BOND
     1    1    2 1  
     2    2    3 ar 
     3    2   11 ar 
     4    3    4 1  
     5    3    5 ar 
     6    5    6 ar 
     7    6    7 1  
     8    6   10 ar 
     9    7    8 ar 
    10    7    9 ar 
    11   10   11 ar 
    12   11   12 1  
    13   12   13 1  
    14   13   14 ar 
    15   13   15 ar 
    16   14   18 ar 
    17   15   16 ar 
    18   16   17 ar 
    19   17   18 ar 
    20   18   19 1  
    21   19   20 2  
    22   19   21 2  
    23    1   22 1  
    24    4   23 1  
    25    5   24 1  
    26   10   25 1  
    27   14   26 1  
    28   15   27 1  
    29   16   28 1  
    30   17   29 1  
@<TRIPOS>SUBSTRUCTURE
     1 KIJ         1

