### 
### Created by X-TOOL on Mon Sep 10 21:13:13 2018
### 

@<TRIPOS>MOLECULE
4kil_ligand
   29    31     1     0     0
SMALL
GAST_HUCK


@<TRIPOS>ATOM
      1 F          11.1360   20.1050  -19.3420 F         1 1R5        -0.1827
      2 C10        11.0430   20.4370  -18.0450 C.ar      1 1R5         0.1332
      3 C9         11.2220   19.4810  -17.0580 C.ar      1 1R5        -0.0271
      4 C8         11.1390   19.8470  -15.7160 C.ar      1 1R5        -0.0556
      5 C11        10.7800   21.7500  -17.7110 C.ar      1 1R5        -0.0271
      6 C12        10.6910   22.1190  -16.3860 C.ar      1 1R5        -0.0556
      7 C7         10.8610   21.1670  -15.3950 C.ar      1 1R5        -0.0224
      8 C6         10.7710   21.6180  -13.9610 C.ar      1 1R5        -0.0227
      9 C5         10.2510   20.7800  -12.9770 C.ar      1 1R5        -0.0444
     10 C4         10.1890   21.2550  -11.6380 C.ar      1 1R5         0.0241
     11 N           9.6820   20.4230  -10.6800 N.ar      1 1R5        -0.2826
     12 C           9.5890   20.8160   -9.4340 C.ar      1 1R5         0.1977
     13 O           9.0600   19.9670   -8.4670 O.3       1 1R5        -0.3115
     14 C13        11.2450   22.8990  -13.6450 C.ar      1 1R5        -0.0570
     15 C14        11.1860   23.3620  -12.3380 C.ar      1 1R5        -0.0567
     16 C3         10.6450   22.5140  -11.3260 C.ar      1 1R5        -0.0131
     17 C2         10.5950   22.9900   -9.9680 C.ar      1 1R5        -0.0126
     18 C1         10.0420   22.0840   -9.0360 C.ar      1 1R5         0.1521
     19 O1          9.9520   22.4440   -7.6950 O.3       1 1R5        -0.3260
     20 H1         11.4260   18.4514  -17.3290 H         1 1R5         0.0606
     21 H2         11.2895   19.1108  -14.9347 H         1 1R5         0.0615
     22 H3         10.6435   22.4908  -18.4905 H         1 1R5         0.0606
     23 H4         10.4887   23.1504  -16.1208 H         1 1R5         0.0615
     24 H5          9.9005   19.7852  -13.2272 H         1 1R5         0.0598
     25 H6          9.0657   20.4059   -7.6245 H         1 1R5         0.2546
     26 H7         11.6587   23.5296  -14.4237 H         1 1R5         0.0603
     27 H8         11.5458   24.3539  -12.0895 H         1 1R5         0.0610
     28 H9         10.9553   23.9715   -9.6819 H         1 1R5         0.0618
     29 H10         9.5608   21.7319   -7.2027 H         1 1R5         0.2483
@<TRIPOS>BOND
     1    1    2 1  
     2    2    3 ar 
     3    2    5 ar 
     4    3    4 ar 
     5    4    7 ar 
     6    5    6 ar 
     7    6    7 ar 
     8    7    8 1  
     9    8    9 ar 
    10    8   14 ar 
    11    9   10 ar 
    12   10   11 ar 
    13   10   16 ar 
    14   11   12 ar 
    15   12   13 1  
    16   12   18 ar 
    17   14   15 ar 
    18   15   16 ar 
    19   16   17 ar 
    20   17   18 ar 
    21   18   19 1  
    22    3   20 1  
    23    4   21 1  
    24    5   22 1  
    25    6   23 1  
    26    9   24 1  
    27   13   25 1  
    28   14   26 1  
    29   15   27 1  
    30   17   28 1  
    31   19   29 1  
@<TRIPOS>SUBSTRUCTURE
     1 1R5         1

