### 
### Created by X-TOOL on Mon Sep 10 21:13:14 2018
### 

@<TRIPOS>MOLECULE
4kin_ligand
   47    50     1     0     0
SMALL
GAST_HUCK


@<TRIPOS>ATOM
      1 C1          1.9350   -2.2880   -4.5670 C.ar      1 1M8        -0.0278
      2 C2          2.5630   -1.3860   -5.4230 C.ar      1 1M8         0.0292
      3 C3          1.8940   -0.9770   -6.5740 C.ar      1 1M8        -0.0638
      4 C4          0.6300   -1.4650   -6.8620 C.ar      1 1M8        -0.0675
      5 C5         -0.0110   -2.3840   -6.0280 C.ar      1 1M8        -0.0192
      6 C6          0.6750   -2.7970   -4.8740 C.ar      1 1M8         0.0735
      7 C7         -1.3640   -2.9500   -6.3920 C.3       1 1M8        -0.0327
      8 N8          0.0780   -3.7400   -4.0070 N.am      1 1M8        -0.2366
      9 C9          3.9480   -0.9800   -5.0120 C.2       1 1M8         0.1967
     10 N10         4.4850    0.1040   -5.6110 N.am      1 1M8        -0.2842
     11 O11         4.5560   -1.6220   -4.1520 O.2       1 1M8        -0.3878
     12 C12         5.8350    0.5860   -5.3070 C.3       1 1M8         0.0416
     13 C13         6.9820   -0.3270   -5.5760 C.3       1 1M8        -0.0279
     14 C14         6.7600    0.8710   -6.4400 C.3       1 1M8        -0.0279
     15 C15        -0.5340   -3.4010   -2.8640 C.2       1 1M8         0.2343
     16 C16        -1.0450   -4.5230   -2.0600 C.2       1 1M8         0.1069
     17 C17        -0.8780   -5.8990   -2.0650 C.2       1 1M8        -0.0507
     18 C18        -1.5210   -6.5380   -0.9900 C.2       1 1M8        -0.0569
     19 C19        -2.1670   -5.6570   -0.1390 C.2       1 1M8         0.0429
     20 S20        -1.9610   -4.0240   -0.6830 S.3       1 1M8        -0.0201
     21 O21        -0.5920   -2.2440   -2.4240 O.2       1 1M8        -0.3800
     22 C22        -2.9390   -5.9150    1.0910 C.ar      1 1M8         0.0080
     23 C23        -4.2410   -5.4220    1.1950 C.ar      1 1M8        -0.0530
     24 C24        -4.9890   -5.6430    2.3440 C.ar      1 1M8        -0.0616
     25 C25        -4.4560   -6.3580    3.3970 C.ar      1 1M8        -0.0617
     26 C26        -3.1600   -6.8410    3.3250 C.ar      1 1M8        -0.0478
     27 C27        -2.4120   -6.6080    2.1790 C.ar      1 1M8         0.0489
     28 CL1        -0.7760   -7.1620    2.1470 Cl        1 1M8        -0.0694
     29 H1          2.4311   -2.5966   -3.6539 H         1 1M8         0.0529
     30 H2          2.3656   -0.2720   -7.2490 H         1 1M8         0.0525
     31 H3          0.1248   -1.1246   -7.7586 H         1 1M8         0.0527
     32 H4         -1.7145   -2.4894   -7.3274 H         1 1M8         0.0372
     33 H5         -2.0807   -2.7341   -5.5860 H         1 1M8         0.0372
     34 H6         -1.2817   -4.0385   -6.5277 H         1 1M8         0.0372
     35 H7          0.1140   -4.7072   -4.2587 H         1 1M8         0.2224
     36 H8          3.9401    0.5975   -6.2889 H         1 1M8         0.1846
     37 H9          5.8227    1.2300   -4.4153 H         1 1M8         0.0555
     38 H10         6.8005   -1.3353   -5.9764 H         1 1M8         0.0288
     39 H11         7.8366   -0.3555   -4.8840 H         1 1M8         0.0288
     40 H12         7.4511    1.7250   -6.3845 H         1 1M8         0.0288
     41 H13         6.4150    0.7452   -7.4769 H         1 1M8         0.0288
     42 H14        -0.3069   -6.4311   -2.8243 H         1 1M8         0.0528
     43 H15        -1.5119   -7.6168   -0.8417 H         1 1M8         0.0471
     44 H16        -4.6714   -4.8623    0.3725 H         1 1M8         0.0621
     45 H17        -5.9974   -5.2516    2.4141 H         1 1M8         0.0617
     46 H18        -5.0532   -6.5421    4.2828 H         1 1M8         0.0613
     47 H19        -2.7345   -7.3947    4.1541 H         1 1M8         0.0622
@<TRIPOS>BOND
     1    1    2 ar 
     2    1    6 ar 
     3    2    3 ar 
     4    2    9 1  
     5    3    4 ar 
     6    4    5 ar 
     7    5    6 ar 
     8    5    7 1  
     9    6    8 1  
    10    8   15 am 
    11    9   10 am 
    12    9   11 2  
    13   10   12 1  
    14   12   13 1  
    15   12   14 1  
    16   13   14 1  
    17   15   16 1  
    18   15   21 2  
    19   16   17 2  
    20   16   20 1  
    21   17   18 1  
    22   18   19 2  
    23   19   20 1  
    24   19   22 1  
    25   22   23 ar 
    26   22   27 ar 
    27   23   24 ar 
    28   24   25 ar 
    29   25   26 ar 
    30   26   27 ar 
    31   27   28 1  
    32    1   29 1  
    33    3   30 1  
    34    4   31 1  
    35    7   32 1  
    36    7   33 1  
    37    7   34 1  
    38    8   35 1  
    39   10   36 1  
    40   12   37 1  
    41   13   38 1  
    42   13   39 1  
    43   14   40 1  
    44   14   41 1  
    45   17   42 1  
    46   18   43 1  
    47   23   44 1  
    48   24   45 1  
    49   25   46 1  
    50   26   47 1  
@<TRIPOS>SUBSTRUCTURE
     1 1M8         1

