### 
### Created by X-TOOL on Mon Sep 10 21:13:13 2018
### 

@<TRIPOS>MOLECULE
4kio_ligand
   60    64     1     0     0
SMALL
GAST_HUCK


@<TRIPOS>ATOM
      1 C1         13.8100   11.9900    5.2610 C.2       1 G5K        -0.0786
      2 C2         12.6590   11.8790    4.6030 C.2       1 G5K         0.0083
      3 C3         12.7590   11.9710    3.1270 C.2       1 G5K         0.1978
      4 O4         13.8370   12.1430    2.5800 O.2       1 G5K        -0.3875
      5 N5         11.5910   11.8610    2.4200 N.am      1 G5K        -0.2714
      6 C6         11.4680   11.9110    0.9800 C.3       1 G5K         0.0354
      7 C7         10.0040   11.6640    0.7280 C.3       1 G5K        -0.0073
      8 C8          9.6250   10.9330    1.9700 C.3       1 G5K         0.0636
      9 C9         10.3450   11.6640    3.0460 C.3       1 G5K         0.0564
     10 N10         8.2310   10.9450    2.2460 N.pl3     1 G5K        -0.2884
     11 C11         7.3980   10.0220    1.7850 C.ar      1 G5K         0.1672
     12 N12         6.1540   10.1150    2.2700 N.ar      1 G5K        -0.2670
     13 C13         5.3000    9.2170    1.7890 C.ar      1 G5K         0.0625
     14 C14         3.8580    9.2490    2.2410 C.3       1 G5K         0.0166
     15 N15         3.6650    9.5230    3.6500 N.4       1 G5K         0.2536
     16 C16         4.2660    8.4640    4.4890 C.3       1 G5K        -0.0060
     17 C17         3.7340    8.4620    5.9250 C.3       1 G5K         0.0878
     18 O18         2.3010    8.4250    5.9610 O.3       1 G5K        -0.3693
     19 C19         1.8360    9.6160    5.3000 C.3       1 G5K         0.0878
     20 C20         2.2070    9.5660    3.8240 C.3       1 G5K        -0.0060
     21 C21         5.7360    8.2700    0.8740 C.ar      1 G5K         0.0048
     22 C22         7.0470    8.2540    0.4510 C.ar      1 G5K         0.1362
     23 N23         7.5310    7.2870   -0.4990 N.pl3     1 G5K        -0.2133
     24 C24         8.6830    7.2040   -1.1610 C.2       1 G5K         0.2153
     25 N25         8.9730    6.2380   -2.0000 N.2       1 G5K        -0.2906
     26 C26        10.2410    6.4530   -2.4930 C.ar      1 G5K         0.0415
     27 C27        10.9520    5.6760   -3.3830 C.ar      1 G5K        -0.0429
     28 C28        12.2370    6.0950   -3.7330 C.ar      1 G5K        -0.0475
     29 C29        12.8010    7.2370   -3.2230 C.ar      1 G5K        -0.0029
     30 N30        12.1170    7.9820   -2.3570 N.ar      1 G5K        -0.2915
     31 C31        10.8850    7.5820   -2.0180 C.ar      1 G5K         0.1213
     32 S32         9.8910    8.4240   -0.9110 S.3       1 G5K         0.0537
     33 N33         7.9280    9.1460    0.8930 N.ar      1 G5K        -0.2448
     34 H1         13.8232   11.9333    6.3484 H         1 G5K         0.0687
     35 H2         14.7389   12.1376    4.7121 H         1 G5K         0.0687
     36 H3         11.7087   11.7307    5.1137 H         1 G5K         0.0692
     37 H4         12.0826   11.1302    0.5082 H         1 G5K         0.0522
     38 H5         11.7694   12.8968    0.5963 H         1 G5K         0.0522
     39 H6          9.8463   11.0468   -0.1688 H         1 G5K         0.0308
     40 H7          9.4461   12.6066    0.6272 H         1 G5K         0.0308
     41 H8          9.9661    9.8890    1.9090 H         1 G5K         0.0581
     42 H9          9.8551   12.6185    3.2887 H         1 G5K         0.0544
     43 H10        10.4386   11.0574    3.9588 H         1 G5K         0.0544
     44 H11         7.8511   11.7039    2.8297 H         1 G5K         0.1863
     45 H12         3.4088    8.2697    2.0190 H         1 G5K         0.1029
     46 H13         3.3375   10.0298    1.6670 H         1 G5K         0.1029
     47 H14         4.0750   10.4108    3.8943 H         1 G5K         0.2054
     48 H15         5.3549    8.6168    4.5192 H         1 G5K         0.0837
     49 H16         4.0452    7.4879    4.0324 H         1 G5K         0.0837
     50 H17         4.0797    9.3737    6.4342 H         1 G5K         0.0613
     51 H18         4.1264    7.5781    6.4491 H         1 G5K         0.0613
     52 H19         2.3031   10.4971    5.7641 H         1 G5K         0.0613
     53 H20         0.7427    9.6855    5.3994 H         1 G5K         0.0613
     54 H21         1.7638    8.6665    3.3718 H         1 G5K         0.0837
     55 H22         1.8109   10.4615    3.3228 H         1 G5K         0.0837
     56 H23         5.0384    7.5355    0.4881 H         1 G5K         0.0520
     57 H24         6.8691    6.5245   -0.7026 H         1 G5K         0.2319
     58 H25        10.5269    4.7691   -3.7976 H         1 G5K         0.0663
     59 H26        12.8095    5.4967   -4.4326 H         1 G5K         0.0635
     60 H27        13.7998    7.5317   -3.5240 H         1 G5K         0.0744
@<TRIPOS>BOND
     1    1    2 2  
     2    2    3 1  
     3    3    4 2  
     4    3    5 am 
     5    5    6 1  
     6    5    9 1  
     7    6    7 1  
     8    7    8 1  
     9    8    9 1  
    10    8   10 1  
    11   10   11 1  
    12   11   12 ar 
    13   11   33 ar 
    14   12   13 ar 
    15   13   14 1  
    16   13   21 ar 
    17   14   15 1  
    18   15   16 1  
    19   15   20 1  
    20   16   17 1  
    21   17   18 1  
    22   18   19 1  
    23   19   20 1  
    24   21   22 ar 
    25   22   23 1  
    26   22   33 ar 
    27   23   24 1  
    28   24   25 2  
    29   24   32 1  
    30   25   26 1  
    31   26   27 ar 
    32   26   31 ar 
    33   27   28 ar 
    34   28   29 ar 
    35   29   30 ar 
    36   30   31 ar 
    37   31   32 1  
    38    1   34 1  
    39    1   35 1  
    40    2   36 1  
    41    6   37 1  
    42    6   38 1  
    43    7   39 1  
    44    7   40 1  
    45    8   41 1  
    46    9   42 1  
    47    9   43 1  
    48   10   44 1  
    49   14   45 1  
    50   14   46 1  
    51   15   47 1  
    52   16   48 1  
    53   16   49 1  
    54   17   50 1  
    55   17   51 1  
    56   19   52 1  
    57   19   53 1  
    58   20   54 1  
    59   20   55 1  
    60   21   56 1  
    61   23   57 1  
    62   27   58 1  
    63   28   59 1  
    64   29   60 1  
@<TRIPOS>SUBSTRUCTURE
     1 G5K         1

