### 
### Created by X-TOOL on Mon Sep 10 21:13:16 2018
### 

@<TRIPOS>MOLECULE
4kip_ligand
   44    47     1     0     0
SMALL
GAST_HUCK


@<TRIPOS>ATOM
      1 C1         38.8660    2.7110   32.6030 C.ar      1 1R9        -0.0192
      2 C2         37.5410    3.1540   32.8340 C.ar      1 1R9         0.0736
      3 C3         36.4800    2.6370   32.0910 C.ar      1 1R9        -0.0278
      4 C4         36.6950    1.6380   31.1450 C.ar      1 1R9         0.0292
      5 C5         37.9920    1.1720   30.9360 C.ar      1 1R9        -0.0637
      6 C6         39.0520    1.7070   31.6480 C.ar      1 1R9        -0.0675
      7 C7         40.0490    3.3300   33.3080 C.3       1 1R9        -0.0327
      8 C8         35.4970    1.1610   30.3850 C.2       1 1R9         0.1972
      9 N9         35.7000    0.1740   29.4940 N.am      1 1R9        -0.2771
     10 O10        34.3980    1.6850   30.5560 O.2       1 1R9        -0.3878
     11 C11        34.6210   -0.4600   28.7360 C.3       1 1R9         0.0782
     12 C12        34.8920   -0.8590   27.3460 C.2       1 1R9        -0.0568
     13 C13        34.0070    0.2860   27.6270 C.2       1 1R9        -0.0568
     14 C14        36.6610    3.7220   35.0750 C.2       1 1R9         0.2374
     15 C15        36.4170    4.8480   36.0080 C.2       1 1R9         0.1258
     16 C16        36.6250    6.1950   35.9590 C.2       1 1R9         0.0111
     17 N17        36.2510    6.9120   37.0650 N.2       1 1R9        -0.2983
     18 C18        35.7350    6.1090   38.0010 C.2       1 1R9         0.1184
     19 S19        35.6890    4.4300   37.5280 S.3       1 1R9         0.0120
     20 C20        35.2810    6.5950   39.3110 C.ar      1 1R9         0.0378
     21 C21        36.2210    7.0060   40.2590 C.ar      1 1R9        -0.0446
     22 C22        35.8230    7.3840   41.5350 C.ar      1 1R9        -0.0565
     23 C23        34.4880    7.3590   41.8830 C.ar      1 1R9        -0.0573
     24 C24        33.5340    6.9660   40.9590 C.ar      1 1R9        -0.0426
     25 C25        33.9350    6.6010   39.6780 C.ar      1 1R9         0.0577
     26 N26        37.2630    4.0460   33.9020 N.am      1 1R9        -0.2361
     27 O27        36.2810    2.5820   35.3520 O.2       1 1R9        -0.3788
     28 CL1        32.7060    6.2040   38.5230 Cl        1 1R9        -0.0646
     29 H1         35.4775    3.0168   32.2516 H         1 1R9         0.0529
     30 H2         38.1718    0.3859   30.2116 H         1 1R9         0.0525
     31 H3         40.0535    1.3373   31.4599 H         1 1R9         0.0527
     32 H4         39.6953    4.0941   34.0158 H         1 1R9         0.0372
     33 H5         40.7144    3.7968   32.5669 H         1 1R9         0.0372
     34 H6         40.5991    2.5501   33.8550 H         1 1R9         0.0372
     35 H7         36.6363   -0.1427   29.3419 H         1 1R9         0.1852
     36 H8         34.0078   -1.0921   29.3952 H         1 1R9         0.0645
     37 H9         35.3850   -1.5176   26.6325 H         1 1R9         0.0596
     38 H10        33.3673    1.0930   27.2729 H         1 1R9         0.0596
     39 H11        37.0653    6.6755   35.0865 H         1 1R9         0.0708
     40 H12        37.2724    7.0302   39.9961 H         1 1R9         0.0665
     41 H13        36.5641    7.6999   42.2603 H         1 1R9         0.0630
     42 H14        34.1849    7.6479   42.8829 H         1 1R9         0.0651
     43 H15        32.4850    6.9431   41.2314 H         1 1R9         0.0634
     44 H16        37.5354    5.0004   33.7795 H         1 1R9         0.2225
@<TRIPOS>BOND
     1    2    1 ar 
     2    1    6 ar 
     3    1    7 1  
     4    2    3 ar 
     5   26    2 1  
     6    3    4 ar 
     7    4    5 ar 
     8    4    8 1  
     9    6    5 ar 
    10    8    9 am 
    11    8   10 2  
    12    9   11 1  
    13   11   12 1  
    14   11   13 1  
    15   13   12 2  
    16   14   15 1  
    17   14   26 am 
    18   14   27 2  
    19   15   16 2  
    20   15   19 1  
    21   16   17 1  
    22   17   18 2  
    23   18   19 1  
    24   18   20 1  
    25   20   21 ar 
    26   20   25 ar 
    27   21   22 ar 
    28   22   23 ar 
    29   23   24 ar 
    30   24   25 ar 
    31   25   28 1  
    32    3   29 1  
    33    5   30 1  
    34    6   31 1  
    35    7   32 1  
    36    7   33 1  
    37    7   34 1  
    38    9   35 1  
    39   11   36 1  
    40   12   37 1  
    41   13   38 1  
    42   16   39 1  
    43   21   40 1  
    44   22   41 1  
    45   23   42 1  
    46   24   43 1  
    47   26   44 1  
@<TRIPOS>SUBSTRUCTURE
     1 1R9         1

