### 
### Created by X-TOOL on Mon Sep 10 21:13:14 2018
### 

@<TRIPOS>MOLECULE
4kiq_ligand
   51    54     1     0     0
SMALL
GAST_HUCK


@<TRIPOS>ATOM
      1 C1          0.0020   -4.1130   -6.4740 C.ar      1 1RA        -0.0192
      2 N10         4.0970   -1.1620   -5.5960 N.am      1 1RA        -0.2771
      3 C11         5.3060   -0.4850   -5.1310 C.3       1 1RA         0.0782
      4 C12         6.1860    0.1430   -6.1320 C.2       1 1RA        -0.0568
      5 C13         6.6030   -1.0960   -5.4470 C.2       1 1RA        -0.0568
      6 N14        -0.0420   -5.3970   -4.3880 N.am      1 1RA        -0.2367
      7 C16        -0.5690   -5.1570   -3.1630 C.2       1 1RA         0.2214
      8 O17        -0.7480   -4.0220   -2.7210 O.2       1 1RA        -0.3786
      9 C18        -0.8730   -6.3670   -2.3340 C.ar      1 1RA         0.0389
     10 C19        -1.7220   -6.2010   -1.2400 C.ar      1 1RA        -0.0186
     11 C2          0.5640   -4.4250   -5.2160 C.ar      1 1RA         0.0738
     12 C20        -0.5550   -8.6850   -1.7300 C.ar      1 1RA        -0.0739
     13 C21        -0.2940   -7.6170   -2.5720 C.ar      1 1RA        -0.0621
     14 C22        -1.4000   -8.5310   -0.6230 C.ar      1 1RA        -0.0240
     15 C23        -1.9830   -7.2710   -0.3860 C.ar      1 1RA         0.1037
     16 N24        -2.7410   -7.3710    0.7930 N.am      1 1RA        -0.1490
     17 C25        -2.6210   -8.6740    1.2640 C.2       1 1RA         0.0572
     18 C26        -1.8260   -9.3970    0.4390 C.2       1 1RA        -0.0619
     19 C27        -3.5440   -6.3820    1.4350 C.2       1 1RA         0.3986
     20 O28        -4.1130   -6.5780    2.4780 O.2       1 1RA        -0.3442
     21 O29        -3.5860   -5.2280    0.7600 O.3       1 1RA        -0.2498
     22 C3          1.6960   -3.7620   -4.7580 C.ar      1 1RA        -0.0277
     23 C30        -4.2350   -4.1010    1.4250 C.3       1 1RA         0.0762
     24 C31        -3.8860   -2.9260    0.6430 C.3       1 1RA        -0.0371
     25 C4          2.3130   -2.7920   -5.5430 C.ar      1 1RA         0.0292
     26 C5          1.7620   -2.4660   -6.7820 C.ar      1 1RA        -0.0637
     27 C6          0.6320   -3.1250   -7.2360 C.ar      1 1RA        -0.0675
     28 C7         -1.2520   -4.7830   -6.9680 C.3       1 1RA        -0.0327
     29 C8          3.5910   -2.2510   -4.9930 C.2       1 1RA         0.1972
     30 O9          4.1230   -2.7790   -4.0200 O.2       1 1RA        -0.3878
     31 H1          3.6251   -0.7983   -6.3992 H         1 1RA         0.1852
     32 H2          5.1298   -0.0057   -4.1567 H         1 1RA         0.0645
     33 H3          6.3836    0.9376   -6.8499 H         1 1RA         0.0596
     34 H4          7.3363   -1.8857   -5.2905 H         1 1RA         0.0596
     35 H5         -0.0852   -6.3346   -4.7330 H         1 1RA         0.2228
     36 H6         -2.1804   -5.2366   -1.0533 H         1 1RA         0.0606
     37 H7         -0.1013   -9.6491   -1.9292 H         1 1RA         0.0533
     38 H8          0.3646   -7.7513   -3.4225 H         1 1RA         0.0543
     39 H9         -3.0970   -9.0575    2.1652 H         1 1RA         0.0974
     40 H10        -1.5586  -10.4457    0.5599 H         1 1RA         0.0253
     41 H11         2.1018   -4.0020   -3.7819 H         1 1RA         0.0529
     42 H12        -3.8645   -3.9992    2.4557 H         1 1RA         0.0610
     43 H13        -5.3259   -4.2413    1.4397 H         1 1RA         0.0610
     44 H14        -4.3472   -2.0351    1.0941 H         1 1RA         0.0255
     45 H15        -4.2541   -3.0480   -0.3864 H         1 1RA         0.0255
     46 H16        -2.7927   -2.8059    0.6296 H         1 1RA         0.0255
     47 H17         2.2195   -1.6948   -7.3911 H         1 1RA         0.0525
     48 H18         0.2255   -2.8680   -8.2075 H         1 1RA         0.0527
     49 H19        -1.5874   -5.5246   -6.2280 H         1 1RA         0.0372
     50 H20        -1.0465   -5.2863   -7.9242 H         1 1RA         0.0372
     51 H21        -2.0386   -4.0278   -7.1127 H         1 1RA         0.0372
@<TRIPOS>BOND
     1   11    1 ar 
     2    1   27 ar 
     3    1   28 1  
     4    2    3 1  
     5   29    2 am 
     6    3    4 1  
     7    3    5 1  
     8    5    4 2  
     9    6    7 am 
    10   11    6 1  
    11    7    8 2  
    12    7    9 1  
    13    9   10 ar 
    14    9   13 ar 
    15   10   15 ar 
    16   22   11 ar 
    17   13   12 ar 
    18   12   14 ar 
    19   15   14 ar 
    20   14   18 1  
    21   15   16 1  
    22   16   17 1  
    23   16   19 am 
    24   18   17 2  
    25   19   20 2  
    26   19   21 1  
    27   21   23 1  
    28   25   22 ar 
    29   23   24 1  
    30   25   26 ar 
    31   25   29 1  
    32   26   27 ar 
    33   29   30 2  
    34    2   31 1  
    35    3   32 1  
    36    4   33 1  
    37    5   34 1  
    38    6   35 1  
    39   10   36 1  
    40   12   37 1  
    41   13   38 1  
    42   17   39 1  
    43   18   40 1  
    44   22   41 1  
    45   23   42 1  
    46   23   43 1  
    47   24   44 1  
    48   24   45 1  
    49   24   46 1  
    50   26   47 1  
    51   27   48 1  
    52   28   49 1  
    53   28   50 1  
    54   28   51 1  
@<TRIPOS>SUBSTRUCTURE
     1 1RA         1

