### 
### Created by X-TOOL on Mon Sep 10 21:13:18 2018
### 

@<TRIPOS>MOLECULE
4kiu_ligand
   32    33     1     0     0
SMALL
GAST_HUCK


@<TRIPOS>ATOM
      1 OAA        -1.5700   32.7120   76.2420 O.co2     1 KIU        -0.5607
      2 CAP        -2.2680   33.7170   76.5090 C.2       1 KIU         0.0610
      3 OAC        -2.5860   34.5360   75.6120 O.co2     1 KIU        -0.5607
      4 CAT        -2.6610   33.9470   77.8100 C.ar      1 KIU         0.0051
      5 CAJ        -3.3770   35.1060   78.0620 C.ar      1 KIU        -0.0163
      6 CAM        -2.3270   33.0420   78.8210 C.ar      1 KIU        -0.0445
      7 CAU        -2.7140   33.3180   80.1250 C.ar      1 KIU         0.0051
      8 CAQ        -2.4300   32.4280   81.1590 C.2       1 KIU         0.0610
      9 OAD        -2.4460   31.2010   80.8920 O.co2     1 KIU        -0.5607
     10 OAB        -2.2200   32.8400   82.3380 O.co2     1 KIU        -0.5607
     11 CAK        -3.4350   34.4810   80.3750 C.ar      1 KIU        -0.0163
     12 CAS        -3.7690   35.3820   79.3570 C.ar      1 KIU         0.1006
     13 OAO        -4.4640   36.5420   79.6090 O.3       1 KIU        -0.3043
     14 CAN        -5.0870   36.4680   80.9010 C.3       1 KIU         0.1055
     15 CAR        -6.3770   35.9300   80.8090 C.ar      1 KIU        -0.0050
     16 CAL        -7.0470   35.6410   81.9910 C.ar      1 KIU        -0.0151
     17 CAH        -6.9970   35.7060   79.5680 C.ar      1 KIU        -0.0525
     18 CAG        -8.2880   35.1880   79.5060 C.ar      1 KIU        -0.0603
     19 CAI        -8.9540   34.9080   80.6930 C.ar      1 KIU        -0.0258
     20 CAV        -8.3270   35.1230   81.9200 C.ar      1 KIU         0.1931
     21 NAW        -8.9700   34.8690   83.0430 N.2       1 KIU         0.3131
     22 OAF        -8.7560   33.7480   83.7470 O.2       1 KIU         0.1781
     23 OAE        -9.8450   35.7700   83.5020 O.2       1 KIU         0.1781
     24 H          -3.6257   35.7857   77.2550 H         1 KIU         0.0595
     25 H          -1.7743   32.1385   78.5904 H         1 KIU         0.0591
     26 H          -3.7481   34.6964   81.3902 H         1 KIU         0.0595
     27 H          -5.1494   37.4797   81.3282 H         1 KIU         0.0779
     28 H          -4.4776   35.8297   81.5576 H         1 KIU         0.0779
     29 H          -6.5753   35.8182   82.9508 H         1 KIU         0.0630
     30 H          -6.4661   35.9383   78.6519 H         1 KIU         0.0601
     31 H          -8.7647   35.0065   78.5495 H         1 KIU         0.0614
     32 H          -9.9660   34.5205   80.6651 H         1 KIU         0.0634
@<TRIPOS>BOND
     1    1    2 ar 
     2    2    3 ar 
     3    2    4 1  
     4    4    5 ar 
     5    4    6 ar 
     6    5   12 ar 
     7    6    7 ar 
     8    7    8 1  
     9    7   11 ar 
    10    8    9 ar 
    11    8   10 ar 
    12   11   12 ar 
    13   12   13 1  
    14   13   14 1  
    15   14   15 1  
    16   15   16 ar 
    17   15   17 ar 
    18   16   20 ar 
    19   17   18 ar 
    20   18   19 ar 
    21   19   20 ar 
    22   20   21 1  
    23   21   22 2  
    24   21   23 2  
    25    5   24 1  
    26    6   25 1  
    27   11   26 1  
    28   14   27 1  
    29   14   28 1  
    30   16   29 1  
    31   17   30 1  
    32   18   31 1  
    33   19   32 1  
@<TRIPOS>SUBSTRUCTURE
     1 KIU         1

