### 
### Created by X-TOOL on Mon Sep 10 21:13:19 2018
### 

@<TRIPOS>MOLECULE
4kiw_ligand
   33    34     1     0     0
SMALL
GAST_HUCK


@<TRIPOS>ATOM
      1 OAA        15.7040   21.4650   72.1610 O.co2     1 KIW        -0.5607
      2 CAP        14.6030   21.7340   72.6770 C.2       1 KIW         0.0605
      3 OAC        14.2840   22.8610   73.0660 O.co2     1 KIW        -0.5607
      4 CAT        13.5450   20.6430   72.8760 C.ar      1 KIW         0.0020
      5 CAJ        12.9040   20.5560   74.1260 C.ar      1 KIW        -0.0277
      6 CAM        13.2140   19.7510   71.8410 C.ar      1 KIW        -0.0467
      7 CAU        12.2370   18.7740   72.0780 C.ar      1 KIW         0.0020
      8 CAQ        11.7850   17.7510   71.0240 C.2       1 KIW         0.0605
      9 OAD        11.0730   16.8040   71.4220 O.co2     1 KIW        -0.5607
     10 OAB        12.1080   17.9260   69.8280 O.co2     1 KIW        -0.5607
     11 CAK        11.6170   18.7050   73.3260 C.ar      1 KIW        -0.0277
     12 CAS        11.9320   19.5840   74.3510 C.ar      1 KIW         0.0465
     13 NAO        11.2810   19.4240   75.4990 N.pl3     1 KIW        -0.3107
     14 CAN        11.1630   20.4530   76.5390 C.3       1 KIW         0.0587
     15 CAR        12.0230   20.0700   77.7390 C.ar      1 KIW        -0.0139
     16 CAL        12.5240   21.0750   78.5440 C.ar      1 KIW        -0.0158
     17 CAH        12.3030   18.7340   78.0360 C.ar      1 KIW        -0.0531
     18 CAG        13.0900   18.3970   79.1390 C.ar      1 KIW        -0.0603
     19 CAI        13.5950   19.4120   79.9460 C.ar      1 KIW        -0.0258
     20 CAV        13.3100   20.7480   79.6400 C.ar      1 KIW         0.1930
     21 NAW        13.7630   21.7310   80.4130 N.2       1 KIW         0.3131
     22 OAF        13.9710   22.9630   79.8770 O.2       1 KIW         0.1781
     23 OAE        13.9490   21.5210   81.7560 O.2       1 KIW         0.1781
     24 H          13.1679   21.2485   74.9171 H         1 KIW         0.0568
     25 H          13.7054   19.8175   70.8771 H         1 KIW         0.0573
     26 H          10.8670   17.9418   73.4994 H         1 KIW         0.0568
     27 H          10.8280   18.5150   75.6705 H         1 KIW         0.1781
     28 H          10.1123   20.5365   76.8536 H         1 KIW         0.0675
     29 H          11.5036   21.4191   76.1382 H         1 KIW         0.0675
     30 H          12.3044   22.1128   78.3208 H         1 KIW         0.0630
     31 H          11.9046   17.9497   77.4027 H         1 KIW         0.0601
     32 H          13.3048   17.3585   79.3637 H         1 KIW         0.0614
     33 H          14.2063   19.1692   80.8077 H         1 KIW         0.0634
@<TRIPOS>BOND
     1    1    2 ar 
     2    2    3 ar 
     3    2    4 1  
     4    4    5 ar 
     5    4    6 ar 
     6    5   12 ar 
     7    6    7 ar 
     8    7    8 1  
     9    7   11 ar 
    10    8    9 ar 
    11    8   10 ar 
    12   11   12 ar 
    13   12   13 1  
    14   13   14 1  
    15   14   15 1  
    16   15   16 ar 
    17   15   17 ar 
    18   16   20 ar 
    19   17   18 ar 
    20   18   19 ar 
    21   19   20 ar 
    22   20   21 1  
    23   21   22 2  
    24   21   23 2  
    25    5   24 1  
    26    6   25 1  
    27   11   26 1  
    28   13   27 1  
    29   14   28 1  
    30   14   29 1  
    31   16   30 1  
    32   17   31 1  
    33   18   32 1  
    34   19   33 1  
@<TRIPOS>SUBSTRUCTURE
     1 KIW         1

