### 
### Created by X-TOOL on Mon Sep 10 21:13:13 2018
### 

@<TRIPOS>MOLECULE
4kju_ligand
   75    79     1     0     0
SMALL
GAST_HUCK


@<TRIPOS>ATOM
      1 C28        28.7790   29.4480   11.6380 C.3       1 1RH         0.0572
      2 O27        28.7590   30.9010   11.6220 O.3       1 1RH        -0.3263
      3 C26        29.1160   31.4850   12.7850 C.ar      1 1RH         0.0947
      4 C25        29.9090   30.8530   13.7510 C.ar      1 1RH        -0.0365
      5 C24        30.2270   31.5100   14.9310 C.ar      1 1RH        -0.0653
      6 C23        29.7350   32.8020   15.1620 C.ar      1 1RH        -0.0309
      7 C37        30.0500   33.4610   16.3410 C.ar      1 1RH        -0.0613
      8 C38        29.5610   34.7460   16.6420 C.ar      1 1RH        -0.0665
      9 C39        28.7580   35.3110   15.6860 C.ar      1 1RH        -0.0665
     10 C40        28.4640   34.7050   14.4750 C.ar      1 1RH        -0.0606
     11 C22        28.9350   33.4180   14.1700 C.ar      1 1RH        -0.0197
     12 C21        28.6160   32.7900   12.9740 C.ar      1 1RH         0.0208
     13 C20        27.7990   33.3530   11.9820 C.3       1 1RH         0.0847
     14 N11        28.5030   34.4290   11.1490 N.am      1 1RH        -0.2129
     15 C9         27.8800   35.6150   10.9440 C.2       1 1RH         0.2326
     16 O10        26.7500   35.8470   11.4610 O.2       1 1RH        -0.3835
     17 C7         28.4720   36.5760   10.0520 C.3       1 1RH         0.1613
     18 C15        29.6610   37.2680   10.6120 C.3       1 1RH         0.0928
     19 N6         27.4660   37.5310    9.6340 N.am      1 1RH        -0.2583
     20 C5         26.6750   37.4170    8.5810 C.2       1 1RH         0.2266
     21 O8         26.6320   36.4740    7.7690 O.2       1 1RH        -0.3907
     22 C3         25.6470   38.5280    8.4790 C.3       1 1RH         0.0637
     23 C4         24.4860   38.1470    9.5070 C.3       1 1RH        -0.0039
     24 N2         25.0950   38.5410    7.1320 N.4       1 1RH         0.2438
     25 C1         26.0520   39.0330    6.0730 C.3       1 1RH        -0.0428
     26 C12        29.7330   34.1860   10.6090 C.ar      1 1RH         0.0945
     27 C16        29.9800   32.9620    9.9530 C.ar      1 1RH        -0.0533
     28 C18        31.2460   32.7130    9.3820 C.ar      1 1RH        -0.0910
     29 C17        32.2520   33.6690    9.4450 C.ar      1 1RH        -0.0910
     30 C19        32.0160   34.8810   10.0600 C.ar      1 1RH        -0.0535
     31 C13        30.7460   35.1090   10.6700 C.ar      1 1RH         0.0924
     32 N14        30.6430   36.3390   11.1790 N.am      1 1RH        -0.2211
     33 C29        31.4830   36.9060   12.0710 C.2       1 1RH         0.2219
     34 O30        31.3130   38.0880   12.3770 O.2       1 1RH        -0.3809
     35 C31        32.4100   36.2050   12.8490 C.ar      1 1RH         0.0417
     36 C32        33.6120   36.8330   13.1700 C.ar      1 1RH        -0.0531
     37 C33        34.5240   36.1820   13.9980 C.ar      1 1RH        -0.0385
     38 C34        34.2280   34.9380   14.5230 C.ar      1 1RH         0.0407
     39 N41        35.1120   34.3250   15.3090 N.pl3     1 1RH        -0.3340
     40 C35        33.0220   34.3260   14.2100 C.ar      1 1RH        -0.0385
     41 C36        32.1300   34.9560   13.3840 C.ar      1 1RH        -0.0531
     42 H1         28.4752   29.0663   10.6521 H         1 1RH         0.0574
     43 H2         28.0811   29.0801   12.4046 H         1 1RH         0.0574
     44 H3         29.7958   29.0978   11.8693 H         1 1RH         0.0574
     45 H4         30.2753   29.8478   13.5763 H         1 1RH         0.0563
     46 H5         30.8535   31.0260   15.6714 H         1 1RH         0.0539
     47 H6         30.6970   32.9679   17.0575 H         1 1RH         0.0602
     48 H7         29.8033   35.2547   17.5680 H         1 1RH         0.0585
     49 H8         28.3291   36.2858   15.8883 H         1 1RH         0.0591
     50 H9         27.8584   35.2351   13.7488 H         1 1RH         0.0596
     51 H10        26.9231   33.8069   12.4685 H         1 1RH         0.0722
     52 H11        27.4683   32.5505   11.3063 H         1 1RH         0.0722
     53 H12        28.8095   36.0286    9.1596 H         1 1RH         0.0830
     54 H13        29.3277   37.9542   11.4045 H         1 1RH         0.0630
     55 H14        30.1442   37.8430    9.8083 H         1 1RH         0.0630
     56 H15        27.3601   38.3527   10.1940 H         1 1RH         0.1886
     57 H16        26.0913   39.5039    8.7244 H         1 1RH         0.1096
     58 H17        23.7040   38.9201    9.4798 H         1 1RH         0.0310
     59 H18        24.9025   38.0824   10.5230 H         1 1RH         0.0310
     60 H19        24.0517   37.1761    9.2263 H         1 1RH         0.0310
     61 H20        24.2849   39.1408    7.1286 H         1 1RH         0.2032
     62 H21        24.8182   37.6011    6.8952 H         1 1RH         0.2032
     63 H22        25.5560   39.0100    5.0914 H         1 1RH         0.0777
     64 H23        26.9396   38.3836    6.0506 H         1 1RH         0.0777
     65 H24        26.3576   40.0638    6.3053 H         1 1RH         0.0777
     66 H25        29.1984   32.2138    9.8876 H         1 1RH         0.0452
     67 H26        31.4356   31.7663    8.8892 H         1 1RH         0.0450
     68 H27        33.2234   33.4623    9.0105 H         1 1RH         0.0450
     69 H28        32.7823   35.6474   10.0797 H         1 1RH         0.0452
     70 H29        33.8353   37.8191   12.7790 H         1 1RH         0.0635
     71 H30        35.4714   36.6539   14.2319 H         1 1RH         0.0530
     72 H31        34.8956   33.3980   15.7024 H         1 1RH         0.1738
     73 H32        36.0118   34.7781   15.5233 H         1 1RH         0.1738
     74 H33        32.7866   33.3502   14.6192 H         1 1RH         0.0530
     75 H34        31.1905   34.4713   13.1444 H         1 1RH         0.0635
@<TRIPOS>BOND
     1    1    2 1  
     2    2    3 1  
     3    3    4 ar 
     4    3   12 ar 
     5    4    5 ar 
     6    5    6 ar 
     7    6    7 ar 
     8    6   11 ar 
     9    7    8 ar 
    10    8    9 ar 
    11    9   10 ar 
    12   10   11 ar 
    13   11   12 ar 
    14   12   13 1  
    15   13   14 1  
    16   14   15 am 
    17   14   26 1  
    18   15   16 2  
    19   15   17 1  
    20   17   18 1  
    21   17   19 1  
    22   18   32 1  
    23   19   20 am 
    24   20   21 2  
    25   20   22 1  
    26   22   23 1  
    27   22   24 1  
    28   24   25 1  
    29   26   27 ar 
    30   26   31 ar 
    31   27   28 ar 
    32   28   29 ar 
    33   29   30 ar 
    34   30   31 ar 
    35   31   32 1  
    36   32   33 am 
    37   33   34 2  
    38   33   35 1  
    39   35   36 ar 
    40   35   41 ar 
    41   36   37 ar 
    42   37   38 ar 
    43   38   39 1  
    44   38   40 ar 
    45   40   41 ar 
    46    1   42 1  
    47    1   43 1  
    48    1   44 1  
    49    4   45 1  
    50    5   46 1  
    51    7   47 1  
    52    8   48 1  
    53    9   49 1  
    54   10   50 1  
    55   13   51 1  
    56   13   52 1  
    57   17   53 1  
    58   18   54 1  
    59   18   55 1  
    60   19   56 1  
    61   22   57 1  
    62   23   58 1  
    63   23   59 1  
    64   23   60 1  
    65   24   61 1  
    66   24   62 1  
    67   25   63 1  
    68   25   64 1  
    69   25   65 1  
    70   27   66 1  
    71   28   67 1  
    72   29   68 1  
    73   30   69 1  
    74   36   70 1  
    75   37   71 1  
    76   39   72 1  
    77   39   73 1  
    78   40   74 1  
    79   41   75 1  
@<TRIPOS>SUBSTRUCTURE
     1 1RH         1

