### 
### Created by X-TOOL on Mon Sep 10 21:13:14 2018
### 

@<TRIPOS>MOLECULE
4kjv_ligand
   73    77     1     0     0
SMALL
GAST_HUCK


@<TRIPOS>ATOM
      1 C29        27.8440   28.0450   10.7760 C.3       1 1RK         0.0575
      2 O28        27.8590   29.4480   11.1160 O.3       1 1RK        -0.3256
      3 C27        28.5050   29.9000   12.2720 C.ar      1 1RK         0.0958
      4 C30        29.3100   29.0850   13.0900 C.ar      1 1RK        -0.0355
      5 C31        29.8970   29.5910   14.2480 C.ar      1 1RK        -0.0638
      6 C32        29.7080   30.9650   14.5830 C.ar      1 1RK        -0.0269
      7 C34        30.2890   31.5110   15.7380 C.ar      1 1RK        -0.0462
      8 C35        30.1260   32.8710   16.1200 C.ar      1 1RK         0.0053
      9 C38        30.7320   33.4090   17.2670 C.2       1 1RK         0.0602
     10 O40        30.3870   34.5340   17.7290 O.co2     1 1RK        -0.5617
     11 O39        31.6110   32.7670   17.8710 O.co2     1 1RK        -0.5617
     12 C36        29.3220   33.7020   15.3210 C.ar      1 1RK        -0.0535
     13 C37        28.7610   33.1700   14.1640 C.ar      1 1RK        -0.0585
     14 C33        28.9130   31.8040   13.7710 C.ar      1 1RK        -0.0181
     15 C15        28.3170   31.2920   12.6160 C.ar      1 1RK         0.0219
     16 C14        27.4890   32.1200   11.8140 C.3       1 1RK         0.0853
     17 N13        28.2940   33.1620   11.0470 N.am      1 1RK        -0.2109
     18 C16        27.9320   34.4970   11.0520 C.2       1 1RK         0.2339
     19 O17        27.0020   34.9040   11.8040 O.2       1 1RK        -0.3832
     20 C12        29.4510   32.7560   10.3470 C.ar      1 1RK         0.1012
     21 C21        29.4590   31.5990    9.5540 C.ar      1 1RK        -0.0489
     22 C19        30.6210   31.2300    8.8180 C.ar      1 1RK        -0.0868
     23 C20        31.7710   32.0220    8.8980 C.ar      1 1RK        -0.0862
     24 C18        31.8090   33.1690    9.7160 C.ar      1 1RK        -0.0460
     25 C11        30.6150   33.5360   10.4150 C.ar      1 1RK         0.1139
     26 O10        30.7420   34.6840   11.2000 O.3       1 1RK        -0.3129
     27 C9         30.0620   35.8770   10.7730 C.3       1 1RK         0.1330
     28 C22        30.8340   36.4970    9.6210 C.3       1 1RK         0.0082
     29 C23        32.0340   37.2800   10.1710 C.3       1 1RK         0.0508
     30 O24        31.8320   38.0250   11.3490 O.3       1 1RK        -0.3795
     31 C25        31.3900   37.2310   12.3990 C.3       1 1RK         0.0508
     32 C26        29.9690   36.7830   11.9910 C.3       1 1RK         0.0082
     33 C7         28.6350   35.4810   10.2010 C.3       1 1RK         0.1696
     34 N6         27.7280   36.6140    9.8590 N.am      1 1RK        -0.2577
     35 C5         26.8940   36.5690    8.8080 C.2       1 1RK         0.2266
     36 O8         26.8140   35.6210    8.0130 O.2       1 1RK        -0.3907
     37 C3         25.8590   37.7300    8.7820 C.3       1 1RK         0.0637
     38 C4         24.6830   37.3850    9.8060 C.3       1 1RK        -0.0039
     39 N1         25.3230   37.9140    7.4420 N.4       1 1RK         0.2438
     40 C2         26.3220   38.3710    6.4080 C.3       1 1RK        -0.0428
     41 H1         27.2887   27.9011    9.8374 H         1 1RK         0.0574
     42 H2         27.3553   27.4776   11.5817 H         1 1RK         0.0574
     43 H3         28.8765   27.6872   10.6497 H         1 1RK         0.0574
     44 H4         29.4755   28.0495   12.8153 H         1 1RK         0.0566
     45 H5         30.4908   28.9478   14.8874 H         1 1RK         0.0547
     46 H6         30.8901   30.8658   16.3684 H         1 1RK         0.0648
     47 H7         29.1429   34.7341   15.5998 H         1 1RK         0.0613
     48 H8         28.1782   33.8258   13.5273 H         1 1RK         0.0598
     49 H9         26.7676   32.6367   12.4640 H         1 1RK         0.0723
     50 H10        26.9474   31.4892   11.0938 H         1 1RK         0.0723
     51 H11        28.5713   30.9792    9.5008 H         1 1RK         0.0466
     52 H12        30.6142   30.3401    8.1991 H         1 1RK         0.0484
     53 H13        32.6474   31.7491    8.3214 H         1 1RK         0.0460
     54 H14        32.7153   33.7557    9.8129 H         1 1RK         0.0495
     55 H15        30.1755   37.1794    9.0636 H         1 1RK         0.0321
     56 H16        31.1915   35.7024    8.9496 H         1 1RK         0.0321
     57 H17        32.3586   37.9810    9.3879 H         1 1RK         0.0561
     58 H18        32.8377   36.5561   10.3712 H         1 1RK         0.0561
     59 H19        31.3594   37.8089   13.3344 H         1 1RK         0.0561
     60 H20        32.0481   36.3591   12.5280 H         1 1RK         0.0561
     61 H21        29.5029   36.2347   12.8229 H         1 1RK         0.0321
     62 H22        29.3604   37.6663   11.7472 H         1 1RK         0.0321
     63 H23        28.8404   34.9709    9.2483 H         1 1RK         0.0838
     64 H24        27.7414   37.4341   10.4311 H         1 1RK         0.1886
     65 H25        26.3529   38.6609    9.0972 H         1 1RK         0.1096
     66 H26        23.9414   38.1974    9.7998 H         1 1RK         0.0310
     67 H27        25.0987   37.2759   10.8185 H         1 1RK         0.0310
     68 H28        24.1989   36.4443    9.5050 H         1 1RK         0.0310
     69 H29        24.5885   38.6026    7.4917 H         1 1RK         0.2032
     70 H30        24.9384   37.0338    7.1364 H         1 1RK         0.2032
     71 H31        25.8195   38.4792    5.4355 H         1 1RK         0.0777
     72 H32        27.1283   37.6275    6.3234 H         1 1RK         0.0777
     73 H33        26.7465   39.3394    6.7111 H         1 1RK         0.0777
@<TRIPOS>BOND
     1    1    2 1  
     2    2    3 1  
     3    3    4 ar 
     4    3   15 ar 
     5    4    5 ar 
     6    5    6 ar 
     7    6    7 ar 
     8    6   14 ar 
     9    7    8 ar 
    10    8    9 1  
    11    8   12 ar 
    12    9   10 ar 
    13    9   11 ar 
    14   12   13 ar 
    15   13   14 ar 
    16   14   15 ar 
    17   15   16 1  
    18   16   17 1  
    19   17   18 am 
    20   17   20 1  
    21   18   19 2  
    22   18   33 1  
    23   20   21 ar 
    24   20   25 ar 
    25   21   22 ar 
    26   22   23 ar 
    27   23   24 ar 
    28   24   25 ar 
    29   25   26 1  
    30   26   27 1  
    31   27   28 1  
    32   27   32 1  
    33   27   33 1  
    34   28   29 1  
    35   29   30 1  
    36   30   31 1  
    37   31   32 1  
    38   33   34 1  
    39   34   35 am 
    40   35   36 2  
    41   35   37 1  
    42   37   38 1  
    43   37   39 1  
    44   39   40 1  
    45    1   41 1  
    46    1   42 1  
    47    1   43 1  
    48    4   44 1  
    49    5   45 1  
    50    7   46 1  
    51   12   47 1  
    52   13   48 1  
    53   16   49 1  
    54   16   50 1  
    55   21   51 1  
    56   22   52 1  
    57   23   53 1  
    58   24   54 1  
    59   28   55 1  
    60   28   56 1  
    61   29   57 1  
    62   29   58 1  
    63   31   59 1  
    64   31   60 1  
    65   32   61 1  
    66   32   62 1  
    67   33   63 1  
    68   34   64 1  
    69   37   65 1  
    70   38   66 1  
    71   38   67 1  
    72   38   68 1  
    73   39   69 1  
    74   39   70 1  
    75   40   71 1  
    76   40   72 1  
    77   40   73 1  
@<TRIPOS>SUBSTRUCTURE
     1 1RK         1

