### 
### Created by X-TOOL on Mon Sep 10 21:13:14 2018
### 

@<TRIPOS>MOLECULE
4klb_ligand
   27    28     1     0     0
SMALL
GAST_HUCK


@<TRIPOS>ATOM
      1 N01        30.4750   -2.0920   20.9510 N.am      1 1RV        -0.3084
      2 C01        30.9770   -1.0060   20.1800 C.2       1 1RV         0.1648
      3 O01        32.1300   -0.6500   20.3340 O.2       1 1RV        -0.4112
      4 C02        30.0880   -0.3050   19.1610 C.2       1 1RV         0.0471
      5 C05        29.8890    1.1010   19.0950 C.2       1 1RV         0.1536
      6 N02        30.4530    2.1360   19.9100 N.am      1 1RV        -0.2079
      7 C06        31.7940    2.5720   19.6790 C.2       1 1RV         0.2261
      8 O02        32.4740    2.0700   18.8080 O.2       1 1RV        -0.3789
      9 C07        32.4300    3.6800   20.4780 C.3       1 1RV         0.1058
     10 S01        33.2880    4.6840   19.2900 S.3       1 1RV        -0.0590
     11 C08        32.1130    5.4220   18.1660 C.2       1 1RV         0.1350
     12 N03        30.7820    5.2500   18.1660 N.2       1 1RV        -0.1930
     13 N04        30.2420    5.9640   17.1760 N.pl3     1 1RV        -0.2013
     14 C09        31.2190    6.6030   16.5280 C.2       1 1RV         0.1211
     15 N05        32.3860    6.2700   17.1400 N.2       1 1RV        -0.2732
     16 S02        28.8400    1.3700   17.8040 S.3       1 1RV        -0.0136
     17 C04        28.5850   -0.1990   17.2820 C.2       1 1RV        -0.0263
     18 C03        29.3480   -1.0180   18.1360 C.2       1 1RV        -0.0868
     19 H1         29.5289   -2.3936   20.8332 H         1 1RV         0.1790
     20 H2         31.0684   -2.5534   21.6105 H         1 1RV         0.1790
     21 H3         29.9093    2.5522   20.6388 H         1 1RV         0.2400
     22 H4         33.1353    3.2677   21.2146 H         1 1RV         0.0649
     23 H5         31.6609    4.2706   20.9974 H         1 1RV         0.0649
     24 H6         29.2384    6.0138   16.9495 H         1 1RV         0.2577
     25 H7         31.1028    7.2654   15.6715 H         1 1RV         0.1351
     26 H8         27.9576   -0.5207   16.4520 H         1 1RV         0.0493
     27 H9         29.3804   -2.1019   18.0353 H         1 1RV         0.0362
@<TRIPOS>BOND
     1    1    2 am 
     2    2    3 2  
     3    2    4 1  
     4    4    5 2  
     5    4   18 1  
     6    5    6 1  
     7    5   16 1  
     8    6    7 am 
     9    7    8 2  
    10    7    9 1  
    11    9   10 1  
    12   10   11 1  
    13   11   12 2  
    14   11   15 1  
    15   12   13 1  
    16   13   14 1  
    17   14   15 2  
    18   16   17 1  
    19   17   18 2  
    20    1   19 1  
    21    1   20 1  
    22    6   21 1  
    23    9   22 1  
    24    9   23 1  
    25   13   24 1  
    26   14   25 1  
    27   17   26 1  
    28   18   27 1  
@<TRIPOS>SUBSTRUCTURE
     1 1RV         1

