### 
### Created by X-TOOL on Mon Sep 10 21:13:12 2018
### 

@<TRIPOS>MOLECULE
4km0_ligand
   30    31     1     0     0
SMALL
GAST_HUCK


@<TRIPOS>ATOM
      1 N1          2.4240   -1.7970    0.3350 N.ar      1 CP6        -0.2495
      2 C2          3.0380   -2.2150   -0.8020 C.ar      1 CP6         0.1633
      3 C3          1.8430   -2.7720    1.0950 C.ar      1 CP6         0.1137
      4 C4          1.8670   -4.1600    0.7880 C.ar      1 CP6         0.0398
      5 C5          2.4790   -4.4960   -0.3900 C.ar      1 CP6         0.0266
      6 N6          2.9790   -3.5270   -1.2070 N.ar      1 CP6        -0.2719
      7 C7          1.3090   -5.1380    1.7200 C.ar      1 CP6        -0.0235
      8 C8         -0.0500   -5.1380    2.1050 C.ar      1 CP6        -0.0593
      9 C9         -0.5340   -6.0670    3.0670 C.ar      1 CP6        -0.0514
     10 C10         0.4260   -6.9640    3.6340 C.ar      1 CP6         0.0366
     11 C11         1.8110   -6.9680    3.3340 C.ar      1 CP6        -0.0514
     12 C12         2.1880   -6.0620    2.3300 C.ar      1 CP6        -0.0593
     13 N13         1.2210   -2.3370    2.2350 N.pl3     1 CP6        -0.3173
     14 N14         3.6380   -1.3800   -1.5720 N.pl3     1 CP6        -0.3071
     15 C15         2.5710   -5.9080   -0.9780 C.3       1 CP6        -0.0059
     16 C16         4.0500   -6.3660   -1.0000 C.3       1 CP6        -0.0518
     17 CL1        -0.1810   -8.1160    4.7940 Cl        1 CP6        -0.0738
     18 H1         -0.7322   -4.4214    1.6620 H         1 CP6         0.0588
     19 H2         -1.5783   -6.0942    3.3564 H         1 CP6         0.0613
     20 H3          2.5195   -7.6159    3.8373 H         1 CP6         0.0613
     21 H4          3.2208   -6.0716    2.0010 H         1 CP6         0.0588
     22 H5          0.7597   -3.0133    2.8601 H         1 CP6         0.1818
     23 H6          1.2145   -1.3336    2.4673 H         1 CP6         0.1818
     24 H7          3.7036   -0.3877   -1.3039 H         1 CP6         0.1830
     25 H8          4.0535   -1.7028   -2.4575 H         1 CP6         0.1830
     26 H9          2.1737   -5.9041   -2.0037 H         1 CP6         0.0476
     27 H10         1.9823   -6.6013   -0.3594 H         1 CP6         0.0476
     28 H11         4.1137   -7.3797   -1.4224 H         1 CP6         0.0258
     29 H12         4.4478   -6.3705    0.0255 H         1 CP6         0.0258
     30 H13         4.6392   -5.6733   -1.6188 H         1 CP6         0.0258
@<TRIPOS>BOND
     1    1    2 ar 
     2    1    3 ar 
     3    2    6 ar 
     4    2   14 1  
     5    3    4 ar 
     6    3   13 1  
     7    4    5 ar 
     8    4    7 1  
     9    5    6 ar 
    10    5   15 1  
    11    7    8 ar 
    12    7   12 ar 
    13    8    9 ar 
    14    9   10 ar 
    15   10   11 ar 
    16   10   17 1  
    17   11   12 ar 
    18   15   16 1  
    19    8   18 1  
    20    9   19 1  
    21   11   20 1  
    22   12   21 1  
    23   13   22 1  
    24   13   23 1  
    25   14   24 1  
    26   14   25 1  
    27   15   26 1  
    28   15   27 1  
    29   16   28 1  
    30   16   29 1  
    31   16   30 1  
@<TRIPOS>SUBSTRUCTURE
     1 CP6         1

