### 
### Created by X-TOOL on Mon Sep 10 21:13:12 2018
### 

@<TRIPOS>MOLECULE
4km2_ligand
   39    40     1     0     0
SMALL
GAST_HUCK


@<TRIPOS>ATOM
      1 C1         14.6580    2.6980   21.1010 C.ar      1 TOP         0.0016
      2 N2         15.6810    3.4550   21.6490 N.ar      1 TOP        -0.2822
      3 C3         16.9070    3.4650   21.0230 C.ar      1 TOP         0.1638
      4 N4         17.8780    4.2600   21.5880 N.pl3     1 TOP        -0.3098
      5 N5         17.1890    2.7230   19.9350 N.ar      1 TOP        -0.2486
      6 C6         16.2150    1.9470   19.4260 C.ar      1 TOP         0.1161
      7 N7         16.5310    1.2740   18.3300 N.pl3     1 TOP        -0.3198
      8 C8         14.8770    1.9520   19.9840 C.ar      1 TOP         0.0217
      9 C9         13.7120    1.1080   19.4330 C.3       1 TOP         0.0058
     10 C10        12.8440    1.9090   18.4670 C.ar      1 TOP        -0.0614
     11 C11        12.4880    1.2300   17.2970 C.ar      1 TOP        -0.0491
     12 C12        11.6020    1.8800   16.4200 C.ar      1 TOP         0.1051
     13 O13        11.1630    1.3960   15.2110 O.3       1 TOP        -0.3297
     14 C14        11.4210    0.0230   14.9830 C.3       1 TOP         0.0563
     15 C15        11.1320    3.1720   16.6530 C.ar      1 TOP         0.1396
     16 O16        10.2540    3.8790   15.8220 O.3       1 TOP        -0.3340
     17 C17         8.9060    3.3910   15.8540 C.3       1 TOP         0.0526
     18 C18        11.4650    3.8120   17.8340 C.ar      1 TOP         0.1051
     19 O19        10.9270    5.0460   18.0710 O.3       1 TOP        -0.3297
     20 C20        11.2990    5.7260   19.2390 C.3       1 TOP         0.0563
     21 C21        12.3660    3.2270   18.7440 C.ar      1 TOP        -0.0491
     22 H1         13.6781    2.7000   21.5644 H         1 TOP         0.0775
     23 H2         17.6599    4.8266   22.4201 H         1 TOP         0.1804
     24 H3         18.8228    4.2884   21.1788 H         1 TOP         0.1804
     25 H4         15.8349    0.6594   17.8844 H         1 TOP         0.1790
     26 H5         17.4729    1.3652   17.9232 H         1 TOP         0.1790
     27 H6         13.0894    0.7675   20.2735 H         1 TOP         0.0535
     28 H7         14.1227    0.2355   18.9039 H         1 TOP         0.0535
     29 H8         12.8790    0.2435   17.0757 H         1 TOP         0.0367
     30 H9         11.0330   -0.2637   13.9944 H         1 TOP         0.0572
     31 H10        10.9248   -0.5773   15.7598 H         1 TOP         0.0572
     32 H11        12.5056   -0.1570   15.0175 H         1 TOP         0.0572
     33 H12         8.2814    3.9947   15.1791 H         1 TOP         0.0565
     34 H13         8.5140    3.4635   16.8792 H         1 TOP         0.0565
     35 H14         8.8885    2.3405   15.5281 H         1 TOP         0.0565
     36 H15        10.7818    6.6960   19.2790 H         1 TOP         0.0572
     37 H16        12.3867    5.8902   19.2371 H         1 TOP         0.0572
     38 H17        11.0204    5.1255   20.1175 H         1 TOP         0.0572
     39 H18        12.6883    3.7615   19.6303 H         1 TOP         0.0367
@<TRIPOS>BOND
     1    1    2 ar 
     2    1    8 ar 
     3    2    3 ar 
     4    3    4 1  
     5    3    5 ar 
     6    5    6 ar 
     7    6    7 1  
     8    6    8 ar 
     9    8    9 1  
    10    9   10 1  
    11   10   11 ar 
    12   10   21 ar 
    13   11   12 ar 
    14   12   13 1  
    15   12   15 ar 
    16   13   14 1  
    17   15   16 1  
    18   15   18 ar 
    19   16   17 1  
    20   18   19 1  
    21   18   21 ar 
    22   19   20 1  
    23    1   22 1  
    24    4   23 1  
    25    4   24 1  
    26    7   25 1  
    27    7   26 1  
    28    9   27 1  
    29    9   28 1  
    30   11   29 1  
    31   14   30 1  
    32   14   31 1  
    33   14   32 1  
    34   17   33 1  
    35   17   34 1  
    36   17   35 1  
    37   20   36 1  
    38   20   37 1  
    39   20   38 1  
    40   21   39 1  
@<TRIPOS>SUBSTRUCTURE
     1 TOP         1

