### 
### Created by X-TOOL on Mon Sep 10 21:13:16 2018
### 

@<TRIPOS>MOLECULE
4kmu_ligand
  128   132     1     0     0
SMALL
GAST_HUCK


@<TRIPOS>ATOM
      1 C1       -113.1570   26.4420    8.4140 C.ar      1 RFP         0.1027
      2 C2       -112.0110   26.1610    7.6560 C.ar      1 RFP         0.0927
      3 C3       -110.7220   26.3310    8.1320 C.ar      1 RFP         0.0439
      4 C4       -110.5060   26.8070    9.4110 C.ar      1 RFP         0.0794
      5 C5       -111.5050   27.5780   11.5580 C.ar      1 RFP         0.0420
      6 C6       -112.6880   27.8420   12.2940 C.ar      1 RFP         0.0997
      7 C7       -113.9900   27.6890   11.8840 C.ar      1 RFP         0.0174
      8 C8       -114.1500   27.2060   10.5610 C.ar      1 RFP         0.0972
      9 C9       -112.9590   26.9190    9.7520 C.ar      1 RFP         0.0253
     10 C10      -111.5950   27.0970   10.2340 C.ar      1 RFP        -0.0069
     11 C11      -110.4700   27.9030   12.4580 C.2       1 RFP         0.1763
     12 C12      -110.8310   28.5720   13.5880 C.3       1 RFP         0.2419
     13 C13      -110.0870   27.9080   14.7240 C.3       1 RFP        -0.0048
     14 C14      -115.1840   27.9950   12.7500 C.3       1 RFP        -0.0358
     15 C15      -113.1370   25.8740    5.3110 C.2       1 RFP         0.2006
     16 C16      -112.8440   25.2980    3.9340 C.3       1 RFP         0.0506
     17 C17      -112.0470   26.1860    3.1850 C.3       1 RFP        -0.0331
     18 C18      -112.2850   27.7150    3.3180 C.3       1 RFP        -0.0504
     19 C19      -111.5580   28.5950    2.4810 C.3       1 RFP        -0.0480
     20 C20      -110.8010   29.8210    2.9660 C.3       1 RFP        -0.0175
     21 C21      -110.9600   30.0580    4.4610 C.3       1 RFP         0.0627
     22 C22      -109.9870   31.0380    5.0560 C.3       1 RFP         0.0088
     23 C23      -110.6340   31.6020    6.2960 C.3       1 RFP         0.0654
     24 C24      -109.6980   31.7220    7.4680 C.3       1 RFP         0.0136
     25 C25      -110.3040   32.7430    8.4340 C.3       1 RFP         0.0974
     26 C26      -110.8190   32.0730    9.6950 C.3       1 RFP         0.0136
     27 C27      -110.3910   32.8070   10.9590 C.3       1 RFP         0.0656
     28 C28      -110.7820   32.0650   12.2190 C.3       1 RFP        -0.0030
     29 C29      -110.7670   30.6630   12.2560 C.3       1 RFP         0.0500
     30 C30      -112.4090   23.8450    4.0370 C.3       1 RFP        -0.0450
     31 C31      -109.3990   29.6180    2.4950 C.3       1 RFP        -0.0601
     32 C32      -109.6030   32.1840    4.1530 C.3       1 RFP        -0.0577
     33 C33      -108.2630   32.0730    7.0900 C.3       1 RFP        -0.0573
     34 C34      -112.3170   31.9050    9.6320 C.3       1 RFP        -0.0573
     35 C35      -109.2060   34.8330    7.7070 C.2       1 RFP         0.2309
     36 C36      -107.8490   35.3960    7.4190 C.3       1 RFP         0.0372
     37 C37      -111.9590   34.5560   11.7230 C.3       1 RFP         0.0368
     38 C38      -103.4190   25.5160    6.1440 C.3       1 RFP        -0.0427
     39 C39      -105.6080   25.9440    7.3140 C.3       1 RFP         0.0107
     40 C40      -107.0230   26.3240    7.0090 C.3       1 RFP         0.0364
     41 C41      -107.0330   24.7850    5.0720 C.3       1 RFP         0.0364
     42 C42      -105.6130   24.4350    5.4970 C.3       1 RFP         0.0107
     43 C43      -109.6810   25.3780    7.5370 C.3       1 RFP         0.0195
     44 N1       -112.0260   25.6720    6.2710 N.am      1 RFP        -0.2446
     45 N2       -108.9690   25.8550    6.5150 N.4       1 RFP         0.3274
     46 N3       -107.7070   25.3480    6.2190 N.4       1 RFP         0.3340
     47 N4       -104.9080   25.5260    6.1300 N.4       1 RFP         0.2406
     48 O1       -114.3990   26.2410    7.9090 O.3       1 RFP        -0.3469
     49 O2       -115.4170   27.0030    9.9830 O.3       1 RFP        -0.3319
     50 O3       -112.2320   28.3550   13.7070 O.3       1 RFP        -0.2903
     51 O4       -109.3000   27.5970   12.2430 O.2       1 RFP        -0.3579
     52 O5       -110.5390   29.9600   13.4570 O.3       1 RFP        -0.3512
     53 O6       -110.8530   34.1200   10.9850 O.3       1 RFP        -0.3793
     54 O7       -109.3790   33.7730    8.6350 O.3       1 RFP        -0.2730
     55 O8       -110.0490   35.0390    6.8480 O.2       1 RFP        -0.3707
     56 O9       -111.7030   30.7800    6.6320 O.3       1 RFP        -0.3911
     57 O10      -112.2570   30.4910    4.7130 O.3       1 RFP        -0.3912
     58 O11      -114.1760   26.4630    5.5830 O.2       1 RFP        -0.3874
     59 O12      -109.2250   26.9650    9.8480 O.3       1 RFP        -0.3476
     60 H1       -110.3400   28.4087   15.6702 H         1 RFP         0.0257
     61 H2       -109.0040   27.9841   14.5471 H         1 RFP         0.0257
     62 H3       -110.3756   26.8481   14.7815 H         1 RFP         0.0257
     63 H4       -114.8423   28.3551   13.7316 H         1 RFP         0.0336
     64 H5       -115.7842   27.0828   12.8827 H         1 RFP         0.0336
     65 H6       -115.7974   28.7706   12.2681 H         1 RFP         0.0336
     66 H7       -113.8058   25.2656    3.4012 H         1 RFP         0.0539
     67 H8       -112.1899   25.9297    2.1249 H         1 RFP         0.0292
     68 H9       -111.0014   25.9977    3.4701 H         1 RFP         0.0292
     69 H10      -112.0497   27.9894    4.3569 H         1 RFP         0.0267
     70 H11      -113.3530   27.8937    3.1244 H         1 RFP         0.0267
     71 H12      -112.2843   28.9691    1.7445 H         1 RFP         0.0269
     72 H13      -110.8101   27.9685    1.9729 H         1 RFP         0.0269
     73 H14      -111.2073   30.7096    2.4607 H         1 RFP         0.0323
     74 H15      -110.8068   29.0933    4.9668 H         1 RFP         0.0599
     75 H16      -109.0700   30.4953    5.3291 H         1 RFP         0.0348
     76 H17      -111.0130   32.6075    6.0607 H         1 RFP         0.0600
     77 H18      -109.6657   30.7459    7.9741 H         1 RFP         0.0352
     78 H19      -111.1794   33.1913    7.9414 H         1 RFP         0.0656
     79 H20      -110.3745   31.0677    9.7373 H         1 RFP         0.0352
     80 H21      -109.2921   32.8530   10.9421 H         1 RFP         0.0600
     81 H22      -111.8093   32.3751   12.4608 H         1 RFP         0.0312
     82 H23      -110.0996   32.4079   13.0106 H         1 RFP         0.0312
     83 H24      -109.9822   30.3424   11.5551 H         1 RFP         0.0558
     84 H25      -111.7480   30.3322   11.8843 H         1 RFP         0.0558
     85 H26      -113.1324   23.2884    4.6509 H         1 RFP         0.0257
     86 H27      -111.4145   23.7922    4.5040 H         1 RFP         0.0257
     87 H28      -112.3655   23.4030    3.0306 H         1 RFP         0.0257
     88 H29      -109.3975   29.4564    1.4069 H         1 RFP         0.0233
     89 H30      -108.9672   28.7395    2.9967 H         1 RFP         0.0233
     90 H31      -108.7992   30.5085    2.7342 H         1 RFP         0.0233
     91 H32      -109.1288   31.7900    3.2420 H         1 RFP         0.0234
     92 H33      -108.8966   32.8438    4.6780 H         1 RFP         0.0234
     93 H34      -110.5036   32.7538    3.8805 H         1 RFP         0.0234
     94 H35      -107.8703   31.3143    6.3971 H         1 RFP         0.0234
     95 H36      -107.6407   32.0985    7.9967 H         1 RFP         0.0234
     96 H37      -108.2427   33.0593    6.6035 H         1 RFP         0.0234
     97 H38      -112.5877   31.3724    8.7084 H         1 RFP         0.0234
     98 H39      -112.7976   32.8944    9.6389 H         1 RFP         0.0234
     99 H40      -112.6580   31.3256   10.5027 H         1 RFP         0.0234
    100 H41      -107.9369   36.2031    6.6768 H         1 RFP         0.0483
    101 H42      -107.1993   34.6021    7.0221 H         1 RFP         0.0483
    102 H43      -107.4138   35.7965    8.3464 H         1 RFP         0.0483
    103 H44      -112.1034   35.6349   11.5643 H         1 RFP         0.0524
    104 H45      -111.7859   34.3626   12.7919 H         1 RFP         0.0524
    105 H46      -112.8571   34.0134   11.3929 H         1 RFP         0.0524
    106 H47      -103.0512   26.4139    6.6622 H         1 RFP         0.0778
    107 H48      -103.0426   25.5091    5.1104 H         1 RFP         0.0778
    108 H49      -103.0633   24.6177    6.6698 H         1 RFP         0.0778
    109 H50      -105.6083   25.1173    8.0396 H         1 RFP         0.0868
    110 H51      -105.0902   26.8123    7.7476 H         1 RFP         0.0868
    111 H52      -107.0193   27.2779    6.4612 H         1 RFP         0.0883
    112 H53      -107.5647   26.4484    7.9582 H         1 RFP         0.0883
    113 H54      -107.5581   23.8786    4.7363 H         1 RFP         0.0883
    114 H55      -107.0091   25.5194    4.2534 H         1 RFP         0.0883
    115 H56      -105.0488   24.1296    4.6034 H         1 RFP         0.0868
    116 H57      -105.6602   23.5950    6.2057 H         1 RFP         0.0868
    117 H58      -110.2087   24.4780    7.1886 H         1 RFP         0.0941
    118 H59      -108.9785   25.1042    8.3379 H         1 RFP         0.0941
    119 H60      -111.2259   25.1643    5.9516 H         1 RFP         0.2184
    120 H61      -108.8483   26.8410    6.6859 H         1 RFP         0.2344
    121 H62      -109.5311   25.7236    5.6887 H         1 RFP         0.2344
    122 H63      -107.7016   24.5108    6.7804 H         1 RFP         0.2357
    123 H64      -105.0824   26.2899    5.4959 H         1 RFP         0.2035
    124 H65      -114.3292   25.9261    7.0155 H         1 RFP         0.2414
    125 H66      -115.5068   26.0912    9.7317 H         1 RFP         0.2507
    126 H67      -112.2908   30.7074    5.8893 H         1 RFP         0.2098
    127 H68      -112.3941   30.5474    5.6514 H         1 RFP         0.2098
    128 H69      -109.0796   26.4110   10.6059 H         1 RFP         0.2417
@<TRIPOS>BOND
     1    2    1 ar 
     2    1    9 ar 
     3    1   48 1  
     4    3    2 ar 
     5    2   44 1  
     6    3    4 ar 
     7   43    3 1  
     8    4   10 ar 
     9    4   59 1  
    10    5    6 ar 
    11   10    5 ar 
    12    5   11 1  
    13    6    7 ar 
    14    6   50 1  
    15    8    7 ar 
    16    7   14 1  
    17    9    8 ar 
    18    8   49 1  
    19   10    9 ar 
    20   11   12 1  
    21   11   51 2  
    22   12   13 1  
    23   12   50 1  
    24   12   52 1  
    25   15   16 1  
    26   44   15 am 
    27   15   58 2  
    28   16   17 1  
    29   16   30 1  
    30   17   18 1  
    31   18   19 1  
    32   19   20 1  
    33   20   21 1  
    34   20   31 1  
    35   21   22 1  
    36   21   57 1  
    37   22   23 1  
    38   22   32 1  
    39   23   24 1  
    40   23   56 1  
    41   25   24 1  
    42   24   33 1  
    43   26   25 1  
    44   25   54 1  
    45   27   26 1  
    46   26   34 1  
    47   28   27 1  
    48   27   53 1  
    49   29   28 1  
    50   52   29 1  
    51   35   36 1  
    52   54   35 1  
    53   35   55 2  
    54   53   37 1  
    55   47   38 1  
    56   40   39 1  
    57   39   47 1  
    58   46   40 1  
    59   41   42 1  
    60   46   41 1  
    61   42   47 1  
    62   45   43 1  
    63   45   46 1  
    64   13   60 1  
    65   13   61 1  
    66   13   62 1  
    67   14   63 1  
    68   14   64 1  
    69   14   65 1  
    70   16   66 1  
    71   17   67 1  
    72   17   68 1  
    73   18   69 1  
    74   18   70 1  
    75   19   71 1  
    76   19   72 1  
    77   20   73 1  
    78   21   74 1  
    79   22   75 1  
    80   23   76 1  
    81   24   77 1  
    82   25   78 1  
    83   26   79 1  
    84   27   80 1  
    85   28   81 1  
    86   28   82 1  
    87   29   83 1  
    88   29   84 1  
    89   30   85 1  
    90   30   86 1  
    91   30   87 1  
    92   31   88 1  
    93   31   89 1  
    94   31   90 1  
    95   32   91 1  
    96   32   92 1  
    97   32   93 1  
    98   33   94 1  
    99   33   95 1  
   100   33   96 1  
   101   34   97 1  
   102   34   98 1  
   103   34   99 1  
   104   36  100 1  
   105   36  101 1  
   106   36  102 1  
   107   37  103 1  
   108   37  104 1  
   109   37  105 1  
   110   38  106 1  
   111   38  107 1  
   112   38  108 1  
   113   39  109 1  
   114   39  110 1  
   115   40  111 1  
   116   40  112 1  
   117   41  113 1  
   118   41  114 1  
   119   42  115 1  
   120   42  116 1  
   121   43  117 1  
   122   43  118 1  
   123   44  119 1  
   124   45  120 1  
   125   45  121 1  
   126   46  122 1  
   127   47  123 1  
   128   48  124 1  
   129   49  125 1  
   130   56  126 1  
   131   57  127 1  
   132   59  128 1  
@<TRIPOS>SUBSTRUCTURE
     1 RFP         1

