### 
### Created by X-TOOL on Mon Sep 10 21:13:15 2018
### 

@<TRIPOS>MOLECULE
4kmz_ligand
   50    52     1     0     0
SMALL
GAST_HUCK


@<TRIPOS>ATOM
      1 N1         36.9660   49.3040   52.1120 N.pl3     1 FOL        -0.2042
      2 C2         36.4320   49.4830   53.3730 C.cat     1 FOL         0.2087
      3 NA2        37.1340   50.1320   54.3050 N.pl3     1 FOL        -0.3305
      4 N3         35.1770   48.9850   53.6730 N.am      1 FOL        -0.2435
      5 C4         34.4410   48.3080   52.7180 C.2       1 FOL         0.2754
      6 O4         33.3250   47.8520   52.9830 O.2       1 FOL        -0.3491
      7 C4A        34.9750   48.1300   51.4470 C.ar      1 FOL         0.2637
      8 N5         34.2400   47.4580   50.4890 N.ar      1 FOL        -0.1670
      9 C6         34.7800   47.2790   49.2270 C.ar      1 FOL         0.1651
     10 C7         36.0500   47.7810   48.9280 C.ar      1 FOL         0.1244
     11 N8         36.7830   48.4570   49.8840 N.ar      1 FOL        -0.1568
     12 C8A        36.2450   48.6290   51.1460 C.ar      1 FOL         0.2851
     13 C9         33.9850   46.5620   48.1560 C.3       1 FOL         0.1188
     14 N10        33.3340   47.6190   47.3860 N.pl3     1 FOL        -0.2900
     15 C11        29.8710   47.2070   45.1540 C.ar      1 FOL         0.0362
     16 C12        30.5440   46.0720   45.6030 C.ar      1 FOL        -0.0535
     17 C13        31.7100   46.2010   46.3580 C.ar      1 FOL        -0.0379
     18 C14        32.2210   47.4640   46.6620 C.ar      1 FOL         0.0480
     19 C15        31.5460   48.5980   46.2140 C.ar      1 FOL        -0.0379
     20 C16        30.3720   48.4710   45.4620 C.ar      1 FOL        -0.0535
     21 C          28.6000   47.0700   44.3500 C.2       1 FOL         0.1968
     22 O          28.4740   46.0340   43.3920 O.2       1 FOL        -0.3908
     23 N          27.6250   47.9580   44.5750 N.am      1 FOL        -0.2725
     24 CA         26.2910   47.8610   44.0270 C.3       1 FOL         0.0951
     25 CB         25.3150   47.2210   45.0230 C.3       1 FOL        -0.0064
     26 CG         25.8090   45.8830   45.5710 C.3       1 FOL         0.0038
     27 CD         24.7670   45.1910   46.4280 C.2       1 FOL         0.0350
     28 OE1        23.8760   44.4750   45.8930 O.co2     1 FOL        -0.5690
     29 OE2        24.7900   45.3020   47.6830 O.co2     1 FOL        -0.5690
     30 CT         25.8090   49.2420   43.6610 C.2       1 FOL         0.0601
     31 O1         26.5090   49.9910   42.9250 O.co2     1 FOL        -0.5666
     32 O2         24.7010   49.6600   44.0850 O.co2     1 FOL        -0.5666
     33 H1         37.9018   49.6737   51.8917 H         1 FOL         0.2564
     34 H2         36.7386   50.2672   55.2464 H         1 FOL         0.1792
     35 H3         38.0709   50.4975   54.0826 H         1 FOL         0.1792
     36 H4         34.7983   49.1158   54.5892 H         1 FOL         0.1833
     37 H5         36.4636   47.6384   47.9362 H         1 FOL         0.1319
     38 H6         33.2345   45.8996   48.6119 H         1 FOL         0.0954
     39 H7         34.6524   45.9712   47.5114 H         1 FOL         0.0954
     40 H8         33.7651   48.5543   47.4021 H         1 FOL         0.1844
     41 H9         30.1604   45.0865   45.3649 H         1 FOL         0.0636
     42 H10        32.2230   45.3138   46.7112 H         1 FOL         0.0530
     43 H11        31.9320   49.5833   46.4490 H         1 FOL         0.0530
     44 H12        29.8513   49.3575   45.1184 H         1 FOL         0.0636
     45 H13        27.8329   48.7409   45.1613 H         1 FOL         0.1864
     46 H14        26.3257   47.2390   43.1204 H         1 FOL         0.0726
     47 H15        24.3533   47.0574   44.5148 H         1 FOL         0.0323
     48 H16        25.1713   47.9129   45.8660 H         1 FOL         0.0323
     49 H17        26.7071   46.0606   46.1809 H         1 FOL         0.0432
     50 H18        26.0637   45.2270   44.7256 H         1 FOL         0.0432
@<TRIPOS>BOND
     1    1    2 ar 
     2   12    1 1  
     3    2    3 ar 
     4    4    2 ar 
     5    5    4 am 
     6    5    6 2  
     7    7    5 1  
     8    8    7 ar 
     9    7   12 ar 
    10    9    8 ar 
    11    9   10 ar 
    12   13    9 1  
    13   10   11 ar 
    14   11   12 ar 
    15   14   13 1  
    16   18   14 1  
    17   16   15 ar 
    18   15   20 ar 
    19   15   21 1  
    20   17   16 ar 
    21   17   18 ar 
    22   18   19 ar 
    23   19   20 ar 
    24   21   22 2  
    25   21   23 am 
    26   23   24 1  
    27   24   25 1  
    28   24   30 1  
    29   25   26 1  
    30   26   27 1  
    31   27   28 ar 
    32   27   29 ar 
    33   30   31 ar 
    34   30   32 ar 
    35    1   33 1  
    36    3   34 1  
    37    3   35 1  
    38    4   36 1  
    39   10   37 1  
    40   13   38 1  
    41   13   39 1  
    42   14   40 1  
    43   16   41 1  
    44   17   42 1  
    45   19   43 1  
    46   20   44 1  
    47   23   45 1  
    48   24   46 1  
    49   25   47 1  
    50   25   48 1  
    51   26   49 1  
    52   26   50 1  
@<TRIPOS>SUBSTRUCTURE
     1 FOL         1

