### 
### Created by X-TOOL on Mon Sep 10 21:13:13 2018
### 

@<TRIPOS>MOLECULE
4kn0_ligand
   53    55     1     0     0
SMALL
GAST_HUCK


@<TRIPOS>ATOM
      1 N1         14.2280  -35.9790   -3.2100 N.ar      1 MTX        -0.2668
      2 C2         13.2350  -35.3700   -3.9460 C.ar      1 MTX         0.1670
      3 NA2        13.4870  -35.0060   -5.1940 N.pl3     1 MTX        -0.3051
      4 N3         11.9870  -35.1530   -3.3970 N.ar      1 MTX        -0.2298
      5 C4         11.7390  -35.5410   -2.0960 C.ar      1 MTX         0.1540
      6 NA4        10.5320  -35.3640   -1.5670 N.pl3     1 MTX        -0.3052
      7 C4A        12.7390  -36.1450   -1.3420 C.ar      1 MTX         0.1326
      8 N5         12.4900  -36.5450   -0.0350 N.ar      1 MTX        -0.2616
      9 C6         13.5140  -37.1600    0.6980 C.ar      1 MTX         0.0826
     10 C7         14.7770  -37.3440    0.1340 C.ar      1 MTX         0.0478
     11 N8         15.0200  -36.9500   -1.1660 N.ar      1 MTX        -0.2649
     12 C8A        13.9980  -36.3500   -1.9050 C.ar      1 MTX         0.1183
     13 C9         13.2920  -37.5980    2.1290 C.3       1 MTX         0.0825
     14 N10        13.9480  -36.6460    3.0240 N.pl3     1 MTX        -0.2945
     15 CM         13.3310  -35.3160    3.2070 C.3       1 MTX         0.0191
     16 C11        18.0120  -37.1450    3.9300 C.ar      1 MTX         0.0362
     17 C12        17.1950  -38.2770    3.7460 C.ar      1 MTX        -0.0535
     18 C13        15.8360  -38.1160    3.4430 C.ar      1 MTX        -0.0379
     19 C14        15.3080  -36.8350    3.3350 C.ar      1 MTX         0.0476
     20 C15        16.1250  -35.7220    3.5240 C.ar      1 MTX        -0.0379
     21 C16        17.4750  -35.8600    3.8230 C.ar      1 MTX        -0.0535
     22 C          19.4720  -37.2910    4.2860 C.2       1 MTX         0.1968
     23 O          19.8680  -38.4750    4.9110 O.2       1 MTX        -0.3908
     24 N          20.3360  -36.3080    4.0360 N.am      1 MTX        -0.2725
     25 CA         21.7160  -36.3420    4.4840 C.3       1 MTX         0.0951
     26 CT         22.1880  -34.9680    4.8920 C.2       1 MTX         0.0601
     27 O1         23.3550  -34.5690    4.6250 O.co2     1 MTX        -0.5666
     28 O2         21.4210  -34.1940    5.4940 O.co2     1 MTX        -0.5666
     29 CB         22.5820  -36.7940    3.3130 C.3       1 MTX        -0.0064
     30 CG         22.7220  -38.2970    3.3010 C.3       1 MTX         0.0038
     31 CD         23.7060  -38.6700    2.2230 C.2       1 MTX         0.0350
     32 OE1        24.9330  -38.4900    2.4060 O.co2     1 MTX        -0.5690
     33 OE2        23.3020  -39.1540    1.1480 O.co2     1 MTX        -0.5690
     34 H1         14.4194  -35.1697   -5.5999 H         1 MTX         0.1844
     35 H2         12.7506  -34.5592   -5.7588 H         1 MTX         0.1844
     36 H3         10.3477  -35.6539   -0.5960 H         1 MTX         0.1886
     37 H4          9.7813  -34.9370   -2.1283 H         1 MTX         0.1886
     38 H5         15.5693  -37.7976    0.7185 H         1 MTX         0.0952
     39 H6         13.7198  -38.6003    2.2788 H         1 MTX         0.0719
     40 H7         12.2135  -37.6237    2.3440 H         1 MTX         0.0719
     41 H8         13.9400  -34.7221    3.9044 H         1 MTX         0.0482
     42 H9         12.3169  -35.4354    3.6160 H         1 MTX         0.0482
     43 H10        13.2768  -34.8003    2.2369 H         1 MTX         0.0482
     44 H11        17.6164  -39.2714    3.8385 H         1 MTX         0.0636
     45 H12        15.2025  -38.9829    3.2942 H         1 MTX         0.0530
     46 H13        15.6990  -34.7291    3.4360 H         1 MTX         0.0530
     47 H14        18.0998  -34.9866    3.9705 H         1 MTX         0.0636
     48 H15        20.0202  -35.5132    3.5178 H         1 MTX         0.1864
     49 H16        21.8162  -37.0388    5.3292 H         1 MTX         0.0726
     50 H17        23.5794  -36.3393    3.4050 H         1 MTX         0.0323
     51 H18        22.1155  -36.4674    2.3719 H         1 MTX         0.0323
     52 H19        21.7466  -38.7601    3.0910 H         1 MTX         0.0432
     53 H20        23.0903  -38.6444    4.2775 H         1 MTX         0.0432
@<TRIPOS>BOND
     1    1    2 ar 
     2   12    1 ar 
     3    2    3 1  
     4    4    2 ar 
     5    5    4 ar 
     6    5    6 1  
     7    7    5 ar 
     8    8    7 ar 
     9    7   12 ar 
    10    9    8 ar 
    11    9   10 ar 
    12   13    9 1  
    13   10   11 ar 
    14   11   12 ar 
    15   14   13 1  
    16   14   15 1  
    17   19   14 1  
    18   17   16 ar 
    19   16   21 ar 
    20   16   22 1  
    21   18   17 ar 
    22   18   19 ar 
    23   19   20 ar 
    24   20   21 ar 
    25   22   23 2  
    26   22   24 am 
    27   24   25 1  
    28   25   26 1  
    29   25   29 1  
    30   26   27 ar 
    31   26   28 ar 
    32   29   30 1  
    33   30   31 1  
    34   31   32 ar 
    35   31   33 ar 
    36    3   34 1  
    37    3   35 1  
    38    6   36 1  
    39    6   37 1  
    40   10   38 1  
    41   13   39 1  
    42   13   40 1  
    43   15   41 1  
    44   15   42 1  
    45   15   43 1  
    46   17   44 1  
    47   18   45 1  
    48   20   46 1  
    49   21   47 1  
    50   24   48 1  
    51   25   49 1  
    52   29   50 1  
    53   29   51 1  
    54   30   52 1  
    55   30   53 1  
@<TRIPOS>SUBSTRUCTURE
     1 MTX         1

