### 
### Created by X-TOOL on Mon Sep 10 21:13:14 2018
### 

@<TRIPOS>MOLECULE
4kn1_ligand
   50    52     1     0     0
SMALL
GAST_HUCK


@<TRIPOS>ATOM
      1 C          19.8560  -36.7780    4.3790 C.2       1 04J         0.1968
      2 N          20.5710  -35.7250    4.0080 N.am      1 04J        -0.2725
      3 O          20.4610  -37.8390    5.0780 O.2       1 04J        -0.3908
      4 N1         14.0760  -35.7080   -3.0120 N.ar      1 04J        -0.2668
      5 O1         23.5810  -33.9760    4.8250 O.co2     1 04J        -0.5666
      6 C2         13.0130  -35.2780   -3.7760 C.ar      1 04J         0.1670
      7 O2         21.6030  -33.7570    5.6390 O.co2     1 04J        -0.5666
      8 N3         11.7990  -34.9990   -3.1840 N.ar      1 04J        -0.2298
      9 C4         11.6300  -35.1490   -1.8210 C.ar      1 04J         0.1540
     10 N5         12.5430  -35.7180    0.3200 N.ar      1 04J        -0.2616
     11 C6         13.6070  -36.1460    1.0920 C.ar      1 04J         0.0824
     12 C7         14.8250  -36.4300    0.4860 C.ar      1 04J         0.0478
     13 N8         14.9780  -36.2800   -0.8790 N.ar      1 04J        -0.2649
     14 C9         13.4360  -36.3020    2.5870 C.3       1 04J         0.0801
     15 CA         21.9940  -35.6970    4.2890 C.3       1 04J         0.0951
     16 CB         22.7840  -35.9300    3.0010 C.3       1 04J        -0.0064
     17 CD         23.2950  -38.3760    2.8690 C.2       1 04J         0.0350
     18 CG         23.8480  -37.0080    3.1930 C.3       1 04J         0.0038
     19 CT         22.4160  -34.4120    4.9510 C.2       1 04J         0.0601
     20 N10        14.3090  -37.3320    3.1210 N.pl3     1 04J        -0.3056
     21 C11        18.3940  -36.8660    4.0450 C.ar      1 04J         0.0362
     22 C12        17.8150  -38.1270    3.9670 C.ar      1 04J        -0.0535
     23 C13        16.4660  -38.2600    3.6630 C.ar      1 04J        -0.0381
     24 C14        15.6840  -37.1350    3.4270 C.ar      1 04J         0.0453
     25 C15        16.2580  -35.8670    3.5100 C.ar      1 04J        -0.0381
     26 C16        17.6140  -35.7300    3.8170 C.ar      1 04J        -0.0535
     27 C4A        12.6980  -35.5750   -1.0450 C.ar      1 04J         0.1326
     28 C8A        13.9180  -35.8550   -1.6490 C.ar      1 04J         0.1183
     29 NA2        13.1530  -35.1350   -5.0890 N.pl3     1 04J        -0.3051
     30 NA4        10.4560  -34.8800   -1.2520 N.pl3     1 04J        -0.3052
     31 OE1        22.9820  -38.6680    1.6950 O.co2     1 04J        -0.5690
     32 OE2        23.1410  -39.2300    3.7690 O.co2     1 04J        -0.5690
     33 H1         20.1337  -34.9576    3.5391 H         1 04J         0.1864
     34 H2         15.6597  -36.7711    1.0876 H         1 04J         0.0952
     35 H3         12.3916  -36.5737    2.8003 H         1 04J         0.0717
     36 H4         13.6730  -35.3451    3.0751 H         1 04J         0.0717
     37 H5         22.2182  -36.5207    4.9827 H         1 04J         0.0726
     38 H6         23.2743  -34.9906    2.7059 H         1 04J         0.0323
     39 H7         22.0912  -36.2470    2.2076 H         1 04J         0.0323
     40 H8         24.1883  -36.9958    4.2390 H         1 04J         0.0432
     41 H9         24.6985  -36.7968    2.5282 H         1 04J         0.0432
     42 H10        13.9068  -38.2652    3.2890 H         1 04J         0.1805
     43 H11        18.4183  -39.0101    4.1440 H         1 04J         0.0636
     44 H12        16.0205  -39.2468    3.6095 H         1 04J         0.0530
     45 H13        15.6510  -34.9859    3.3360 H         1 04J         0.0530
     46 H14        18.0600  -34.7439    3.8781 H         1 04J         0.0636
     47 H15        14.0575  -35.3420   -5.5360 H         1 04J         0.1844
     48 H16        12.3570  -34.8171   -5.6602 H         1 04J         0.1844
     49 H17        10.3383  -34.9944   -0.2352 H         1 04J         0.1886
     50 H18         9.6659  -34.5576   -1.8289 H         1 04J         0.1886
@<TRIPOS>BOND
     1    1    2 am 
     2    1    3 2  
     3   21    1 1  
     4    2   15 1  
     5    4    6 ar 
     6   28    4 ar 
     7   19    5 ar 
     8    8    6 ar 
     9    6   29 1  
    10   19    7 ar 
    11    9    8 ar 
    12   27    9 ar 
    13    9   30 1  
    14   11   10 ar 
    15   10   27 ar 
    16   11   12 ar 
    17   14   11 1  
    18   12   13 ar 
    19   13   28 ar 
    20   20   14 1  
    21   15   16 1  
    22   15   19 1  
    23   16   18 1  
    24   18   17 1  
    25   17   31 ar 
    26   17   32 ar 
    27   24   20 1  
    28   22   21 ar 
    29   21   26 ar 
    30   23   22 ar 
    31   23   24 ar 
    32   24   25 ar 
    33   25   26 ar 
    34   27   28 ar 
    35    2   33 1  
    36   12   34 1  
    37   14   35 1  
    38   14   36 1  
    39   15   37 1  
    40   16   38 1  
    41   16   39 1  
    42   18   40 1  
    43   18   41 1  
    44   20   42 1  
    45   22   43 1  
    46   23   44 1  
    47   25   45 1  
    48   26   46 1  
    49   29   47 1  
    50   29   48 1  
    51   30   49 1  
    52   30   50 1  
@<TRIPOS>SUBSTRUCTURE
     1 04J         1

