### 
### Created by X-TOOL on Mon Sep 10 21:13:14 2018
### 

@<TRIPOS>MOLECULE
4kn2_ligand
   51    53     1     0     0
SMALL
GAST_HUCK


@<TRIPOS>ATOM
      1 C1         39.6400    5.0370   39.2230 C.ar      1 LYA        -0.0358
      2 C2         39.0470    4.5260   40.3700 C.ar      1 LYA        -0.0542
      3 C3         39.8080    3.8550   41.3120 C.ar      1 LYA        -0.0485
      4 C4         41.1670    3.7000   41.0880 C.ar      1 LYA         0.0428
      5 C5         41.7760    4.2110   39.9460 C.ar      1 LYA        -0.0485
      6 C6         41.0050    4.8850   39.0030 C.ar      1 LYA        -0.0542
      7 C7         38.7360    5.7610   38.2360 C.3       1 LYA        -0.0044
      8 C8         39.2340    6.5250   37.0470 C.3       1 LYA         0.0083
      9 C9         38.1140    7.2870   36.3320 C.2       1 LYA         0.0645
     10 C10        37.2830    6.7890   35.3380 C.2       1 LYA         0.1255
     11 N11        36.4310    7.7730   34.9990 N.pl3     1 LYA        -0.1651
     12 C12        36.6800    8.8700   35.7350 C.2       1 LYA         0.2722
     13 C13        37.7300    8.6000   36.5900 C.2       1 LYA         0.1658
     14 C14        38.2190    9.6460   37.5250 C.2       1 LYA         0.2106
     15 O15        39.1460    9.3920   38.2780 O.2       1 LYA        -0.3898
     16 N16        37.6080   10.9330   37.5480 N.am      1 LYA        -0.2578
     17 C17        36.5130   11.1930   36.6620 C.cat     1 LYA         0.1970
     18 N18        36.0550   10.1700   35.7570 N.pl3     1 LYA        -0.2053
     19 N19        35.8690   12.4780   36.6470 N.pl3     1 LYA        -0.3344
     20 C20        41.9770    2.9500   42.1260 C.2       1 LYA         0.2016
     21 O21        42.6830    2.0150   41.7770 O.2       1 LYA        -0.3877
     22 N22        41.8530    3.3630   43.5090 N.am      1 LYA        -0.2716
     23 C23        42.6180    2.7350   44.5680 C.3       1 LYA         0.0953
     24 C24        43.6270    3.6860   45.1560 C.3       1 LYA        -0.0064
     25 C25        44.2970    4.6320   44.1910 C.3       1 LYA         0.0038
     26 C26        45.5340    5.3550   44.6360 C.2       1 LYA         0.0350
     27 O27        46.5990    4.7080   44.8540 O.co2     1 LYA        -0.5690
     28 O28        45.5100    6.6090   44.7850 O.co2     1 LYA        -0.5690
     29 C29        41.6350    2.2920   45.6070 C.2       1 LYA         0.0601
     30 O30        40.6670    1.5540   45.2460 O.co2     1 LYA        -0.5666
     31 O31        41.7780    2.6550   46.8220 O.co2     1 LYA        -0.5666
     32 H1         37.9822    4.6532   40.5287 H         1 LYA         0.0570
     33 H2         39.3486    3.4575   42.2098 H         1 LYA         0.0652
     34 H3         42.8416    4.0853   39.7920 H         1 LYA         0.0652
     35 H4         41.4635    5.2871   38.1068 H         1 LYA         0.0570
     36 H5         38.1597    6.4825   38.8337 H         1 LYA         0.0465
     37 H6         38.0582    4.9934   37.8343 H         1 LYA         0.0465
     38 H7         39.6888    5.8178   36.3378 H         1 LYA         0.0497
     39 H8         39.9933    7.2464   37.3833 H         1 LYA         0.0497
     40 H9         37.3149    5.7874   34.9117 H         1 LYA         0.1624
     41 H10        35.6961    7.6972   34.2813 H         1 LYA         0.2656
     42 H11        37.9377   11.6419   38.1715 H         1 LYA         0.1809
     43 H12        35.2720   10.3691   35.1181 H         1 LYA         0.2436
     44 H13        36.1849   13.2199   37.2879 H         1 LYA         0.1764
     45 H14        35.0917   12.6569   35.9953 H         1 LYA         0.1764
     46 H15        41.2212    4.1030   43.7398 H         1 LYA         0.1866
     47 H16        43.1504    1.8600   44.1668 H         1 LYA         0.0726
     48 H17        44.4133    3.0852   45.6363 H         1 LYA         0.0323
     49 H18        43.1126    4.2920   45.9163 H         1 LYA         0.0323
     50 H19        43.5548    5.3968   43.9186 H         1 LYA         0.0432
     51 H20        44.5662    4.0480   43.2986 H         1 LYA         0.0432
@<TRIPOS>BOND
     1    1    2 ar 
     2    1    6 ar 
     3    1    7 1  
     4    2    3 ar 
     5    3    4 ar 
     6    4    5 ar 
     7    4   20 1  
     8    5    6 ar 
     9    7    8 1  
    10    8    9 1  
    11    9   10 2  
    12    9   13 1  
    13   10   11 1  
    14   11   12 1  
    15   12   13 2  
    16   12   18 1  
    17   13   14 1  
    18   14   15 2  
    19   14   16 am 
    20   16   17 ar 
    21   17   18 ar 
    22   17   19 ar 
    23   20   21 2  
    24   20   22 am 
    25   22   23 1  
    26   23   24 1  
    27   23   29 1  
    28   24   25 1  
    29   25   26 1  
    30   26   27 ar 
    31   26   28 ar 
    32   29   30 ar 
    33   29   31 ar 
    34    2   32 1  
    35    3   33 1  
    36    5   34 1  
    37    6   35 1  
    38    7   36 1  
    39    7   37 1  
    40    8   38 1  
    41    8   39 1  
    42   10   40 1  
    43   11   41 1  
    44   16   42 1  
    45   18   43 1  
    46   19   44 1  
    47   19   45 1  
    48   22   46 1  
    49   23   47 1  
    50   24   48 1  
    51   24   49 1  
    52   25   50 1  
    53   25   51 1  
@<TRIPOS>SUBSTRUCTURE
     1 LYA         1

