### 
### Created by X-TOOL on Mon Sep 10 21:13:16 2018
### 

@<TRIPOS>MOLECULE
4kn4_ligand
  133   138     1     0     0
SMALL
GAST_HUCK


@<TRIPOS>ATOM
      1 C1       -113.3930   26.6490    9.2320 C.2       1 1RL         0.1596
      2 C2       -112.2230   26.3250    8.4650 C.2       1 1RL         0.1514
      3 C3       -110.9560   26.7100    8.8980 C.2       1 1RL         0.1681
      4 C4       -110.7610   27.4210   10.0990 C.2       1 1RL         0.0768
      5 C5       -111.9680   28.5240   12.2710 C.ar      1 1RL         0.0696
      6 C6       -113.0680   28.8430   12.8690 C.ar      1 1RL         0.1169
      7 C7       -114.5380   28.5120   12.3880 C.ar      1 1RL         0.0296
      8 C8       -114.4260   27.6800   11.2190 C.ar      1 1RL         0.1110
      9 C9       -113.2450   27.4030   10.5100 C.ar      1 1RL         0.0613
     10 C10      -111.9800   27.7770   10.9460 C.ar      1 1RL         0.0194
     11 C11      -111.0260   28.9660   13.0070 C.2       1 1RL         0.2033
     12 C12      -111.3130   29.7040   14.0800 C.3       1 1RL         0.2520
     13 C13      -110.4890   29.5170   15.3690 C.3       1 1RL        -0.0007
     14 C14      -115.7630   28.5560   13.2990 C.3       1 1RL        -0.0306
     15 C15      -112.7460   26.3840    6.0440 C.2       1 1RL         0.2057
     16 C16      -112.9650   25.6980    4.6570 C.3       1 1RL         0.0518
     17 C17      -113.5090   26.5520    3.4990 C.3       1 1RL        -0.0330
     18 C18      -112.5270   27.4250    2.7140 C.3       1 1RL        -0.0504
     19 C19      -111.1770   27.7230    3.3780 C.3       1 1RL        -0.0480
     20 C20      -110.7280   29.1670    3.1400 C.3       1 1RL        -0.0175
     21 C21      -111.0110   30.0410    4.3910 C.3       1 1RL         0.0627
     22 C22      -109.9530   31.1150    4.7520 C.3       1 1RL         0.0088
     23 C23      -110.4910   31.9640    5.9330 C.3       1 1RL         0.0654
     24 C24      -109.7340   31.7630    7.2760 C.3       1 1RL         0.0136
     25 C25      -110.2070   32.8300    8.2810 C.3       1 1RL         0.0974
     26 C26      -110.6070   32.1670    9.6070 C.3       1 1RL         0.0136
     27 C27      -110.5450   33.2160   10.7340 C.3       1 1RL         0.0657
     28 C28      -111.0910   32.7190   12.0580 C.3       1 1RL        -0.0029
     29 C29      -110.8720   31.3920   12.3990 C.3       1 1RL         0.0515
     30 C30      -112.2710   24.3550    4.4220 C.3       1 1RL        -0.0449
     31 C31      -109.2770   29.1070    2.7280 C.3       1 1RL        -0.0601
     32 C32      -109.6070   32.0110    3.5880 C.3       1 1RL        -0.0577
     33 C33      -108.2290   31.8430    7.1360 C.3       1 1RL        -0.0573
     34 C34      -111.9790   31.6620    9.4300 C.3       1 1RL        -0.0573
     35 C35      -109.2180   34.9800    7.6560 C.2       1 1RL         0.2309
     36 C36      -107.8900   35.7350    7.4280 C.3       1 1RL         0.0372
     37 C37      -110.9620   35.4890   11.1600 C.3       1 1RL         0.0368
     38 N1       -112.3800   25.5990    7.2300 N.am      1 1RL        -0.2354
     39 O01      -109.8840   26.3320    8.0520 O.3       1 1RL        -0.2617
     40 C01      -108.5820   26.7010    8.4550 C.ar      1 1RL         0.1303
     41 C02      -108.3720   27.4060    9.6390 C.ar      1 1RL         0.0990
     42 N3       -109.4580   27.7490   10.4280 N.2       1 1RL        -0.2977
     43 O1       -114.4840   26.2960    8.8130 O.2       1 1RL        -0.3899
     44 O2       -115.6460   27.1680   10.6940 O.3       1 1RL        -0.3293
     45 O3       -112.8140   29.6260   14.2430 O.3       1 1RL        -0.2807
     46 O4       -109.8640   28.7300   12.7750 O.2       1 1RL        -0.3326
     47 O5       -111.1090   31.0210   13.7650 O.3       1 1RL        -0.3457
     48 O6       -111.3200   34.3350   10.4110 O.3       1 1RL        -0.3793
     49 O7       -109.2190   33.8210    8.4920 O.3       1 1RL        -0.2730
     50 O8       -110.2580   35.5290    7.3820 O.2       1 1RL        -0.3707
     51 O9       -111.8220   31.6230    6.1330 O.3       1 1RL        -0.3911
     52 O10      -112.2370   30.6760    4.2110 O.3       1 1RL        -0.3912
     53 O11      -112.8590   27.5880    6.1670 O.2       1 1RL        -0.3845
     54 C03      -107.5590   26.3120    7.5950 C.ar      1 1RL        -0.0359
     55 C04      -106.2420   26.6330    7.9140 C.ar      1 1RL        -0.0780
     56 C05      -105.9640   27.3420    9.0910 C.ar      1 1RL        -0.0408
     57 C06      -107.0040   27.7270    9.9510 C.ar      1 1RL         0.1080
     58 O        -106.7260   28.4620   11.1670 O.3       1 1RL        -0.3119
     59 C07      -105.3310   28.7310   11.5300 C.3       1 1RL         0.1106
     60 C08      -105.2660   29.1830   12.9850 C.3       1 1RL        -0.0033
     61 N        -105.6520   28.0880   13.8910 N.4       1 1RL         0.2368
     62 C09      -105.0600   28.3430   15.1830 C.3       1 1RL        -0.0347
     63 C38      -105.2630   27.1560   16.1370 C.3       1 1RL        -0.0245
     64 C39      -107.0860   28.0030   14.0320 C.3       1 1RL        -0.0347
     65 C        -107.5670   26.6250   13.5550 C.3       1 1RL        -0.0245
     66 H1       -110.8614   30.2021   16.1448 H         1 1RL         0.0270
     67 H2       -109.4310   29.7367   15.1630 H         1 1RL         0.0270
     68 H3       -110.5865   28.4788   15.7192 H         1 1RL         0.0270
     69 H4       -115.5872   29.2720   14.1154 H         1 1RL         0.0357
     70 H5       -115.9425   27.5560   13.7206 H         1 1RL         0.0357
     71 H6       -116.6415   28.8718   12.7172 H         1 1RL         0.0357
     72 H7       -113.9405   25.2561    4.9082 H         1 1RL         0.0540
     73 H8       -114.2740   27.2210    3.9199 H         1 1RL         0.0292
     74 H9       -113.9786   25.8642    2.7804 H         1 1RL         0.0292
     75 H10      -113.0212   28.3883    2.5198 H         1 1RL         0.0267
     76 H11      -112.3226   26.9186    1.7591 H         1 1RL         0.0267
     77 H12      -110.4190   27.0424    2.9631 H         1 1RL         0.0269
     78 H13      -111.2686   27.5534    4.4610 H         1 1RL         0.0269
     79 H14      -111.3056   29.5896    2.3046 H         1 1RL         0.0323
     80 H15      -111.0867   29.3598    5.2514 H         1 1RL         0.0599
     81 H16      -109.0343   30.6016    5.0719 H         1 1RL         0.0348
     82 H17      -110.4204   33.0257    5.6541 H         1 1RL         0.0600
     83 H18      -109.9880   30.7664    7.6663 H         1 1RL         0.0352
     84 H19      -111.0963   33.3230    7.8614 H         1 1RL         0.0656
     85 H20      -109.9266   31.3349    9.8408 H         1 1RL         0.0352
     86 H21      -109.4948   33.5157   10.8657 H         1 1RL         0.0600
     87 H22      -112.1795   32.8766   12.0422 H         1 1RL         0.0312
     88 H23      -110.6423   33.3377   12.8491 H         1 1RL         0.0312
     89 H24      -109.8215   31.1599   12.1700 H         1 1RL         0.0559
     90 H25      -111.5296   30.7750   11.7691 H         1 1RL         0.0559
     91 H26      -111.9672   23.9253    5.3880 H         1 1RL         0.0257
     92 H27      -111.3819   24.5069    3.7924 H         1 1RL         0.0257
     93 H28      -112.9649   23.6671    3.9168 H         1 1RL         0.0257
     94 H29      -109.1747   28.4686    1.8380 H         1 1RL         0.0233
     95 H30      -108.6792   28.6877    3.5507 H         1 1RL         0.0233
     96 H31      -108.9198   30.1209    2.4949 H         1 1RL         0.0233
     97 H32      -109.2266   31.4005    2.7558 H         1 1RL         0.0234
     98 H33      -108.8354   32.7316    3.8967 H         1 1RL         0.0234
     99 H34      -110.5068   32.5539    3.2630 H         1 1RL         0.0234
    100 H35      -107.8865   31.0824    6.4189 H         1 1RL         0.0234
    101 H36      -107.7596   31.6622    8.1142 H         1 1RL         0.0234
    102 H37      -107.9471   32.8424    6.7731 H         1 1RL         0.0234
    103 H38      -111.9938   30.9166    8.6212 H         1 1RL         0.0234
    104 H39      -112.6466   32.4971    9.1712 H         1 1RL         0.0234
    105 H40      -112.3214   31.1950   10.3653 H         1 1RL         0.0234
    106 H41      -108.0663   36.5951    6.7654 H         1 1RL         0.0483
    107 H42      -107.1584   35.0579    6.9630 H         1 1RL         0.0483
    108 H43      -107.4995   36.0898    8.3932 H         1 1RL         0.0483
    109 H44      -111.6031   36.3322   10.8632 H         1 1RL         0.0524
    110 H45      -109.9096   35.7417   10.9636 H         1 1RL         0.0524
    111 H46      -111.0964   35.2861   12.2327 H         1 1RL         0.0524
    112 H47      -112.2463   24.6091    7.1829 H         1 1RL         0.2258
    113 H48      -115.7876   27.5207    9.8234 H         1 1RL         0.2504
    114 H49      -112.3028   31.7393    5.3220 H         1 1RL         0.2098
    115 H50      -112.4837   31.1193    5.0142 H         1 1RL         0.2098
    116 H51      -107.7850   25.7651    6.6868 H         1 1RL         0.0455
    117 H52      -105.4347   26.3357    7.2545 H         1 1RL         0.0564
    118 H53      -104.9392   27.5944    9.3384 H         1 1RL         0.0459
    119 H54      -104.9288   29.5229   10.8811 H         1 1RL         0.0670
    120 H55      -104.7353   27.8151   11.4030 H         1 1RL         0.0670
    121 H56      -105.9524   30.0301   13.1304 H         1 1RL         0.0841
    122 H57      -104.2387   29.4991   13.2188 H         1 1RL         0.0841
    123 H58      -105.3052   27.2153   13.5248 H         1 1RL         0.2034
    124 H59      -105.5272   29.2376   15.6205 H         1 1RL         0.0812
    125 H60      -103.9817   28.5182   15.0543 H         1 1RL         0.0812
    126 H61      -104.8010   27.3836   17.1090 H         1 1RL         0.0281
    127 H62      -104.7939   26.2576   15.7095 H         1 1RL         0.0281
    128 H63      -106.3394   26.9769   16.2757 H         1 1RL         0.0281
    129 H64      -107.5612   28.7875   13.4248 H         1 1RL         0.0812
    130 H65      -107.3593   28.1411   15.0885 H         1 1RL         0.0812
    131 H66      -108.6598   26.5607   13.6626 H         1 1RL         0.0281
    132 H67      -107.0920   25.8404   14.1622 H         1 1RL         0.0281
    133 H68      -107.2939   26.4868   12.4985 H         1 1RL         0.0281
@<TRIPOS>BOND
     1    1    2 1  
     2    9    1 1  
     3    1   43 2  
     4    3    2 2  
     5   38    2 1  
     6    4    3 1  
     7    3   39 1  
     8   10    4 1  
     9    4   42 2  
    10    6    5 ar 
    11    5   10 ar 
    12   11    5 1  
    13    6    7 ar 
    14   45    6 1  
    15    7    8 ar 
    16    7   14 1  
    17    8    9 ar 
    18    8   44 1  
    19   10    9 ar 
    20   12   11 1  
    21   11   46 2  
    22   12   13 1  
    23   12   45 1  
    24   47   12 1  
    25   16   15 1  
    26   15   38 am 
    27   15   53 2  
    28   17   16 1  
    29   16   30 1  
    30   18   17 1  
    31   19   18 1  
    32   20   19 1  
    33   21   20 1  
    34   20   31 1  
    35   22   21 1  
    36   21   52 1  
    37   23   22 1  
    38   22   32 1  
    39   24   23 1  
    40   23   51 1  
    41   25   24 1  
    42   24   33 1  
    43   25   26 1  
    44   49   25 1  
    45   26   27 1  
    46   26   34 1  
    47   27   28 1  
    48   27   48 1  
    49   28   29 1  
    50   29   47 1  
    51   35   36 1  
    52   35   49 1  
    53   35   50 2  
    54   48   37 1  
    55   39   40 1  
    56   40   41 ar 
    57   40   54 ar 
    58   41   42 1  
    59   41   57 ar 
    60   54   55 ar 
    61   55   56 ar 
    62   56   57 ar 
    63   57   58 1  
    64   58   59 1  
    65   59   60 1  
    66   60   61 1  
    67   61   62 1  
    68   61   64 1  
    69   62   63 1  
    70   64   65 1  
    71   13   66 1  
    72   13   67 1  
    73   13   68 1  
    74   14   69 1  
    75   14   70 1  
    76   14   71 1  
    77   16   72 1  
    78   17   73 1  
    79   17   74 1  
    80   18   75 1  
    81   18   76 1  
    82   19   77 1  
    83   19   78 1  
    84   20   79 1  
    85   21   80 1  
    86   22   81 1  
    87   23   82 1  
    88   24   83 1  
    89   25   84 1  
    90   26   85 1  
    91   27   86 1  
    92   28   87 1  
    93   28   88 1  
    94   29   89 1  
    95   29   90 1  
    96   30   91 1  
    97   30   92 1  
    98   30   93 1  
    99   31   94 1  
   100   31   95 1  
   101   31   96 1  
   102   32   97 1  
   103   32   98 1  
   104   32   99 1  
   105   33  100 1  
   106   33  101 1  
   107   33  102 1  
   108   34  103 1  
   109   34  104 1  
   110   34  105 1  
   111   36  106 1  
   112   36  107 1  
   113   36  108 1  
   114   37  109 1  
   115   37  110 1  
   116   37  111 1  
   117   38  112 1  
   118   44  113 1  
   119   51  114 1  
   120   52  115 1  
   121   54  116 1  
   122   55  117 1  
   123   56  118 1  
   124   59  119 1  
   125   59  120 1  
   126   60  121 1  
   127   60  122 1  
   128   61  123 1  
   129   62  124 1  
   130   62  125 1  
   131   63  126 1  
   132   63  127 1  
   133   63  128 1  
   134   64  129 1  
   135   64  130 1  
   136   65  131 1  
   137   65  132 1  
   138   65  133 1  
@<TRIPOS>SUBSTRUCTURE
     1 1RL         1

