### 
### Created by X-TOOL on Mon Sep 10 21:13:20 2018
### 

@<TRIPOS>MOLECULE
4knb_ligand
   56    60     1     0     0
SMALL
GAST_HUCK


@<TRIPOS>ATOM
      1 F12        11.3710   -1.8070   22.3920 F         1 1RU        -0.1842
      2 C5         10.1490   -1.5040   21.9700 C.ar      1 1RU         0.1404
      3 C6          9.6500   -0.2180   22.1050 C.ar      1 1RU        -0.0339
      4 C4          8.3710    0.0770   21.6530 C.ar      1 1RU        -0.0561
      5 C2          7.5930   -0.9130   21.0660 C.ar      1 1RU         0.0403
      6 CL2         6.0190   -0.5080   20.5160 Cl        1 1RU        -0.0808
      7 C3          9.3710   -2.4930   21.3920 C.ar      1 1RU         0.0774
      8 CL1        10.0530   -4.0640   21.2680 Cl        1 1RU        -0.0787
      9 C1          8.0820   -2.2130   20.9360 C.ar      1 1RU         0.0157
     10 C7          7.2380   -3.3030   20.2860 C.3       1 1RU         0.1094
     11 C8          7.7720   -3.5380   18.8680 C.3       1 1RU        -0.0244
     12 O9          7.2650   -4.5220   21.0500 O.3       1 1RU        -0.3042
     13 C13         6.6230   -4.7640   22.2490 C.ar      1 1RU         0.1682
     14 C18         5.6900   -3.8990   22.8250 C.ar      1 1RU         0.1610
     15 O19         5.2790   -2.8200   22.4060 O.3       1 1RU        -0.2602
     16 C20         4.4370   -2.3420   23.1690 C.2       1 1RU         0.0830
     17 C21         4.2520   -3.1430   24.2820 C.2       1 1RU        -0.0188
     18 C17         5.0800   -4.1970   24.0240 C.ar      1 1RU         0.0023
     19 C16         5.3570   -5.3530   24.7150 C.ar      1 1RU        -0.0219
     20 N15         6.2800   -6.2270   24.1620 N.ar      1 1RU        -0.3124
     21 C14         6.9090   -5.9420   22.9440 C.ar      1 1RU         0.1256
     22 N22         7.8410   -6.8650   22.4290 N.pl3     1 1RU        -0.3324
     23 C23         3.3790   -2.8640   25.4670 C.2       1 1RU        -0.0188
     24 C27         3.3510   -3.4540   26.7110 C.2       1 1RU         0.0525
     25 N26         2.3820   -2.8420   27.4260 N.pl3     1 1RU        -0.2059
     26 N25         1.8280   -1.9330   26.7400 N.2       1 1RU        -0.2173
     27 C24         2.3980   -1.9030   25.5220 C.2       1 1RU        -0.0007
     28 C28         2.0090   -3.1650   28.8240 C.3       1 1RU         0.0906
     29 C33         2.6550   -2.1740   29.8090 C.3       1 1RU         0.0201
     30 C32         2.1830   -2.4210   31.2530 C.3       1 1RU        -0.0307
     31 N31         0.7140   -2.4000   31.3390 N.4       1 1RU         0.2271
     32 C30         0.0530   -3.3670   30.4510 C.3       1 1RU        -0.0307
     33 C29         0.4730   -3.1200   28.9960 C.3       1 1RU         0.0201
     34 H          10.2567    0.5552   22.5622 H         1 1RU         0.0547
     35 H           7.9785    1.0820   21.7583 H         1 1RU         0.0597
     36 H           6.1959   -2.9564   20.2241 H         1 1RU         0.0809
     37 H           7.1771   -4.3226   18.3776 H         1 1RU         0.0281
     38 H           8.8242   -3.8544   18.9202 H         1 1RU         0.0281
     39 H           7.6977   -2.6057   18.2890 H         1 1RU         0.0281
     40 H           3.9063   -1.4081   22.9899 H         1 1RU         0.0998
     41 H           4.8709   -5.5731   25.6586 H         1 1RU         0.0631
     42 H           8.0474   -7.7315   22.9462 H         1 1RU         0.1699
     43 H           8.3159   -6.6732   21.5354 H         1 1RU         0.1699
     44 H           3.9919   -4.2645   27.0549 H         1 1RU         0.0948
     45 H           2.1266   -1.2277   24.7119 H         1 1RU         0.0650
     46 H           2.3648   -4.1796   29.0562 H         1 1RU         0.0680
     47 H           2.3827   -1.1497   29.5148 H         1 1RU         0.0349
     48 H           3.7481   -2.2895   29.7662 H         1 1RU         0.0349
     49 H           2.5926   -1.6352   31.9047 H         1 1RU         0.0815
     50 H           2.5488   -3.4028   31.5880 H         1 1RU         0.0815
     51 H           0.3947   -1.4754   31.0955 H         1 1RU         0.2013
     52 H           0.4484   -2.6080   32.2889 H         1 1RU         0.2013
     53 H          -1.0377   -3.2549   30.5387 H         1 1RU         0.0815
     54 H           0.3416   -4.3870   30.7447 H         1 1RU         0.0815
     55 H           0.0209   -3.8945   28.3590 H         1 1RU         0.0349
     56 H           0.1090   -2.1300   28.6839 H         1 1RU         0.0349
@<TRIPOS>BOND
     1    1    2 1  
     2    2    3 ar 
     3    2    7 ar 
     4    3    4 ar 
     5    4    5 ar 
     6    5    6 1  
     7    5    9 ar 
     8    7    8 1  
     9    7    9 ar 
    10    9   10 1  
    11   10   11 1  
    12   10   12 1  
    13   12   13 1  
    14   13   14 ar 
    15   13   21 ar 
    16   14   15 1  
    17   14   18 ar 
    18   15   16 1  
    19   16   17 2  
    20   17   18 1  
    21   17   23 1  
    22   18   19 ar 
    23   19   20 ar 
    24   20   21 ar 
    25   21   22 1  
    26   23   24 2  
    27   23   27 1  
    28   24   25 1  
    29   25   26 1  
    30   25   28 1  
    31   26   27 2  
    32   28   29 1  
    33   28   33 1  
    34   29   30 1  
    35   30   31 1  
    36   31   32 1  
    37   32   33 1  
    38    3   34 1  
    39    4   35 1  
    40   10   36 1  
    41   11   37 1  
    42   11   38 1  
    43   11   39 1  
    44   16   40 1  
    45   19   41 1  
    46   22   42 1  
    47   22   43 1  
    48   24   44 1  
    49   27   45 1  
    50   28   46 1  
    51   29   47 1  
    52   29   48 1  
    53   30   49 1  
    54   30   50 1  
    55   31   51 1  
    56   31   52 1  
    57   32   53 1  
    58   32   54 1  
    59   33   55 1  
    60   33   56 1  
@<TRIPOS>SUBSTRUCTURE
     1 1RU         1

