### 
### Created by X-TOOL on Mon Sep 10 21:13:15 2018
### 

@<TRIPOS>MOLECULE
4kne_ligand
   33    34     1     0     0
SMALL
GAST_HUCK


@<TRIPOS>ATOM
      1 N1          3.2000  -16.3100   -1.3330 N.pl3     1 1CY        -0.3034
      2 C2          3.1980  -15.0260   -0.8980 C.cat     1 1CY         0.1345
      3 N3          2.6400  -14.6860    0.2780 N.pl3     1 1CY        -0.3023
      4 C4          2.0340  -15.6070    1.0600 C.cat     1 1CY         0.2321
      5 N5          1.9840  -16.9550    0.6750 N.pl3     1 1CY        -0.1228
      6 C6          2.5230  -17.3750   -0.6150 C.3       1 1CY         0.1820
      7 N7          3.7780  -14.0690   -1.6440 N.pl3     1 1CY        -0.3548
      8 N8          1.4790  -15.2410    2.2370 N.pl3     1 1CY        -0.3323
      9 C9          3.3100  -18.6850   -0.6130 C.3       1 1CY        -0.0007
     10 C10         1.2570  -17.5810   -1.4300 C.3       1 1CY        -0.0007
     11 C11         1.3780  -17.8720    1.5590 C.ar      1 1CY         0.2861
     12 C12         2.2500  -18.5650    2.4080 C.ar      1 1CY         0.1460
     13 C13         1.7750  -19.4890    3.3300 C.ar      1 1CY         0.1118
     14 C14         0.4020  -19.6810    3.4000 C.ar      1 1CY         0.2156
     15 C15        -0.4720  -18.9930    2.5690 C.ar      1 1CY         0.1118
     16 C16         0.0130  -18.0730    1.6550 C.ar      1 1CY         0.1460
     17 CL17       -0.2450  -20.8510    4.5750 Cl        1 1CY         0.1071
     18 H1          3.6998  -16.5382   -2.2042 H         1 1CY         0.1720
     19 H2          2.6753  -13.7046    0.5886 H         1 1CY         0.1921
     20 H3          4.2102  -14.3111   -2.5471 H         1 1CY         0.1649
     21 H4          3.7900  -13.0940   -1.3123 H         1 1CY         0.1649
     22 H5          1.5067  -14.2555    2.5351 H         1 1CY         0.1736
     23 H6          1.0284  -15.9477    2.8357 H         1 1CY         0.1736
     24 H7          3.6658  -18.9005   -1.6313 H         1 1CY         0.0293
     25 H8          2.6592  -19.5033   -0.2711 H         1 1CY         0.0293
     26 H9          4.1716  -18.5941    0.0648 H         1 1CY         0.0293
     27 H10         1.5241  -17.9061   -2.4464 H         1 1CY         0.0293
     28 H11         0.6970  -16.6357   -1.4827 H         1 1CY         0.0293
     29 H12         0.6336  -18.3503   -0.9509 H         1 1CY         0.0293
     30 H13         3.3156  -18.3768    2.3444 H         1 1CY         0.1446
     31 H14         2.4524  -20.0405    3.9720 H         1 1CY         0.1186
     32 H15        -1.5382  -19.1769    2.6361 H         1 1CY         0.1186
     33 H16        -0.6691  -17.5168    1.0221 H         1 1CY         0.1446
@<TRIPOS>BOND
     1    1    2 ar 
     2    1    6 1  
     3    2    3 ar 
     4    2    7 ar 
     5    3    4 ar 
     6    4    5 ar 
     7    4    8 ar 
     8    5    6 1  
     9    5   11 1  
    10    6    9 1  
    11    6   10 1  
    12   11   12 ar 
    13   11   16 ar 
    14   12   13 ar 
    15   13   14 ar 
    16   14   15 ar 
    17   14   17 1  
    18   15   16 ar 
    19    1   18 1  
    20    3   19 1  
    21    7   20 1  
    22    7   21 1  
    23    8   22 1  
    24    8   23 1  
    25    9   24 1  
    26    9   25 1  
    27    9   26 1  
    28   10   27 1  
    29   10   28 1  
    30   10   29 1  
    31   12   30 1  
    32   13   31 1  
    33   15   32 1  
    34   16   33 1  
@<TRIPOS>SUBSTRUCTURE
     1 1CY         1

