### 
### Created by X-TOOL on Mon Sep 10 21:13:13 2018
### 

@<TRIPOS>MOLECULE
4kni_ligand
   37    38     1     0     0
SMALL
GAST_HUCK


@<TRIPOS>ATOM
      1 C2         -4.6610    4.5110   15.3810 C.ar      1 E1E        -0.0271
      2 C4         -4.9710    2.1360   15.8480 C.ar      1 E1E         0.1264
      3 C5         -3.9930    1.7890   14.8900 C.ar      1 E1E        -0.0287
      4 CL1        -6.5620    3.8820   17.2580 Cl        1 E1E        -0.0674
      5 C3         -5.3380    3.4830   16.0700 C.ar      1 E1E         0.0727
      6 S6         -5.7490    0.7870   16.7790 S.o2      1 E1E         0.0683
      7 O8         -7.3190    0.8280   16.5880 O.2       1 E1E        -0.1499
      8 N11        -5.0300   -0.6720   16.1440 N.am      1 E1E        -0.2605
      9 O7         -5.2350    0.9220   18.3090 O.2       1 E1E        -0.1499
     10 C22        -3.6260    4.1880   14.4460 C.ar      1 E1E         0.0343
     11 C1         -3.2980    2.8250   14.1970 C.ar      1 E1E        -0.0410
     12 C9         -2.8360    5.2590   13.7730 C.2       1 E1E         0.1457
     13 O12        -2.6360    6.3170   14.4250 O.2       1 E1E        -0.3773
     14 C10        -2.1370    5.0870   12.4620 C.3       1 E1E         0.0881
     15 S13        -2.0540    6.7070   11.6580 S.3       1 E1E        -0.0396
     16 C14        -3.8120    7.0040   11.5410 C.ar      1 E1E         0.1492
     17 N17        -4.6780    6.1550   12.2110 N.ar      1 E1E        -0.2660
     18 C18        -6.0110    6.3510   12.1140 C.ar      1 E1E         0.0267
     19 C21        -6.8820    5.3830   12.8300 C.3       1 E1E        -0.0129
     20 C19        -6.5020    7.4360   11.3480 C.ar      1 E1E        -0.0162
     21 C16        -5.5920    8.3030   10.6980 C.ar      1 E1E         0.0267
     22 N15        -4.2560    8.0770   10.8050 N.ar      1 E1E        -0.2660
     23 C20        -6.0470    9.4680    9.8820 C.3       1 E1E        -0.0129
     24 H1         -4.9248    5.5471   15.5597 H         1 E1E         0.0679
     25 H2         -3.7728    0.7479   14.6835 H         1 E1E         0.0649
     26 H3         -5.3038   -1.5630   16.5063 H         1 E1E         0.1635
     27 H4         -4.3445   -0.6166   15.4181 H         1 E1E         0.1635
     28 H5         -2.5221    2.5748   13.4826 H         1 E1E         0.0673
     29 H6         -2.6981    4.3840   11.8288 H         1 E1E         0.0632
     30 H7         -1.1209    4.7000   12.6283 H         1 E1E         0.0632
     31 H8         -7.9367    5.6523   12.6720 H         1 E1E         0.0441
     32 H9         -6.6538    5.4104   13.9057 H         1 E1E         0.0441
     33 H10        -6.7003    4.3698   12.4423 H         1 E1E         0.0441
     34 H11        -7.5697    7.6016   11.2600 H         1 E1E         0.0590
     35 H12        -5.1713    9.9953    9.4756 H         1 E1E         0.0441
     36 H13        -6.6273   10.1550   10.5154 H         1 E1E         0.0441
     37 H14        -6.6774    9.1118    9.0539 H         1 E1E         0.0441
@<TRIPOS>BOND
     1    5    1 ar 
     2    1   10 ar 
     3    2    3 ar 
     4    2    5 ar 
     5    2    6 1  
     6    3   11 ar 
     7    5    4 1  
     8    6    7 2  
     9    6    8 am 
    10    6    9 2  
    11   10   11 ar 
    12   10   12 1  
    13   12   13 2  
    14   12   14 1  
    15   14   15 1  
    16   15   16 1  
    17   16   17 ar 
    18   16   22 ar 
    19   17   18 ar 
    20   18   19 1  
    21   18   20 ar 
    22   20   21 ar 
    23   21   22 ar 
    24   21   23 1  
    25    1   24 1  
    26    3   25 1  
    27    8   26 1  
    28    8   27 1  
    29   11   28 1  
    30   14   29 1  
    31   14   30 1  
    32   19   31 1  
    33   19   32 1  
    34   19   33 1  
    35   20   34 1  
    36   23   35 1  
    37   23   36 1  
    38   23   37 1  
@<TRIPOS>SUBSTRUCTURE
     1 E1E         1

