### 
### Created by X-TOOL on Mon Sep 10 21:13:13 2018
### 

@<TRIPOS>MOLECULE
4knj_ligand
   31    32     1     0     0
SMALL
GAST_HUCK


@<TRIPOS>ATOM
      1 O18        -5.2810    0.9990   18.2230 O.2       1 E1F        -0.1499
      2 C13        -1.1540    8.3340   15.0240 C.ar      1 E1F         0.0222
      3 C1         -4.1770    4.0320   14.0120 C.ar      1 E1F         0.0343
      4 C2         -5.5920    3.4000   15.8160 C.ar      1 E1F         0.0727
      5 CL1        -6.6640    3.8650   17.1110 Cl        1 E1F        -0.0674
      6 C21        -5.0940    4.4100   14.9970 C.ar      1 E1F        -0.0271
      7 C5         -3.7880    2.6840   13.7840 C.ar      1 E1F        -0.0410
      8 C4         -4.2970    1.6630   14.6070 C.ar      1 E1F        -0.0287
      9 C3         -5.1810    2.0520   15.6150 C.ar      1 E1F         0.1264
     10 S16        -5.8060    0.7420   16.6810 S.o2      1 E1F         0.0683
     11 N19        -5.0160   -0.7010   16.1160 N.am      1 E1F        -0.2605
     12 O17        -7.3500    0.8130   16.6030 O.2       1 E1F        -0.1499
     13 C6         -3.6260    5.1210   13.1820 C.2       1 E1F         0.1457
     14 O12        -4.3210    6.1050   12.9000 O.2       1 E1F        -0.3773
     15 C7         -2.1900    4.9960   12.7940 C.3       1 E1F         0.0883
     16 S8         -1.8940    6.3250   11.5900 S.3       1 E1F        -0.0349
     17 C9         -1.5180    7.5830   12.7890 C.ar      1 E1F         0.1694
     18 N11        -1.3100    8.8320   12.2590 N.ar      1 E1F        -0.2535
     19 C14        -1.0340    9.8540   13.1400 C.ar      1 E1F         0.0222
     20 C15        -0.9450    9.6070   14.5300 C.ar      1 E1F        -0.0157
     21 N10        -1.4610    7.3290   14.1490 N.ar      1 E1F        -0.2535
     22 H1         -1.0760    8.1352   16.0868 H         1 E1F         0.0921
     23 H2         -5.4032    5.4419   15.1177 H         1 E1F         0.0679
     24 H3         -3.1022    2.4438   12.9796 H         1 E1F         0.0673
     25 H4         -4.0167    0.6255   14.4655 H         1 E1F         0.0649
     26 H5         -5.1953   -1.0403   15.1926 H         1 E1F         0.1635
     27 H6         -4.3825   -1.1913   16.7146 H         1 E1F         0.1635
     28 H7         -1.9995    4.0138   12.3368 H         1 E1F         0.0632
     29 H8         -1.5418    5.1230   13.6736 H         1 E1F         0.0632
     30 H9         -0.8832   10.8594   12.7639 H         1 E1F         0.0921
     31 H10        -0.7121   10.4189   15.2094 H         1 E1F         0.0720
@<TRIPOS>BOND
     1   10    1 2  
     2    2   20 ar 
     3   21    2 ar 
     4    3    6 ar 
     5    3    7 ar 
     6   13    3 1  
     7    4    5 1  
     8    6    4 ar 
     9    4    9 ar 
    10    7    8 ar 
    11    8    9 ar 
    12    9   10 1  
    13   10   11 am 
    14   10   12 2  
    15   13   14 2  
    16   15   13 1  
    17   16   15 1  
    18   17   16 1  
    19   17   18 ar 
    20   17   21 ar 
    21   18   19 ar 
    22   19   20 ar 
    23    2   22 1  
    24    6   23 1  
    25    7   24 1  
    26    8   25 1  
    27   11   26 1  
    28   11   27 1  
    29   15   28 1  
    30   15   29 1  
    31   19   30 1  
    32   20   31 1  
@<TRIPOS>SUBSTRUCTURE
     1 E1F         1

