### 
### Created by X-TOOL on Mon Sep 10 21:13:13 2018
### 

@<TRIPOS>MOLECULE
4knm_ligand
   37    38     1     0     0
SMALL
GAST_HUCK


@<TRIPOS>ATOM
      1 C2         11.0490   -4.4560    9.5910 C.ar      1 E1E        -0.0271
      2 C4         12.3570   -3.6650    7.6950 C.ar      1 E1E         0.1264
      3 C5         13.0170   -4.9180    7.6180 C.ar      1 E1E        -0.0287
      4 CL1        10.5470   -1.9080    8.7600 Cl        1 E1E        -0.0674
      5 C3         11.3920   -3.4210    8.6820 C.ar      1 E1E         0.0727
      6 S6         12.8400   -2.3510    6.5730 S.o2      1 E1E         0.0683
      7 O8         13.4660   -1.3080    7.4800 O.2       1 E1E        -0.1499
      8 N11        14.2340   -2.9820    5.5590 N.am      1 E1E        -0.2605
      9 O7         11.5740   -1.7730    5.6610 O.2       1 E1E        -0.1499
     10 C22        11.6930   -5.6720    9.5270 C.ar      1 E1E         0.0343
     11 C1         12.6850   -5.9120    8.5320 C.ar      1 E1E        -0.0410
     12 C9         11.2820   -6.7050   10.5330 C.2       1 E1E         0.1457
     13 O12        11.0530   -6.3360   11.7110 O.2       1 E1E        -0.3773
     14 C10        11.1480   -8.1430   10.1050 C.3       1 E1E         0.0881
     15 S13        10.8090   -9.1620   11.5730 S.3       1 E1E        -0.0396
     16 C14         9.0210   -9.0990   11.4790 C.ar      1 E1E         0.1492
     17 N17         8.2910   -8.4150   10.5220 N.ar      1 E1E        -0.2660
     18 C18         6.9200   -8.4750   10.5540 C.ar      1 E1E         0.0267
     19 C21         6.1220   -7.7390    9.5320 C.3       1 E1E        -0.0129
     20 C19         6.2670   -9.2400   11.5530 C.ar      1 E1E        -0.0162
     21 C16         7.0500   -9.9230   12.5030 C.ar      1 E1E         0.0267
     22 N15         8.4000   -9.8210   12.4450 N.ar      1 E1E        -0.2660
     23 C20         6.4990  -10.7670   13.6070 C.3       1 E1E        -0.0129
     24 H1         10.2796   -4.2893   10.3362 H         1 E1E         0.0679
     25 H2         13.7689   -5.0981    6.8582 H         1 E1E         0.0649
     26 H3         14.6525   -2.3964    4.8648 H         1 E1E         0.1635
     27 H4         14.5749   -3.9114    5.7008 H         1 E1E         0.1635
     28 H5         13.1829   -6.8739    8.4876 H         1 E1E         0.0673
     29 H6         12.0831   -8.4765    9.6314 H         1 E1E         0.0632
     30 H7         10.3191   -8.2398    9.3883 H         1 E1E         0.0632
     31 H8          5.0500   -7.9035    9.7157 H         1 E1E         0.0441
     32 H9          6.3827   -8.1068    8.5286 H         1 E1E         0.0441
     33 H10         6.3445   -6.6637    9.5977 H         1 E1E         0.0441
     34 H11         5.1850   -9.2980   11.5848 H         1 E1E         0.0590
     35 H12         7.3275  -11.1816   14.2000 H         1 E1E         0.0441
     36 H13         5.9068  -11.5894   13.1793 H         1 E1E         0.0441
     37 H14         5.8573  -10.1511   14.2542 H         1 E1E         0.0441
@<TRIPOS>BOND
     1    5    1 ar 
     2    1   10 ar 
     3    2    3 ar 
     4    2    5 ar 
     5    2    6 1  
     6    3   11 ar 
     7    5    4 1  
     8    6    7 2  
     9    6    8 am 
    10    6    9 2  
    11   10   11 ar 
    12   10   12 1  
    13   12   13 2  
    14   12   14 1  
    15   14   15 1  
    16   15   16 1  
    17   16   17 ar 
    18   16   22 ar 
    19   17   18 ar 
    20   18   19 1  
    21   18   20 ar 
    22   20   21 ar 
    23   21   22 ar 
    24   21   23 1  
    25    1   24 1  
    26    3   25 1  
    27    8   26 1  
    28    8   27 1  
    29   11   28 1  
    30   14   29 1  
    31   14   30 1  
    32   19   31 1  
    33   19   32 1  
    34   19   33 1  
    35   20   34 1  
    36   23   35 1  
    37   23   36 1  
    38   23   37 1  
@<TRIPOS>SUBSTRUCTURE
     1 E1E         1

