### 
### Created by X-TOOL on Mon Sep 10 21:13:13 2018
### 

@<TRIPOS>MOLECULE
4knn_ligand
   31    32     1     0     0
SMALL
GAST_HUCK


@<TRIPOS>ATOM
      1 O18        -4.5310   -5.3950   16.7490 O.2       1 E1F        -0.1499
      2 C13       -12.8810    2.2500   20.6770 C.ar      1 E1F         0.0222
      3 C1         -7.4100   -1.0020   18.4710 C.ar      1 E1F         0.0343
      4 C2         -6.7180   -3.4650   18.3700 C.ar      1 E1F         0.0727
      5 CL1        -6.5110   -5.0320   19.2150 Cl        1 E1F        -0.0674
      6 C21        -7.2220   -2.2820   19.0690 C.ar      1 E1F        -0.0271
      7 C5         -7.1000   -0.9420   17.0870 C.ar      1 E1F        -0.0410
      8 C4         -6.6150   -2.0800   16.3880 C.ar      1 E1F        -0.0287
      9 C3         -6.4260   -3.3290   16.9890 C.ar      1 E1F         0.1264
     10 S16        -5.8110   -4.7350   16.0580 S.o2      1 E1F         0.0683
     11 N19        -5.3040   -4.1320   14.5630 N.am      1 E1F        -0.2605
     12 O17        -6.9800   -5.6010   15.9160 O.2       1 E1F        -0.1499
     13 C6         -7.9220    0.2360   19.1310 C.2       1 E1F         0.1457
     14 O12        -7.4180    1.3850   18.8650 O.2       1 E1F        -0.3773
     15 C7         -9.0020    0.0710   20.1890 C.3       1 E1F         0.0883
     16 S8        -10.5450   -0.9600   20.0740 S.3       1 E1F        -0.0349
     17 C9        -11.2740    0.6710   20.0050 C.ar      1 E1F         0.1694
     18 N11       -10.7380    1.6440   19.1630 N.ar      1 E1F        -0.2535
     19 C14       -11.2300    2.8850   19.0320 C.ar      1 E1F         0.0222
     20 C15       -12.3340    3.2240   19.8280 C.ar      1 E1F        -0.0157
     21 N10       -12.3620    0.9800   20.7670 N.ar      1 E1F        -0.2535
     22 H1        -13.7423    2.5076   21.2827 H         1 E1F         0.0921
     23 H2         -7.4706   -2.3871   20.1189 H         1 E1F         0.0679
     24 H3         -7.2361   -0.0088   16.5525 H         1 E1F         0.0673
     25 H4         -6.3794   -1.9750   15.3351 H         1 E1F         0.0649
     26 H5         -5.9577   -3.6733   13.9612 H         1 E1F         0.1635
     27 H6         -4.3503   -4.2339   14.2802 H         1 E1F         0.1635
     28 H7         -9.3596    1.0920   20.3882 H         1 E1F         0.0632
     29 H8         -8.4730   -0.3115   21.0743 H         1 E1F         0.0632
     30 H9        -10.7928    3.5959   18.3402 H         1 E1F         0.0921
     31 H10       -12.7573    4.2212   19.7880 H         1 E1F         0.0720
@<TRIPOS>BOND
     1   10    1 2  
     2    2   20 ar 
     3   21    2 ar 
     4    3    6 ar 
     5    3    7 ar 
     6   13    3 1  
     7    4    5 1  
     8    6    4 ar 
     9    4    9 ar 
    10    7    8 ar 
    11    8    9 ar 
    12    9   10 1  
    13   10   11 am 
    14   10   12 2  
    15   13   14 2  
    16   15   13 1  
    17   16   15 1  
    18   17   16 1  
    19   17   18 ar 
    20   17   21 ar 
    21   18   19 ar 
    22   19   20 ar 
    23    2   22 1  
    24    6   23 1  
    25    7   24 1  
    26    8   25 1  
    27   11   26 1  
    28   11   27 1  
    29   15   28 1  
    30   15   29 1  
    31   19   30 1  
    32   20   31 1  
@<TRIPOS>SUBSTRUCTURE
     1 E1F         1

