### 
### Created by X-TOOL on Mon Sep 10 21:13:19 2018
### 

@<TRIPOS>MOLECULE
4knr_ligand
   60    64     1     0     0
SMALL
GAST_HUCK


@<TRIPOS>ATOM
      1 C1         42.7190   58.4990   23.0660 C.3       1 1S8         0.0577
      2 O2         42.6590   59.8190   22.5380 O.3       1 1S8        -0.3215
      3 C3         42.5120   59.7760   21.1530 C.ar      1 1S8         0.1290
      4 C4         43.1390   58.8610   20.3220 C.ar      1 1S8        -0.0201
      5 C5         42.9270   58.9040   18.9510 C.ar      1 1S8         0.0336
      6 C6         42.0890   59.8650   18.3990 C.ar      1 1S8         0.0164
      7 C7         41.4810   60.7740   19.2420 C.ar      1 1S8        -0.0212
      8 C8         41.6920   60.7330   20.6020 C.ar      1 1S8         0.1265
      9 O9         41.0760   61.6560   21.4240 O.3       1 1S8        -0.3288
     10 N10        41.8610   59.9340   17.0800 N.ar      1 1S8        -0.3094
     11 C11        42.4750   59.0320   16.3080 C.ar      1 1S8         0.0771
     12 N12        43.2960   58.0770   16.7520 N.ar      1 1S8        -0.2587
     13 C13        43.5250   58.0110   18.0740 C.ar      1 1S8         0.1433
     14 N14        44.3970   57.0050   18.5480 N.pl3     1 1S8        -0.2571
     15 C15        45.1980   56.2290   17.6790 C.ar      1 1S8         0.0540
     16 C16        45.4080   54.8980   17.9550 C.ar      1 1S8        -0.0490
     17 C17        46.1730   54.1100   17.1220 C.ar      1 1S8        -0.0485
     18 C18        46.7470   54.6460   15.9920 C.ar      1 1S8         0.0563
     19 C19        46.5540   55.9800   15.7050 C.ar      1 1S8        -0.0485
     20 C20        45.7830   56.7560   16.5450 C.ar      1 1S8        -0.0490
     21 N21        47.5290   53.8330   15.1460 N.am      1 1S8        -0.2388
     22 C22        47.0770   53.5140   13.8790 C.2       1 1S8         0.2298
     23 O23        46.1950   54.0980   13.2620 O.2       1 1S8        -0.3743
     24 C24        47.7380   52.3610   13.2450 C.ar      1 1S8         0.0554
     25 C25        48.2180   52.4910   11.9580 C.ar      1 1S8        -0.0416
     26 C26        48.8310   51.4130   11.3580 C.ar      1 1S8        -0.0562
     27 C27        48.9610   50.2210   12.0430 C.ar      1 1S8        -0.0576
     28 C28        48.4770   50.0990   13.3280 C.ar      1 1S8        -0.0562
     29 C29        47.8590   51.1740   13.9330 C.ar      1 1S8        -0.0416
     30 C30        42.1990   59.1260   14.8370 C.3       1 1S8         0.0402
     31 C31        43.1040   58.3720   13.9150 C.ar      1 1S8        -0.0266
     32 C32        44.3650   58.8480   13.6170 C.ar      1 1S8        -0.0575
     33 C33        45.1980   58.1540   12.7630 C.ar      1 1S8        -0.0679
     34 C34        44.7690   56.9750   12.1940 C.ar      1 1S8        -0.0683
     35 C35        43.5070   56.4980   12.4840 C.ar      1 1S8        -0.0679
     36 C36        42.6750   57.1940   13.3390 C.ar      1 1S8        -0.0575
     37 H          42.8350   58.5462   24.1589 H         1 1S8         0.0574
     38 H          43.5773   57.9679   22.6288 H         1 1S8         0.0574
     39 H          41.7911   57.9626   22.8186 H         1 1S8         0.0574
     40 H          43.7967   58.1097   20.7440 H         1 1S8         0.0542
     41 H          40.8271   61.5321   18.8264 H         1 1S8         0.0477
     42 H          40.1334   61.5786   21.3346 H         1 1S8         0.2491
     43 H          44.4509   56.8311   19.5618 H         1 1S8         0.2180
     44 H          44.9644   54.4614   18.8425 H         1 1S8         0.0509
     45 H          46.3232   53.0628   17.3583 H         1 1S8         0.0481
     46 H          47.0064   56.4177   14.8225 H         1 1S8         0.0481
     47 H          45.6330   57.8034   16.3095 H         1 1S8         0.0509
     48 H          48.4119   53.4866   15.4630 H         1 1S8         0.2222
     49 H          48.1141   53.4296   11.4257 H         1 1S8         0.0669
     50 H          49.2118   51.5006   10.3469 H         1 1S8         0.0629
     51 H          49.4464   49.3764   11.5675 H         1 1S8         0.0652
     52 H          48.5817   49.1612   13.8615 H         1 1S8         0.0629
     53 H          47.4718   51.0851   14.9416 H         1 1S8         0.0669
     54 H          42.2558   60.1886   14.5583 H         1 1S8         0.0647
     55 H          41.1764   58.7571   14.6694 H         1 1S8         0.0647
     56 H          44.7049   59.7777   14.0589 H         1 1S8         0.0563
     57 H          46.1878   58.5359   12.5404 H         1 1S8         0.0601
     58 H          45.4188   56.4254   11.5226 H         1 1S8         0.0563
     59 H          43.1663   55.5707   12.0377 H         1 1S8         0.0601
     60 H          41.6836   56.8142   13.5578 H         1 1S8         0.0563
@<TRIPOS>BOND
     1    1    2 1  
     2    2    3 1  
     3    3    4 ar 
     4    3    8 ar 
     5    4    5 ar 
     6    5    6 ar 
     7    5   13 ar 
     8    6    7 ar 
     9    6   10 ar 
    10    7    8 ar 
    11    8    9 1  
    12   10   11 ar 
    13   11   12 ar 
    14   11   30 1  
    15   12   13 ar 
    16   13   14 1  
    17   14   15 1  
    18   15   16 ar 
    19   15   20 ar 
    20   16   17 ar 
    21   17   18 ar 
    22   18   19 ar 
    23   18   21 1  
    24   19   20 ar 
    25   21   22 am 
    26   22   23 2  
    27   22   24 1  
    28   24   25 ar 
    29   24   29 ar 
    30   25   26 ar 
    31   26   27 ar 
    32   27   28 ar 
    33   28   29 ar 
    34   30   31 1  
    35   31   32 ar 
    36   31   36 ar 
    37   32   33 ar 
    38   33   34 ar 
    39   34   35 ar 
    40   35   36 ar 
    41    1   37 1  
    42    1   38 1  
    43    1   39 1  
    44    4   40 1  
    45    7   41 1  
    46    9   42 1  
    47   14   43 1  
    48   16   44 1  
    49   17   45 1  
    50   19   46 1  
    51   20   47 1  
    52   21   48 1  
    53   25   49 1  
    54   26   50 1  
    55   27   51 1  
    56   28   52 1  
    57   29   53 1  
    58   30   54 1  
    59   30   55 1  
    60   32   56 1  
    61   33   57 1  
    62   34   58 1  
    63   35   59 1  
    64   36   60 1  
@<TRIPOS>SUBSTRUCTURE
     1 1S8         1

