### 
### Created by X-TOOL on Mon Sep 10 21:13:19 2018
### 

@<TRIPOS>MOLECULE
4knx_ligand
   52    55     1     0     0
SMALL
GAST_HUCK


@<TRIPOS>ATOM
      1 C1        -12.0300   89.4290  131.4920 C.3       1 1S9         0.0583
      2 O2        -11.7950   90.7670  131.0730 O.3       1 1S9        -0.3199
      3 C3        -12.0330   90.8090  129.7090 C.ar      1 1S9         0.1318
      4 C4        -11.3830   89.9660  128.8310 C.ar      1 1S9        -0.0174
      5 C5        -11.6480   90.0440  127.4770 C.ar      1 1S9         0.0385
      6 C6        -12.5580   90.9650  126.9860 C.ar      1 1S9         0.0259
      7 C7        -13.1930   91.7990  127.8780 C.ar      1 1S9        -0.0169
      8 C8        -12.9340   91.7290  129.2290 C.ar      1 1S9         0.1347
      9 O9        -13.5750   92.5680  130.1240 O.3       1 1S9        -0.2990
     10 C10       -13.5710   93.8690  129.5470 C.3       1 1S9         0.1232
     11 C11       -15.0020   94.1860  129.1680 C.2       1 1S9         0.0654
     12 O12       -15.8440   93.2810  129.4300 O.co2     1 1S9        -0.5662
     13 O13       -15.1610   95.3160  128.6340 O.co2     1 1S9        -0.5662
     14 N14       -12.8300   91.0620  125.6810 N.ar      1 1S9        -0.3061
     15 C15       -12.1670   90.2130  124.8950 C.ar      1 1S9         0.0518
     16 N16       -11.2760   89.2920  125.2640 N.ar      1 1S9        -0.2620
     17 C17       -11.0160   89.2110  126.5730 C.ar      1 1S9         0.1478
     18 N18       -10.0810   88.2620  127.0350 N.pl3     1 1S9        -0.2564
     19 C19        -9.3430   87.4330  126.1650 C.ar      1 1S9         0.0540
     20 C20        -9.1060   86.1180  126.5040 C.ar      1 1S9        -0.0490
     21 C21        -8.3890   85.2890  125.6680 C.ar      1 1S9        -0.0485
     22 C22        -7.8990   85.7730  124.4760 C.ar      1 1S9         0.0563
     23 C23        -8.1210   87.0870  124.1250 C.ar      1 1S9        -0.0485
     24 C24        -8.8390   87.9060  124.9700 C.ar      1 1S9        -0.0490
     25 N25        -7.1680   84.9280  123.6240 N.am      1 1S9        -0.2388
     26 C26        -7.6610   84.5840  122.3830 C.2       1 1S9         0.2298
     27 O27        -8.6250   85.0730  121.8100 O.2       1 1S9        -0.3743
     28 C28        -6.9120   83.5180  121.7130 C.ar      1 1S9         0.0554
     29 C29        -6.4230   83.7500  120.4470 C.ar      1 1S9        -0.0416
     30 C30        -5.7200   82.7550  119.8060 C.ar      1 1S9        -0.0562
     31 C31        -5.5170   81.5450  120.4340 C.ar      1 1S9        -0.0576
     32 C32        -6.0130   81.3230  121.7010 C.ar      1 1S9        -0.0562
     33 C33        -6.7180   82.3130  122.3500 C.ar      1 1S9        -0.0416
     34 H         -11.8524   89.3472  132.5745 H         1 1S9         0.0575
     35 H         -11.3483   88.7519  130.9564 H         1 1S9         0.0575
     36 H         -13.0711   89.1525  131.2694 H         1 1S9         0.0575
     37 H         -10.6655   89.2436  129.2029 H         1 1S9         0.0546
     38 H         -13.9101   92.5242  127.5106 H         1 1S9         0.0495
     39 H         -12.9306   93.8843  128.6528 H         1 1S9         0.0786
     40 H         -13.2008   94.6050  130.2759 H         1 1S9         0.0786
     41 H         -12.3765   90.2791  123.8335 H         1 1S9         0.1015
     42 H          -9.9308   88.1705  128.0499 H         1 1S9         0.2180
     43 H          -9.4888   85.7304  127.4412 H         1 1S9         0.0509
     44 H          -8.2112   84.2572  125.9489 H         1 1S9         0.0481
     45 H          -7.7332   87.4744  123.1898 H         1 1S9         0.0481
     46 H          -9.0108   88.9394  124.6913 H         1 1S9         0.0509
     47 H          -6.2816   84.5726  123.9205 H         1 1S9         0.2222
     48 H          -6.5895   84.7045  119.9609 H         1 1S9         0.0669
     49 H          -5.3270   82.9227  118.8098 H         1 1S9         0.0629
     50 H          -4.9634   80.7623  119.9281 H         1 1S9         0.0652
     51 H          -5.8481   80.3683  122.1873 H         1 1S9         0.0629
     52 H          -7.1133   82.1459  123.3454 H         1 1S9         0.0669
@<TRIPOS>BOND
     1    1    2 1  
     2    2    3 1  
     3    3    4 ar 
     4    3    8 ar 
     5    4    5 ar 
     6    5    6 ar 
     7    5   17 ar 
     8    6    7 ar 
     9    6   14 ar 
    10    7    8 ar 
    11    8    9 1  
    12    9   10 1  
    13   10   11 1  
    14   11   12 ar 
    15   11   13 ar 
    16   14   15 ar 
    17   15   16 ar 
    18   16   17 ar 
    19   17   18 1  
    20   18   19 1  
    21   19   20 ar 
    22   19   24 ar 
    23   20   21 ar 
    24   21   22 ar 
    25   22   23 ar 
    26   22   25 1  
    27   23   24 ar 
    28   25   26 am 
    29   26   27 2  
    30   26   28 1  
    31   28   29 ar 
    32   28   33 ar 
    33   29   30 ar 
    34   30   31 ar 
    35   31   32 ar 
    36   32   33 ar 
    37    1   34 1  
    38    1   35 1  
    39    1   36 1  
    40    4   37 1  
    41    7   38 1  
    42   10   39 1  
    43   10   40 1  
    44   15   41 1  
    45   18   42 1  
    46   20   43 1  
    47   21   44 1  
    48   23   45 1  
    49   24   46 1  
    50   25   47 1  
    51   29   48 1  
    52   30   49 1  
    53   31   50 1  
    54   32   51 1  
    55   33   52 1  
@<TRIPOS>SUBSTRUCTURE
     1 1S9         1

