### 
### Created by X-TOOL on Mon Sep 10 21:13:15 2018
### 

@<TRIPOS>MOLECULE
4kom_ligand
  108   111     1     0     0
SMALL
GAST_HUCK


@<TRIPOS>ATOM
      1 C1         31.6770  -33.7900   35.8100 C.2       1 SIA         0.1041
      2 C2         32.1530  -33.1830   37.0780 C.3       1 SIA         0.2208
      3 C3         31.4170  -34.2170   37.9470 C.3       1 SIA         0.0353
      4 C4         31.8920  -35.6280   37.8730 C.3       1 SIA         0.0850
      5 C5         33.2800  -35.8100   38.1750 C.3       1 SIA         0.0964
      6 C6         34.0020  -34.7680   37.3610 C.3       1 SIA         0.1143
      7 C7         35.4690  -34.7010   37.5560 C.3       1 SIA         0.1114
      8 C8         36.0160  -33.6340   36.6130 C.3       1 SIA         0.1065
      9 C9         37.5050  -33.7590   36.4940 C.3       1 SIA         0.0727
     10 C10        34.8050  -37.8700   38.5260 C.2       1 SIA         0.1733
     11 C11        35.1470  -39.3210   38.1590 C.3       1 SIA         0.0257
     12 N5         33.6700  -37.2070   37.8740 N.am      1 SIA        -0.2790
     13 O1A        30.4700  -34.0550   35.6490 O.co2     1 SIA        -0.5426
     14 O1B        32.4670  -34.0010   34.8490 O.co2     1 SIA        -0.5426
     15 O4         31.0780  -36.4980   38.6950 O.3       1 SIA        -0.3893
     16 O6         33.3950  -33.4590   37.6690 O.3       1 SIA        -0.3384
     17 O7         35.8410  -34.4330   38.8860 O.3       1 SIA        -0.3865
     18 O8         35.3840  -33.7070   35.3750 O.3       1 SIA        -0.3869
     19 O9         38.2180  -32.5980   36.2460 O.3       1 SIA        -0.3924
     20 O10        35.4960  -37.2880   39.3580 O.2       1 SIA        -0.3974
     21 C1         33.6850  -19.1320   39.2280 C.3       1 GAL         0.1854
     22 C2         33.6600  -20.3800   38.3500 C.3       1 GAL         0.1343
     23 C3         34.5610  -21.4800   38.9110 C.3       1 GAL         0.1206
     24 C4         35.9180  -20.9240   39.3330 C.3       1 GAL         0.1123
     25 C5         35.7470  -19.6700   40.1830 C.3       1 GAL         0.1130
     26 C6         37.0930  -19.0810   40.5860 C.3       1 GAL         0.0730
     27 O1         32.9740  -18.0930   38.5910 O.3       1 GAL        -0.3649
     28 O2         32.3320  -20.8450   38.2730 O.3       1 GAL        -0.3841
     29 O3         34.7620  -22.5080   37.9600 O.3       1 GAL        -0.3403
     30 O4         36.6780  -20.6150   38.1860 O.3       1 GAL        -0.3865
     31 O5         35.0160  -18.7170   39.4450 O.3       1 GAL        -0.3407
     32 O6         36.8860  -17.8790   41.2950 O.3       1 GAL        -0.3924
     33 C1         33.9380  -23.6560   38.2600 C.3       1 NAG         0.1854
     34 C2         32.9900  -23.9650   37.0970 C.3       1 NAG         0.1210
     35 C3         32.3570  -25.3600   37.1290 C.3       1 NAG         0.1114
     36 C4         33.2400  -26.4460   37.7470 C.3       1 NAG         0.1181
     37 C5         34.0150  -25.9110   38.9430 C.3       1 NAG         0.1134
     38 C6         34.9830  -26.9560   39.4810 C.3       1 NAG         0.0730
     39 C7         31.5030  -22.4810   35.8750 C.2       1 NAG         0.1733
     40 C8         30.0790  -22.7660   35.4960 C.3       1 NAG         0.0257
     41 N2         31.9240  -22.9800   37.0360 N.am      1 NAG        -0.2766
     42 O3         32.0310  -25.7060   35.7990 O.3       1 NAG        -0.3867
     43 O4         32.4450  -27.5320   38.1890 O.3       1 NAG        -0.3401
     44 O5         34.7470  -24.7710   38.5660 O.3       1 NAG        -0.3408
     45 O6         35.9100  -26.3320   40.3400 O.3       1 NAG        -0.3924
     46 O7         32.2250  -21.8160   35.1330 O.2       1 NAG        -0.3974
     47 C1         32.1850  -28.4890   37.1400 C.3       1 GAL         0.1884
     48 C2         32.2810  -29.8990   37.7280 C.3       1 GAL         0.1344
     49 C3         31.6680  -30.9870   36.8440 C.3       1 GAL         0.1197
     50 C4         30.4290  -30.5300   36.0860 C.3       1 GAL         0.1121
     51 C5         30.6840  -29.1590   35.4800 C.3       1 GAL         0.1130
     52 C6         29.5050  -28.6860   34.6380 C.3       1 GAL         0.0730
     53 O2         33.6430  -30.2150   37.9120 O.3       1 GAL        -0.3841
     54 O3         31.3520  -32.1270   37.6190 O.3       1 GAL        -0.3380
     55 O4         29.3220  -30.4850   36.9580 O.3       1 GAL        -0.3865
     56 O5         30.9250  -28.2660   36.5430 O.3       1 GAL        -0.3405
     57 O6         29.9170  -27.6180   33.8130 O.3       1 GAL        -0.3924
     58 H1         30.3585  -34.2077   37.6480 H         1 SIA         0.0336
     59 H2         31.5050  -33.8924   38.9943 H         1 SIA         0.0336
     60 H3         31.7555  -35.9460   36.8289 H         1 SIA         0.0618
     61 H4         33.4635  -35.6229   39.2433 H         1 SIA         0.0608
     62 H5         33.8269  -34.9971   36.2995 H         1 SIA         0.0646
     63 H6         35.8995  -35.6743   37.2778 H         1 SIA         0.0647
     64 H7         35.7942  -32.6475   37.0461 H         1 SIA         0.0643
     65 H8         37.7141  -34.4583   35.6710 H         1 SIA         0.0584
     66 H9         37.8785  -34.1818   37.4383 H         1 SIA         0.0584
     67 H10        36.0199  -39.6506   38.7416 H         1 SIA         0.0467
     68 H11        35.3782  -39.3829   37.0854 H         1 SIA         0.0467
     69 H12        34.2880  -39.9691   38.3871 H         1 SIA         0.0467
     70 H13        33.1383  -37.7189   37.1992 H         1 SIA         0.1856
     71 H14        30.1614  -36.3656   38.4831 H         1 SIA         0.2099
     72 H15        35.4902  -35.1088   39.4541 H         1 SIA         0.2100
     73 H16        34.4453  -33.6238   35.4945 H         1 SIA         0.2100
     74 H17        38.0696  -31.9797   36.9519 H         1 SIA         0.2095
     75 H18        33.2127  -19.3595   40.1950 H         1 SIA         0.0935
     76 H19        34.0121  -20.1152   37.3421 H         1 SIA         0.0671
     77 H20        34.0676  -21.9102   39.7950 H         1 SIA         0.0651
     78 H21        36.4481  -21.6859   39.9233 H         1 SIA         0.0647
     79 H22        35.1881  -19.9305   41.0939 H         1 SIA         0.0647
     80 H23        37.6890  -18.8770   39.6842 H         1 SIA         0.0584
     81 H24        37.6297  -19.7966   41.2261 H         1 SIA         0.0584
     82 H25        32.9818  -17.3203   39.1436 H         1 SIA         0.2126
     83 H26        31.7767  -20.1577   37.9239 H         1 SIA         0.2101
     84 H27        36.7837  -21.3972   37.6574 H         1 SIA         0.2100
     85 H28        36.4224  -17.2619   40.7413 H         1 SIA         0.2095
     86 H29        33.3281  -23.4208   39.1447 H         1 SIA         0.0935
     87 H30        33.5811  -23.8929   36.1721 H         1 SIA         0.0633
     88 H31        31.4329  -25.3032   37.7229 H         1 SIA         0.0645
     89 H32        33.9502  -26.8001   36.9853 H         1 SIA         0.0650
     90 H33        33.3021  -25.6399   39.7356 H         1 SIA         0.0647
     91 H34        35.5177  -27.4277   38.6434 H         1 SIA         0.0584
     92 H35        34.4243  -27.7227   40.0377 H         1 SIA         0.0584
     93 H36        29.8586  -22.3019   34.5234 H         1 SIA         0.0467
     94 H37        29.4060  -22.3515   36.2610 H         1 SIA         0.0467
     95 H38        29.9288  -23.8534   35.4258 H         1 SIA         0.0467
     96 H39        31.4965  -22.6695   37.8850 H         1 SIA         0.1857
     97 H40        31.5626  -26.5325   35.7937 H         1 SIA         0.2100
     98 H41        36.3911  -25.6699   39.8576 H         1 SIA         0.2095
     99 H42        32.9562  -28.3783   36.3635 H         1 SIA         0.0938
    100 H43        31.7649  -29.9056   38.6994 H         1 SIA         0.0671
    101 H44        32.4261  -31.2744   36.1006 H         1 SIA         0.0650
    102 H45        30.2171  -31.2452   35.2776 H         1 SIA         0.0647
    103 H46        31.5748  -29.2090   34.8366 H         1 SIA         0.0647
    104 H47        28.6941  -28.3470   35.2995 H         1 SIA         0.0584
    105 H48        29.1449  -29.5156   34.0118 H         1 SIA         0.0584
    106 H49        33.7160  -31.0638   38.3325 H         1 SIA         0.2101
    107 H50        29.1762  -31.3479   37.3277 H         1 SIA         0.2100
    108 H51        30.6174  -27.9120   33.2424 H         1 SIA         0.2095
@<TRIPOS>BOND
     1    2    1 1  
     2    1   13 ar 
     3    1   14 ar 
     4    2    3 1  
     5    2   16 1  
     6   54    2 1  
     7    3    4 1  
     8    4    5 1  
     9    4   15 1  
    10    6    5 1  
    11    5   12 1  
    12    6    7 1  
    13   16    6 1  
    14    7    8 1  
    15    7   17 1  
    16    8    9 1  
    17    8   18 1  
    18    9   19 1  
    19   10   11 1  
    20   12   10 am 
    21   10   20 2  
    22   22   21 1  
    23   21   27 1  
    24   21   31 1  
    25   23   22 1  
    26   22   28 1  
    27   23   24 1  
    28   29   23 1  
    29   24   25 1  
    30   24   30 1  
    31   25   26 1  
    32   25   31 1  
    33   26   32 1  
    34   33   29 1  
    35   34   33 1  
    36   44   33 1  
    37   35   34 1  
    38   34   41 1  
    39   36   35 1  
    40   35   42 1  
    41   36   37 1  
    42   43   36 1  
    43   37   38 1  
    44   37   44 1  
    45   38   45 1  
    46   39   40 1  
    47   41   39 am 
    48   39   46 2  
    49   47   43 1  
    50   48   47 1  
    51   47   56 1  
    52   49   48 1  
    53   48   53 1  
    54   49   50 1  
    55   49   54 1  
    56   50   51 1  
    57   50   55 1  
    58   51   52 1  
    59   51   56 1  
    60   52   57 1  
    61    3   58 1  
    62    3   59 1  
    63    4   60 1  
    64    5   61 1  
    65    6   62 1  
    66    7   63 1  
    67    8   64 1  
    68    9   65 1  
    69    9   66 1  
    70   11   67 1  
    71   11   68 1  
    72   11   69 1  
    73   12   70 1  
    74   15   71 1  
    75   17   72 1  
    76   18   73 1  
    77   19   74 1  
    78   21   75 1  
    79   22   76 1  
    80   23   77 1  
    81   24   78 1  
    82   25   79 1  
    83   26   80 1  
    84   26   81 1  
    85   27   82 1  
    86   28   83 1  
    87   30   84 1  
    88   32   85 1  
    89   33   86 1  
    90   34   87 1  
    91   35   88 1  
    92   36   89 1  
    93   37   90 1  
    94   38   91 1  
    95   38   92 1  
    96   40   93 1  
    97   40   94 1  
    98   40   95 1  
    99   41   96 1  
   100   42   97 1  
   101   45   98 1  
   102   47   99 1  
   103   48  100 1  
   104   49  101 1  
   105   50  102 1  
   106   51  103 1  
   107   52  104 1  
   108   52  105 1  
   109   53  106 1  
   110   55  107 1  
   111   57  108 1  
@<TRIPOS>SUBSTRUCTURE
     1 SIA         1

