### 
### Created by X-TOOL on Mon Sep 10 21:13:15 2018
### 

@<TRIPOS>MOLECULE
4kon_ligand
   60    61     1     0     0
SMALL
GAST_HUCK


@<TRIPOS>ATOM
      1 C1        -27.0380    0.2630  -13.7380 C.2       1 SIA         0.1041
      2 C2        -26.4380    0.8620  -12.4840 C.3       1 SIA         0.2204
      3 C3        -27.0590   -0.1320  -11.6880 C.3       1 SIA         0.0353
      4 C4        -26.6660   -1.5070  -11.7660 C.3       1 SIA         0.0850
      5 C5        -25.2300   -1.7510  -11.4540 C.3       1 SIA         0.0964
      6 C6        -24.4060   -0.8130  -12.2620 C.3       1 SIA         0.1143
      7 C7        -23.0440   -0.7230  -11.9220 C.3       1 SIA         0.1114
      8 C8        -22.4120    0.4090  -12.7800 C.3       1 SIA         0.1065
      9 C9        -20.8790    0.3540  -12.7750 C.3       1 SIA         0.0727
     10 C10       -23.8370   -3.9130  -11.0800 C.2       1 SIA         0.1733
     11 C11       -23.5860   -5.3610  -11.4620 C.3       1 SIA         0.0257
     12 N5        -24.9150   -3.1540  -11.7690 N.am      1 SIA        -0.2790
     13 O1A       -26.2430   -0.1120  -14.6860 O.co2     1 SIA        -0.5426
     14 O1B       -28.2870    0.1540  -13.8930 O.co2     1 SIA        -0.5426
     15 O4        -27.5170   -2.3480  -10.9690 O.3       1 SIA        -0.3893
     16 O6        -25.0850    0.5480  -12.0110 O.3       1 SIA        -0.3384
     17 O7        -22.8680   -0.4070  -10.5750 O.3       1 SIA        -0.3865
     18 O8        -22.8710    0.4080  -14.0960 O.3       1 SIA        -0.3869
     19 O9        -20.2020    1.5370  -13.0160 O.3       1 SIA        -0.3924
     20 O10       -23.1280   -3.3750  -10.1970 O.2       1 SIA        -0.3974
     21 C1        -28.4680    5.9010  -10.7270 C.3       1 GAL         0.1854
     22 C2        -27.8100    7.0020  -11.5380 C.3       1 GAL         0.1339
     23 C3        -27.6190    6.5970  -12.9960 C.3       1 GAL         0.1141
     24 C4        -26.8520    5.2840  -13.1150 C.3       1 GAL         0.1119
     25 C5        -27.4270    4.2480  -12.1480 C.3       1 GAL         0.1132
     26 C6        -26.4660    3.0630  -11.9610 C.3       1 GAL         0.0786
     27 O1        -28.5050    6.2810   -9.3630 O.3       1 GAL        -0.3649
     28 O2        -28.6360    8.1490  -11.4790 O.3       1 GAL        -0.3841
     29 O3        -26.9310    7.6200  -13.6680 O.3       1 GAL        -0.3864
     30 O4        -25.4840    5.4810  -12.8300 O.3       1 GAL        -0.3865
     31 O5        -27.6240    4.7880  -10.8520 O.3       1 GAL        -0.3407
     32 O6        -27.2070    1.8630  -11.7910 O.3       1 GAL        -0.3441
     33 H1        -28.1308   -0.1013  -11.9336 H         1 SIA         0.0336
     34 H2        -26.9137    0.1732  -10.6412 H         1 SIA         0.0336
     35 H3        -26.8106   -1.8089  -12.8138 H         1 SIA         0.0618
     36 H4        -25.0438   -1.5689  -10.3853 H         1 SIA         0.0608
     37 H5        -24.4744   -1.0926  -13.3237 H         1 SIA         0.0646
     38 H6        -22.5492   -1.6814  -12.1380 H         1 SIA         0.0647
     39 H7        -22.7130    1.3639  -12.3245 H         1 SIA         0.0643
     40 H8        -20.5713   -0.3663  -13.5473 H         1 SIA         0.0584
     41 H9        -20.5644   -0.0116  -11.7864 H         1 SIA         0.0584
     42 H10       -22.7597   -5.7619  -10.8567 H         1 SIA         0.0467
     43 H11       -23.3209   -5.4184  -12.5280 H         1 SIA         0.0467
     44 H12       -24.4955   -5.9517  -11.2780 H         1 SIA         0.0467
     45 H13       -25.4487   -3.6169  -12.4767 H         1 SIA         0.1856
     46 H14       -28.4254   -2.1739  -11.1860 H         1 SIA         0.2099
     47 H15       -23.2500   -1.0912  -10.0378 H         1 SIA         0.2100
     48 H16       -23.8204    0.4421  -14.0991 H         1 SIA         0.2100
     49 H17       -20.4354    2.1751  -12.3520 H         1 SIA         0.2095
     50 H18       -29.4804    5.6827  -11.0977 H         1 SIA         0.0935
     51 H19       -26.8272    7.2320  -11.1008 H         1 SIA         0.0671
     52 H20       -28.6083    6.4667  -13.4589 H         1 SIA         0.0648
     53 H21       -26.9516    4.9079  -14.1439 H         1 SIA         0.0647
     54 H22       -28.3863    3.8894  -12.5493 H         1 SIA         0.0647
     55 H23       -25.8423    3.2358  -11.0716 H         1 SIA         0.0586
     56 H24       -25.8222    2.9717  -12.8482 H         1 SIA         0.0586
     57 H25       -27.6278    6.5028   -9.0733 H         1 SIA         0.2126
     58 H26       -28.7572    8.4043  -10.5720 H         1 SIA         0.2101
     59 H27       -26.0688    7.7259  -13.2834 H         1 SIA         0.2100
     60 H28       -25.1261    6.1244  -13.4303 H         1 SIA         0.2100
@<TRIPOS>BOND
     1    2    1 1  
     2    1   13 ar 
     3    1   14 ar 
     4    2    3 1  
     5    2   16 1  
     6   32    2 1  
     7    3    4 1  
     8    4    5 1  
     9    4   15 1  
    10    6    5 1  
    11    5   12 1  
    12    6    7 1  
    13   16    6 1  
    14    7    8 1  
    15    7   17 1  
    16    8    9 1  
    17    8   18 1  
    18    9   19 1  
    19   10   11 1  
    20   12   10 am 
    21   10   20 2  
    22   21   22 1  
    23   21   27 1  
    24   31   21 1  
    25   23   22 1  
    26   22   28 1  
    27   24   23 1  
    28   23   29 1  
    29   25   24 1  
    30   24   30 1  
    31   26   25 1  
    32   25   31 1  
    33   26   32 1  
    34    3   33 1  
    35    3   34 1  
    36    4   35 1  
    37    5   36 1  
    38    6   37 1  
    39    7   38 1  
    40    8   39 1  
    41    9   40 1  
    42    9   41 1  
    43   11   42 1  
    44   11   43 1  
    45   11   44 1  
    46   12   45 1  
    47   15   46 1  
    48   17   47 1  
    49   18   48 1  
    50   19   49 1  
    51   21   50 1  
    52   22   51 1  
    53   23   52 1  
    54   24   53 1  
    55   25   54 1  
    56   26   55 1  
    57   26   56 1  
    58   27   57 1  
    59   28   58 1  
    60   29   59 1  
    61   30   60 1  
@<TRIPOS>SUBSTRUCTURE
     1 SIA         1

