### 
### Created by X-TOOL on Mon Sep 10 21:13:12 2018
### 

@<TRIPOS>MOLECULE
4kot_ligand
   46    48     1     0     0
SMALL
GAST_HUCK


@<TRIPOS>ATOM
      1 C          15.2910    3.1760   10.0850 C.3       1 CE3         0.1468
      2 C1         13.9770    2.3460   10.2780 C.3       1 CE3         0.1713
      3 S          16.5530    2.5640    8.9800 S.3       1 CE3        -0.1134
      4 C2         17.2930    4.2130    8.6790 C.3       1 CE3         0.0210
      5 C3         16.2560    5.3100    8.3970 C.2       1 CE3        -0.0099
      6 C4         14.9840    5.2630    8.6440 C.2       1 CE3         0.0811
      7 N          14.4620    4.1790    9.3760 N.am      1 CE3        -0.2209
      8 C5         13.2700    3.5830    9.6730 C.2       1 CE3         0.2268
      9 O          12.1190    3.8880    9.5090 O.2       1 CE3        -0.3867
     10 N1         13.8030    1.1300    9.5420 N.am      1 CE3        -0.2615
     11 C6         14.3070   -0.0430    9.9210 C.2       1 CE3         0.2188
     12 O2         15.0250   -0.1460   10.8730 O.2       1 CE3        -0.3862
     13 C7         13.7680   -1.1920    9.1830 C.2       1 CE3         0.1486
     14 N2         12.7820   -1.9260    9.6200 N.2       1 CE3        -0.1296
     15 O1         12.2540   -1.5390   10.8770 O.3       1 CE3        -0.2311
     16 C8         10.8070   -1.6520   10.8610 C.3       1 CE3         0.0864
     17 C14        14.3520   -1.5460    7.9030 C.2       1 CE3         0.0260
     18 N3         13.8920   -2.6690    7.2060 N.2       1 CE3        -0.3138
     19 C15        14.5700   -2.7910    6.0800 C.2       1 CE3         0.1779
     20 N4         14.4330   -3.7520    5.1290 N.pl3     1 CE3        -0.2979
     21 S1         15.8250   -1.6450    5.8080 S.3       1 CE3         0.0150
     22 C13        15.3710   -0.9020    7.2790 C.2       1 CE3         0.0081
     23 C9         16.8500    6.5030    7.7280 C.3       1 CE3         0.1003
     24 O3         17.7180    7.2080    8.7180 O.3       1 CE3        -0.2672
     25 C10        18.1860    8.5040    8.4320 C.2       1 CE3         0.2324
     26 O4         17.8900    9.0320    7.3790 O.2       1 CE3        -0.3706
     27 C11        19.0490    9.0180    9.5400 C.3       1 CE3         0.0374
     28 C12        13.9150    6.2080    8.1360 C.2       1 CE3         0.0629
     29 O5         13.0290    5.7490    7.3080 O.co2     1 CE3        -0.5685
     30 O6         13.9880    7.3920    8.5170 O.co2     1 CE3        -0.5685
     31 H1         15.7508    3.5057   11.0283 H         1 CE3         0.0778
     32 H2         13.7320    2.1464   11.3316 H         1 CE3         0.0839
     33 H3         17.9657    4.1393    7.8118 H         1 CE3         0.0503
     34 H4         17.8718    4.5021    9.5686 H         1 CE3         0.0503
     35 H5         13.2726    1.1636    8.6949 H         1 CE3         0.1876
     36 H6         10.4048   -1.3501   11.8393 H         1 CE3         0.0620
     37 H7         10.5228   -2.6942   10.6535 H         1 CE3         0.0620
     38 H8         10.3967   -0.9973   10.0781 H         1 CE3         0.0620
     39 H9         13.7025   -4.4717    5.2256 H         1 CE3         0.1863
     40 H10        15.0597   -3.7607    4.3116 H         1 CE3         0.1863
     41 H11        15.8488   -0.0066    7.6738 H         1 CE3         0.0635
     42 H12        16.0496    7.1766    7.3881 H         1 CE3         0.0741
     43 H13        17.4525    6.1845    6.8646 H         1 CE3         0.0741
     44 H14        19.4006   10.0302    9.2915 H         1 CE3         0.0483
     45 H15        19.9140    8.3512    9.6705 H         1 CE3         0.0483
     46 H16        18.4672    9.0507   10.4729 H         1 CE3         0.0483
@<TRIPOS>BOND
     1    1    2 1  
     2    1    3 1  
     3    1    7 1  
     4    2    8 1  
     5    2   10 1  
     6    3    4 1  
     7    4    5 1  
     8    5    6 2  
     9    5   23 1  
    10    6    7 1  
    11    6   28 1  
    12    7    8 am 
    13    8    9 2  
    14   10   11 am 
    15   11   12 2  
    16   11   13 1  
    17   13   14 2  
    18   13   17 1  
    19   14   15 1  
    20   15   16 1  
    21   17   18 1  
    22   17   22 2  
    23   18   19 2  
    24   19   20 1  
    25   19   21 1  
    26   21   22 1  
    27   23   24 1  
    28   24   25 1  
    29   25   26 2  
    30   25   27 1  
    31   28   29 ar 
    32   28   30 ar 
    33    1   31 1  
    34    2   32 1  
    35    4   33 1  
    36    4   34 1  
    37   10   35 1  
    38   16   36 1  
    39   16   37 1  
    40   16   38 1  
    41   20   39 1  
    42   20   40 1  
    43   22   41 1  
    44   23   42 1  
    45   23   43 1  
    46   27   44 1  
    47   27   45 1  
    48   27   46 1  
@<TRIPOS>SUBSTRUCTURE
     1 CE3         1

