### 
### Created by X-TOOL on Mon Sep 10 21:13:12 2018
### 

@<TRIPOS>MOLECULE
4kov_ligand
   44    46     1     0     0
SMALL
GAST_HUCK


@<TRIPOS>ATOM
      1 S          16.5460    2.4860    8.9150 S.3       1 KOV        -0.1134
      2 C1         10.6310   -1.4960   10.6520 C.3       1 KOV         0.0867
      3 N1         12.5720   -1.8100    9.4160 N.2       1 KOV        -0.1264
      4 O1         12.0740   -1.4080   10.6770 O.3       1 KOV        -0.2309
      5 C2         13.6110   -1.1340    9.0810 C.2       1 KOV         0.1819
      6 N2         13.7060    1.1620    9.5630 N.am      1 KOV        -0.2614
      7 O2         13.6640   -2.4800    7.1190 O.3       1 KOV        -0.2619
      8 C3         14.2170   -1.4230    7.8260 C.2       1 KOV         0.1421
      9 N3         14.5060    4.1620    9.3780 N.am      1 KOV        -0.2209
     10 O3         15.0170   -0.2130   10.7620 O.2       1 KOV        -0.3861
     11 C4         15.2460   -0.8950    7.1230 C.2       1 KOV        -0.0562
     12 N4         19.7260    8.1720    9.0470 N.am      1 KOV        -0.2762
     13 O4         12.1670    3.9350    9.5330 O.2       1 KOV        -0.3867
     14 C5         15.3570   -1.6780    5.9330 C.2       1 KOV        -0.0630
     15 O5         18.0250    6.9120    8.5810 O.3       1 KOV        -0.2543
     16 C6         14.4130   -2.5730    5.9590 C.2       1 KOV         0.0796
     17 O6         18.1750    8.8730    7.4640 O.2       1 KOV        -0.3776
     18 C7         14.2000   -0.0220    9.8790 C.2       1 KOV         0.2222
     19 O7         14.0540    7.3870    8.4670 O.co2     1 KOV        -0.5685
     20 C8         14.0200    2.3780   10.2910 C.3       1 KOV         0.1713
     21 O8         13.1060    5.7590    7.3380 O.co2     1 KOV        -0.5685
     22 C9         15.3260    3.1350   10.0550 C.3       1 KOV         0.1468
     23 C10        13.3420    3.6430    9.6840 C.2       1 KOV         0.2268
     24 C11        15.0470    5.2380    8.6100 C.2       1 KOV         0.0811
     25 C12        16.3190    5.2170    8.3390 C.2       1 KOV        -0.0100
     26 C13        17.3150    4.1240    8.6080 C.3       1 KOV         0.0210
     27 C14        16.9800    6.3990    7.6370 C.3       1 KOV         0.1008
     28 C15        18.6190    8.0610    8.2860 C.2       1 KOV         0.3187
     29 C16        14.0120    6.1790    8.0810 C.2       1 KOV         0.0629
     30 H1         10.2278   -1.1860   11.6274 H         1 KOV         0.0621
     31 H2         10.3304   -2.5335   10.4440 H         1 KOV         0.0621
     32 H3         10.2369   -0.8354    9.8657 H         1 KOV         0.0621
     33 H4         13.0840    1.2236    8.7824 H         1 KOV         0.1876
     34 H5         15.8645   -0.0449    7.4070 H         1 KOV         0.0360
     35 H6         20.3102    8.9795    8.9651 H         1 KOV         0.1831
     36 H7         19.9631    7.4469    9.6935 H         1 KOV         0.1831
     37 H8         16.0984   -1.5489    5.1458 H         1 KOV         0.0353
     38 H9         14.2351   -3.3016    5.1695 H         1 KOV         0.0987
     39 H10        13.8105    2.2008   11.3562 H         1 KOV         0.0839
     40 H11        15.8253    3.4502   10.9831 H         1 KOV         0.0778
     41 H12        17.9801    4.0377    7.7361 H         1 KOV         0.0503
     42 H13        17.9054    4.4022    9.4935 H         1 KOV         0.0503
     43 H14        17.4441    6.0724    6.6947 H         1 KOV         0.0739
     44 H15        16.2370    7.1826    7.4275 H         1 KOV         0.0739
@<TRIPOS>BOND
     1    1   22 1  
     2   26    1 1  
     3    4    2 1  
     4    3    4 1  
     5    5    3 2  
     6    5    8 1  
     7   18    5 1  
     8    6   18 am 
     9   20    6 1  
    10    8    7 1  
    11    7   16 1  
    12    8   11 2  
    13    9   22 1  
    14    9   23 am 
    15   24    9 1  
    16   18   10 2  
    17   11   14 1  
    18   28   12 am 
    19   23   13 2  
    20   14   16 2  
    21   27   15 1  
    22   15   28 1  
    23   28   17 2  
    24   29   19 ar 
    25   22   20 1  
    26   23   20 1  
    27   29   21 ar 
    28   25   24 2  
    29   24   29 1  
    30   25   26 1  
    31   25   27 1  
    32    2   30 1  
    33    2   31 1  
    34    2   32 1  
    35    6   33 1  
    36   11   34 1  
    37   12   35 1  
    38   12   36 1  
    39   14   37 1  
    40   16   38 1  
    41   20   39 1  
    42   22   40 1  
    43   26   41 1  
    44   26   42 1  
    45   27   43 1  
    46   27   44 1  
@<TRIPOS>SUBSTRUCTURE
     1 KOV         1

