### 
### Created by X-TOOL on Mon Sep 10 21:13:12 2018
### 

@<TRIPOS>MOLECULE
4kow_ligand
   44    46     1     0     0
SMALL
GAST_HUCK


@<TRIPOS>ATOM
      1 C4        -12.9660    3.6630   -9.7180 C.2       1 CFX         0.2670
      2 O5        -11.8430    4.1200   -9.5440 O.2       1 CFX        -0.3485
      3 N1        -14.1840    4.1250   -9.4260 N.am      1 CFX        -0.2160
      4 C2        -14.8900    3.0110  -10.0960 C.3       1 CFX         0.1654
      5 S8        -16.1590    2.3900   -8.9880 S.3       1 CFX        -0.1125
      6 C9        -16.9640    4.0050   -8.8870 C.3       1 CFX         0.0249
      7 C10       -16.0520    5.1900   -8.5120 C.2       1 CFX        -0.0006
      8 C11       -14.7620    5.2150   -8.7230 C.2       1 CFX         0.0914
      9 C15       -16.7280    6.3320   -7.7880 C.3       1 CFX         0.1048
     10 C12       -13.8000    6.1880   -8.1640 C.2       1 CFX         0.0672
     11 O13       -13.9170    7.3670   -8.5110 O.co2     1 CFX        -0.5675
     12 O14       -12.9180    5.7940   -7.3630 O.co2     1 CFX        -0.5675
     13 C3        -13.5290    2.3230  -10.2010 C.3       1 CFX         0.2733
     14 O16       -13.2730    1.9920  -11.5610 O.3       1 CFX        -0.3548
     15 C17       -11.9220    1.7320  -11.8640 C.3       1 CFX         0.0363
     16 N18       -13.1350    1.2700   -9.3210 N.am      1 CFX        -0.2534
     17 C19       -13.6110    0.0370   -9.3600 C.2       1 CFX         0.1896
     18 O21       -14.5700   -0.2430  -10.0460 O.2       1 CFX        -0.3939
     19 C20       -12.9300   -0.9880   -8.5160 C.3       1 CFX         0.0815
     20 C23       -13.6740   -1.3430   -7.2880 C.2       1 CFX         0.0307
     21 S24       -13.0690   -2.4900   -6.1610 S.3       1 CFX        -0.0419
     22 C25       -14.4020   -2.3750   -5.1500 C.2       1 CFX        -0.0189
     23 C26       -15.2700   -1.5440   -5.6200 C.2       1 CFX        -0.0924
     24 C27       -14.8760   -0.9330   -6.8370 C.2       1 CFX        -0.0791
     25 O30       -17.7870    6.9150   -8.6790 O.3       1 CFX        -0.2527
     26 C31       -18.3290    8.1440   -8.4010 C.2       1 CFX         0.3189
     27 O32       -17.9100    9.0730   -7.6670 O.2       1 CFX        -0.3776
     28 N33       -19.4500    8.2090   -9.1250 N.am      1 CFX        -0.2762
     29 H1        -15.3389    3.2374  -11.0744 H         1 CFX         0.0768
     30 H2        -17.7587    3.9386   -8.1294 H         1 CFX         0.0521
     31 H3        -17.4104    4.2210   -9.8688 H         1 CFX         0.0521
     32 H4        -15.9850    7.1053   -7.5432 H         1 CFX         0.0757
     33 H5        -17.1892    5.9601   -6.8612 H         1 CFX         0.0757
     34 H6        -11.8264    1.4872  -12.9321 H         1 CFX         0.0521
     35 H7        -11.5675    0.8836  -11.2603 H         1 CFX         0.0521
     36 H8        -11.3172    2.6222  -11.6363 H         1 CFX         0.0521
     37 H9        -12.4491    1.4803   -8.6244 H         1 CFX         0.1848
     38 H10       -11.9447   -0.5965   -8.2230 H         1 CFX         0.0685
     39 H11       -12.7984   -1.8998   -9.1170 H         1 CFX         0.0685
     40 H12       -14.5195   -2.9286   -4.2196 H         1 CFX         0.0603
     41 H13       -16.2177   -1.3316   -5.1273 H         1 CFX         0.0373
     42 H14       -15.4884   -0.1996   -7.3595 H         1 CFX         0.0284
     43 H15       -20.0245    9.0265   -9.0848 H         1 CFX         0.1831
     44 H16       -19.7145    7.4401   -9.7071 H         1 CFX         0.1831
@<TRIPOS>BOND
     1    1    2 2  
     2    1    3 am 
     3    1   13 1  
     4    3    4 1  
     5    3    8 1  
     6    4    5 1  
     7    4   13 1  
     8    5    6 1  
     9    6    7 1  
    10    7    8 2  
    11    7    9 1  
    12    8   10 1  
    13    9   25 1  
    14   10   11 ar 
    15   10   12 ar 
    16   13   14 1  
    17   13   16 1  
    18   14   15 1  
    19   16   17 am 
    20   17   18 2  
    21   17   19 1  
    22   19   20 1  
    23   20   21 1  
    24   20   24 2  
    25   21   22 1  
    26   22   23 2  
    27   23   24 1  
    28   25   26 1  
    29   26   27 2  
    30   26   28 am 
    31    4   29 1  
    32    6   30 1  
    33    6   31 1  
    34    9   32 1  
    35    9   33 1  
    36   15   34 1  
    37   15   35 1  
    38   15   36 1  
    39   16   37 1  
    40   19   38 1  
    41   19   39 1  
    42   22   40 1  
    43   23   41 1  
    44   24   42 1  
    45   28   43 1  
    46   28   44 1  
@<TRIPOS>SUBSTRUCTURE
     1 CFX         1

