### 
### Created by X-TOOL on Mon Sep 10 21:13:12 2018
### 

@<TRIPOS>MOLECULE
4kox_ligand
   41    43     1     0     0
SMALL
GAST_HUCK


@<TRIPOS>ATOM
      1 S1        -12.7010    2.7280  -10.4430 S.3       1 CLS        -0.1134
      2 C2        -11.9710    4.3470  -10.6830 C.3       1 CLS         0.0210
      3 C3        -12.9380    5.4210  -11.1180 C.2       1 CLS        -0.0099
      4 C3'       -12.3070    6.5670  -11.8320 C.3       1 CLS         0.1003
      5 O20       -11.3820    7.2280  -10.8350 O.3       1 CLS        -0.2672
      6 C21       -10.9610    8.5860  -11.0840 C.2       1 CLS         0.2324
      7 O22       -11.2640    9.1740  -12.0960 O.2       1 CLS        -0.3706
      8 C23       -10.1400    9.1410   -9.9690 C.3       1 CLS         0.0374
      9 C4        -14.2480    5.4010  -10.8830 C.2       1 CLS         0.0811
     10 C4'       -15.2620    6.3710  -11.4440 C.2       1 CLS         0.0629
     11 O4A       -15.2190    7.5590  -11.0960 O.co2     1 CLS        -0.5685
     12 O4B       -16.1460    5.9180  -12.2160 O.co2     1 CLS        -0.5685
     13 N5        -14.7570    4.3550  -10.0710 N.am      1 CLS        -0.2209
     14 C6        -13.9770    3.3440   -9.3530 C.3       1 CLS         0.1469
     15 C7        -15.3120    2.5390   -9.1780 C.3       1 CLS         0.1719
     16 C8        -15.9750    3.8440   -9.7060 C.2       1 CLS         0.2269
     17 O9        -17.0870    4.2990   -9.8300 O.2       1 CLS        -0.3867
     18 N10       -15.7010    1.3720   -9.9800 N.am      1 CLS        -0.2603
     19 C11       -15.3250    0.0730   -9.8380 C.2       1 CLS         0.1919
     20 O12       -14.4540   -0.3030   -9.0480 O.2       1 CLS        -0.3935
     21 C13       -16.1560   -0.9270  -10.6520 C.3       1 CLS         0.0819
     22 C14       -15.5570   -1.4990  -11.9340 C.2       1 CLS         0.0307
     23 C15       -16.1240   -2.4770  -12.7900 C.2       1 CLS        -0.0791
     24 C16       -15.2680   -2.7860  -13.8910 C.2       1 CLS        -0.0924
     25 C17       -14.1260   -2.0930  -13.8210 C.2       1 CLS        -0.0189
     26 S19       -14.0270   -1.0500  -12.4750 S.3       1 CLS        -0.0419
     27 H1        -11.1893    4.2590  -11.4519 H         1 CLS         0.0503
     28 H2        -11.5162    4.6613   -9.7320 H         1 CLS         0.0503
     29 H3        -13.0767    7.2777  -12.1673 H         1 CLS         0.0741
     30 H4        -11.7365    6.2073  -12.7010 H         1 CLS         0.0741
     31 H5         -9.8466   10.1737  -10.2086 H         1 CLS         0.0483
     32 H6         -9.2383    8.5252   -9.8358 H         1 CLS         0.0483
     33 H7        -10.7297    9.1334   -9.0404 H         1 CLS         0.0483
     34 H8        -13.5286    3.6623   -8.4004 H         1 CLS         0.0778
     35 H9        -15.5169    2.2971   -8.1247 H         1 CLS         0.0840
     36 H10       -16.3295    1.5584  -10.7352 H         1 CLS         0.1885
     37 H11       -17.0927   -0.4212  -10.9289 H         1 CLS         0.0685
     38 H12       -16.3799   -1.7771   -9.9909 H         1 CLS         0.0685
     39 H13       -17.0971   -2.9380  -12.6272 H         1 CLS         0.0284
     40 H14       -15.5128   -3.4925  -14.6828 H         1 CLS         0.0373
     41 H15       -13.3299   -2.1865  -14.5582 H         1 CLS         0.0603
@<TRIPOS>BOND
     1    1    2 1  
     2    1   14 1  
     3    2    3 1  
     4    3    4 1  
     5    3    9 2  
     6    4    5 1  
     7    5    6 1  
     8    6    7 2  
     9    6    8 1  
    10    9   10 1  
    11    9   13 1  
    12   10   11 ar 
    13   10   12 ar 
    14   13   14 1  
    15   13   16 am 
    16   14   15 1  
    17   15   16 1  
    18   15   18 1  
    19   16   17 2  
    20   18   19 am 
    21   19   20 2  
    22   19   21 1  
    23   21   22 1  
    24   22   23 2  
    25   22   26 1  
    26   23   24 1  
    27   24   25 2  
    28   25   26 1  
    29    2   27 1  
    30    2   28 1  
    31    4   29 1  
    32    4   30 1  
    33    8   31 1  
    34    8   32 1  
    35    8   33 1  
    36   14   34 1  
    37   15   35 1  
    38   18   36 1  
    39   21   37 1  
    40   21   38 1  
    41   23   39 1  
    42   24   40 1  
    43   25   41 1  
@<TRIPOS>SUBSTRUCTURE
     1 CLS         1

