### 
### Created by X-TOOL on Mon Sep 10 21:13:16 2018
### 

@<TRIPOS>MOLECULE
4kp0_ligand
   46    49     1     0     0
SMALL
GAST_HUCK


@<TRIPOS>ATOM
      1 O27        24.2220   -6.4260  -14.5450 O.co2     1 KPK        -0.5690
      2 C24        23.0590   -6.6750  -14.9300 C.2       1 KPK         0.0348
      3 O26        22.0230   -6.7350  -14.2090 O.co2     1 KPK        -0.5690
      4 C20        22.9560   -6.9430  -16.4040 C.3       1 KPK         0.0011
      5 C16        23.6560   -8.2670  -16.7370 C.3       1 KPK        -0.0294
      6 C12        22.8550   -9.5060  -16.3160 C.3       1 KPK         0.0179
      7 S8         23.0190   -9.8520  -14.5830 S.3       1 KPK        -0.0358
      8 C3         24.6130   -9.4790  -13.9600 C.2       1 KPK         0.1891
      9 N7         25.7280   -9.7680  -14.6630 N.2       1 KPK        -0.3079
     10 C5         26.7470   -9.3680  -13.8780 C.ar      1 KPK         0.0219
     11 C10        28.1280   -9.3830  -14.0400 C.ar      1 KPK        -0.0655
     12 C15        28.9340   -8.8600  -13.0270 C.ar      1 KPK        -0.0786
     13 C11        28.3650   -8.3290  -11.8530 C.ar      1 KPK        -0.0766
     14 C6         26.9760   -8.2980  -11.6510 C.ar      1 KPK        -0.0419
     15 C2         26.1300   -8.8040  -12.6400 C.ar      1 KPK         0.0835
     16 N1         24.7920   -8.9130  -12.7680 N.pl3     1 KPK        -0.2152
     17 C4         23.7580   -8.4810  -11.8290 C.3       1 KPK         0.0811
     18 C9         23.3690   -9.5730  -10.8780 C.2       1 KPK        -0.0186
     19 C14        23.8130  -10.8940  -11.0210 C.2       1 KPK        -0.0118
     20 S19        23.1600  -11.8670   -9.7330 S.3       1 KPK        -0.0574
     21 C17        22.3260  -10.6460   -8.9630 C.ar      1 KPK         0.0286
     22 C21        21.5530  -10.8010   -7.8120 C.ar      1 KPK        -0.0574
     23 C25        20.9210   -9.6820   -7.2840 C.ar      1 KPK        -0.0776
     24 C22        21.0340   -8.4160   -7.8950 C.ar      1 KPK        -0.0698
     25 C18        21.7760   -8.1800   -9.0580 C.ar      1 KPK        -0.0471
     26 C13        22.4850   -9.3520   -9.6650 C.ar      1 KPK        -0.0124
     27 C23        21.8350   -6.7840   -9.6460 C.3       1 KPK        -0.0325
     28 H1         23.4376   -6.1247  -16.9593 H         1 KPK         0.0431
     29 H2         21.8961   -7.0071  -16.6912 H         1 KPK         0.0431
     30 H3         24.6264   -8.2875  -16.2195 H         1 KPK         0.0293
     31 H4         23.8191   -8.3108  -17.8239 H         1 KPK         0.0293
     32 H5         23.2182  -10.3735  -16.8865 H         1 KPK         0.0412
     33 H6         21.7925   -9.3356  -16.5444 H         1 KPK         0.0412
     34 H7         28.5721   -9.7945  -14.9392 H         1 KPK         0.0535
     35 H8         30.0115   -8.8626  -13.1455 H         1 KPK         0.0516
     36 H9         29.0180   -7.9331  -11.0837 H         1 KPK         0.0528
     37 H10        26.5646   -7.8856  -10.7368 H         1 KPK         0.0541
     38 H11        22.8685   -8.1724  -12.3979 H         1 KPK         0.0721
     39 H12        24.1384   -7.6260  -11.2509 H         1 KPK         0.0721
     40 H13        24.4652  -11.2561  -11.8144 H         1 KPK         0.0597
     41 H14        21.4480  -11.7715   -7.3408 H         1 KPK         0.0507
     42 H15        20.3279   -9.7843   -6.3824 H         1 KPK         0.0552
     43 H16        20.5176   -7.5793   -7.4386 H         1 KPK         0.0486
     44 H17        21.2378   -6.0994   -9.0258 H         1 KPK         0.0393
     45 H18        21.4304   -6.7995  -10.6688 H         1 KPK         0.0393
     46 H19        22.8796   -6.4401   -9.6700 H         1 KPK         0.0393
@<TRIPOS>BOND
     1    1    2 ar 
     2    2    3 ar 
     3    2    4 1  
     4    4    5 1  
     5    5    6 1  
     6    6    7 1  
     7    7    8 1  
     8    8    9 2  
     9    8   16 1  
    10    9   10 1  
    11   10   11 ar 
    12   10   15 ar 
    13   11   12 ar 
    14   12   13 ar 
    15   13   14 ar 
    16   14   15 ar 
    17   15   16 1  
    18   16   17 1  
    19   17   18 1  
    20   18   19 2  
    21   18   26 1  
    22   19   20 1  
    23   20   21 1  
    24   21   22 ar 
    25   21   26 ar 
    26   22   23 ar 
    27   23   24 ar 
    28   24   25 ar 
    29   25   26 ar 
    30   25   27 1  
    31    4   28 1  
    32    4   29 1  
    33    5   30 1  
    34    5   31 1  
    35    6   32 1  
    36    6   33 1  
    37   11   34 1  
    38   12   35 1  
    39   13   36 1  
    40   14   37 1  
    41   17   38 1  
    42   17   39 1  
    43   19   40 1  
    44   22   41 1  
    45   23   42 1  
    46   24   43 1  
    47   27   44 1  
    48   27   45 1  
    49   27   46 1  
@<TRIPOS>SUBSTRUCTURE
     1 KPK         1

