### 
### Created by X-TOOL on Mon Sep 10 21:13:13 2018
### 

@<TRIPOS>MOLECULE
4kp6_ligand
   38    39     1     0     0
SMALL
GAST_HUCK


@<TRIPOS>ATOM
      1 C3        -41.4990   90.8870  116.2040 C.ar      1 1S1         0.1818
      2 C4        -39.8600   90.7430  114.5090 C.ar      1 1S1         0.2518
      3 C7        -39.4460   89.8180  116.6260 C.ar      1 1S1         0.1795
      4 N10       -39.3330   92.1900  111.3240 N.2       1 1S1        -0.2788
      5 C12       -38.2970   91.3500  111.4970 C.2       1 1S1         0.0686
      6 N13       -38.6050   89.1440  117.4750 N.pl3     1 1S1        -0.2908
      7 C15       -43.8180   91.8010  115.6670 C.3       1 1S1         0.1776
      8 C16       -44.9770   92.2720  116.5630 C.3       1 1S1        -0.0043
      9 C17       -46.2140   92.8050  115.8420 C.3       1 1S1        -0.0608
     10 C18       -44.2400   90.6890  114.6660 C.3       1 1S1        -0.0043
     11 C19       -44.8020   89.4560  115.3860 C.3       1 1S1        -0.0608
     12 N21       -42.9900   93.8260  114.2230 N.1       1 1S1        -0.3007
     13 C20       -43.3560   92.9370  114.8660 C.1       1 1S1         0.1225
     14 N1        -42.7650   91.2970  116.5760 N.pl3     1 1S1        -0.2592
     15 N5        -40.6650   90.2570  117.0710 N.ar      1 1S1        -0.2286
     16 C14       -37.3070   88.6180  117.0570 C.3       1 1S1         0.0214
     17 N6        -39.0160   90.1050  115.3590 N.ar      1 1S1        -0.2148
     18 N2        -41.0900   91.1610  114.9320 N.ar      1 1S1        -0.2148
     19 N8        -39.4210   91.1000  113.1860 N.pl3     1 1S1        -0.0956
     20 N11       -38.3610   90.7110  112.6460 N.2       1 1S1        -0.1676
     21 C9        -40.0440   92.0300  112.4420 C.2       1 1S1         0.1546
     22 H1        -37.4974   91.2142  110.7703 H         1 1S1         0.0895
     23 H2        -38.9018   89.0023  118.4511 H         1 1S1         0.1892
     24 H3        -44.5951   93.0742  117.2116 H         1 1S1         0.0310
     25 H4        -45.2911   91.4184  117.1817 H         1 1S1         0.0310
     26 H5        -46.9680   93.1086  116.5832 H         1 1S1         0.0231
     27 H6        -46.6303   92.0173  115.1969 H         1 1S1         0.0231
     28 H7        -45.9344   93.6730  115.2269 H         1 1S1         0.0231
     29 H8        -43.3609   90.3875  114.0776 H         1 1S1         0.0310
     30 H9        -45.0117   91.0904  113.9928 H         1 1S1         0.0310
     31 H10       -45.0873   88.6962  114.6435 H         1 1S1         0.0231
     32 H11       -45.6862   89.7454  115.9728 H         1 1S1         0.0231
     33 H12       -44.0353   89.0425  116.0577 H         1 1S1         0.0231
     34 H13       -42.9970   91.2472  117.5783 H         1 1S1         0.1923
     35 H14       -36.8211   88.1209  117.9095 H         1 1S1         0.0493
     36 H15       -36.6727   89.4446  116.7044 H         1 1S1         0.0493
     37 H16       -37.4503   87.8926  116.2426 H         1 1S1         0.0493
     38 H17       -40.9608   92.5564  112.7035 H         1 1S1         0.1414
@<TRIPOS>BOND
     1    1   14 1  
     2    1   15 ar 
     3   18    1 ar 
     4    2   17 ar 
     5    2   18 ar 
     6   19    2 1  
     7    3    6 1  
     8    3   15 ar 
     9   17    3 ar 
    10    5    4 1  
    11    4   21 2  
    12   20    5 2  
    13    6   16 1  
    14    7    8 1  
    15    7   10 1  
    16    7   13 1  
    17   14    7 1  
    18    8    9 1  
    19   10   11 1  
    20   13   12 3  
    21   19   20 1  
    22   19   21 1  
    23    5   22 1  
    24    6   23 1  
    25    8   24 1  
    26    8   25 1  
    27    9   26 1  
    28    9   27 1  
    29    9   28 1  
    30   10   29 1  
    31   10   30 1  
    32   11   31 1  
    33   11   32 1  
    34   11   33 1  
    35   14   34 1  
    36   16   35 1  
    37   16   36 1  
    38   16   37 1  
    39   21   38 1  
@<TRIPOS>SUBSTRUCTURE
     1 1S1         1

