### 
### Created by X-TOOL on Mon Sep 10 21:13:15 2018
### 

@<TRIPOS>MOLECULE
4kp8_ligand
   31    32     1     0     0
SMALL
GAST_HUCK


@<TRIPOS>ATOM
      1 O19        -5.5960   14.5920   -5.4960 O.2       1 E1G        -0.1504
      2 S17        -4.4920   15.5500   -5.9940 S.o2      1 E1G         0.0669
      3 O18        -4.7390   15.5970   -7.5240 O.2       1 E1G        -0.1504
      4 N20        -2.9040   14.8600   -5.7340 N.am      1 E1G        -0.2609
      5 C4         -4.6220   17.1940   -5.2820 C.ar      1 E1G         0.1137
      6 C5         -3.8580   17.3440   -4.1380 C.ar      1 E1G        -0.0305
      7 C6         -3.8450   18.5500   -3.4290 C.ar      1 E1G        -0.0540
      8 C1         -4.5720   19.6350   -3.9020 C.ar      1 E1G        -0.0429
      9 C3         -5.3730   18.2930   -5.7840 C.ar      1 E1G        -0.0163
     10 C2         -5.3270   19.5340   -5.0730 C.ar      1 E1G         0.0355
     11 C7         -6.0870   20.7560   -5.4230 C.2       1 E1G         0.1457
     12 O13        -5.5450   21.7850   -5.8300 O.2       1 E1G        -0.3773
     13 C8         -7.5770   20.7390   -5.2100 C.3       1 E1G         0.0883
     14 S9         -8.1150   22.3960   -4.7040 S.3       1 E1G        -0.0349
     15 C10        -7.4680   22.2240   -3.0190 C.ar      1 E1G         0.1694
     16 N12        -8.3150   22.0320   -1.9480 N.ar      1 E1G        -0.2535
     17 C15        -7.8400   21.9010   -0.6750 C.ar      1 E1G         0.0222
     18 C16        -6.4660   21.9720   -0.4350 C.ar      1 E1G        -0.0157
     19 C14        -5.6030   22.1580   -1.5140 C.ar      1 E1G         0.0222
     20 N11        -6.1180   22.2840   -2.7780 N.ar      1 E1G        -0.2535
     21 H1         -2.5555   14.7439   -4.8039 H         1 E1G         0.1635
     22 H2         -2.3456   14.5820   -6.5156 H         1 E1G         0.1635
     23 H3         -3.2590   16.5124   -3.7850 H         1 E1G         0.0675
     24 H4         -3.2699   18.6374   -2.5143 H         1 E1G         0.0630
     25 H5         -4.5533   20.5712   -3.3560 H         1 E1G         0.0672
     26 H6         -5.9670   18.1926   -6.6852 H         1 E1G         0.0691
     27 H7         -7.8297   20.0123   -4.4238 H         1 E1G         0.0632
     28 H8         -8.0810   20.4567   -6.1461 H         1 E1G         0.0632
     29 H9         -8.5277   21.7422    0.1478 H         1 E1G         0.0921
     30 H10        -6.0772   21.8840    0.5730 H         1 E1G         0.0720
     31 H11        -4.5317   22.2027   -1.3544 H         1 E1G         0.0921
@<TRIPOS>BOND
     1    1    2 2  
     2    2    3 2  
     3    2    4 am 
     4    2    5 1  
     5    5    6 ar 
     6    5    9 ar 
     7    6    7 ar 
     8    7    8 ar 
     9    8   10 ar 
    10    9   10 ar 
    11   10   11 1  
    12   11   12 2  
    13   11   13 1  
    14   13   14 1  
    15   14   15 1  
    16   15   16 ar 
    17   15   20 ar 
    18   16   17 ar 
    19   17   18 ar 
    20   18   19 ar 
    21   19   20 ar 
    22    4   21 1  
    23    4   22 1  
    24    6   23 1  
    25    7   24 1  
    26    8   25 1  
    27    9   26 1  
    28   13   27 1  
    29   13   28 1  
    30   17   29 1  
    31   18   30 1  
    32   19   31 1  
@<TRIPOS>SUBSTRUCTURE
     1 E1G         1

