### 
### Created by X-TOOL on Mon Sep 10 21:13:18 2018
### 

@<TRIPOS>MOLECULE
4kpx_ligand
   42    44     1     0     0
SMALL
GAST_HUCK


@<TRIPOS>ATOM
      1 C1         -5.8050   20.2050   65.3490 C.ar      1 1SE        -0.0364
      2 C2         -5.4630   18.8690   65.4320 C.ar      1 1SE        -0.0294
      3 C3         -5.7630   18.1750   66.5850 C.ar      1 1SE         0.0171
      4 N4         -6.3790   18.7250   67.6410 N.ar      1 1SE        -0.2737
      5 C5         -6.6910   20.0290   67.5280 C.ar      1 1SE         0.1530
      6 C6         -6.4340   20.8100   66.4200 C.ar      1 1SE        -0.0110
      7 C7         -7.3710   20.6320   68.6940 C.2       1 1SE         0.3429
      8 O8         -7.9710   19.9090   69.4900 O.2       1 1SE        -0.3112
      9 N9         -7.2150   22.0060   68.7770 N.am      1 1SE        -0.1278
     10 C10        -7.9000   22.8130   69.7100 C.ar      1 1SE         0.2360
     11 C11        -8.2850   24.0770   69.3010 C.ar      1 1SE         0.0867
     12 C12        -8.9590   24.8950   70.1850 C.ar      1 1SE         0.0867
     13 C13        -9.2480   24.4830   71.4750 C.ar      1 1SE         0.2357
     14 C14        -8.8150   23.2430   71.8930 C.ar      1 1SE         0.0867
     15 C15        -8.1520   22.4100   71.0110 C.ar      1 1SE         0.0867
     16 N16        -9.9530   25.3080   72.3750 N.am      1 1SE        -0.1314
     17 C17       -10.9060   26.2490   72.0010 C.2       1 1SE         0.3168
     18 O18       -11.2380   26.4960   70.8530 O.2       1 1SE        -0.3233
     19 C19       -11.5240   27.0460   73.0850 C.ar      1 1SE         0.0767
     20 C20       -12.3340   28.1280   72.7650 C.ar      1 1SE        -0.0421
     21 C21       -12.9290   28.8730   73.7640 C.ar      1 1SE        -0.0181
     22 C22       -12.6840   28.5370   75.0810 C.ar      1 1SE         0.1292
     23 C23       -11.8740   27.4630   75.3990 C.ar      1 1SE         0.1194
     24 C24       -11.2930   26.7070   74.4010 C.ar      1 1SE        -0.0129
     25 N25       -11.6240   27.0560   76.7770 N.2       1 1SE        -0.2212
     26 O26       -12.5450   27.1060   77.5870 O.2       1 1SE        -0.4942
     27 O27       -10.5000   26.6430   77.0640 O.2       1 1SE        -0.4942
     28 O28       -13.2930   29.2700   76.0690 O.3       1 1SE        -0.3217
     29 H          -5.5821   20.7727   64.4528 H         1 1SE         0.0750
     30 H          -4.9671   18.3747   64.6045 H         1 1SE         0.0745
     31 H          -5.4859   17.1285   66.6406 H         1 1SE         0.0842
     32 H          -6.7145   21.8567   66.3910 H         1 1SE         0.0765
     33 H          -6.5830   22.4497   68.1416 H         1 1SE         0.3446
     34 H          -8.0600   24.4211   68.2980 H         1 1SE         0.1062
     35 H          -9.2691   25.8823   69.8622 H         1 1SE         0.1063
     36 H          -8.9942   22.9212   72.9125 H         1 1SE         0.1063
     37 H          -7.8257   21.4305   71.3413 H         1 1SE         0.1062
     38 H          -9.7539   25.2096   73.3500 H         1 1SE         0.3442
     39 H         -12.4999   28.3889   71.7260 H         1 1SE         0.0686
     40 H         -13.5769   29.7068   73.5188 H         1 1SE         0.0573
     41 H         -10.6644   25.8593   74.6484 H         1 1SE         0.0719
     42 H         -13.8079   29.9643   75.6749 H         1 1SE         0.2536
@<TRIPOS>BOND
     1    1    2 ar 
     2    1    6 ar 
     3    2    3 ar 
     4    3    4 ar 
     5    4    5 ar 
     6    5    6 ar 
     7    5    7 1  
     8    7    8 2  
     9    7    9 am 
    10    9   10 1  
    11   10   11 ar 
    12   10   15 ar 
    13   11   12 ar 
    14   12   13 ar 
    15   13   14 ar 
    16   13   16 1  
    17   14   15 ar 
    18   16   17 am 
    19   17   18 2  
    20   17   19 1  
    21   19   20 ar 
    22   19   24 ar 
    23   20   21 ar 
    24   21   22 ar 
    25   22   23 ar 
    26   22   28 1  
    27   23   24 ar 
    28   23   25 1  
    29   25   26 2  
    30   25   27 2  
    31    1   29 1  
    32    2   30 1  
    33    3   31 1  
    34    6   32 1  
    35    9   33 1  
    36   11   34 1  
    37   12   35 1  
    38   14   36 1  
    39   15   37 1  
    40   16   38 1  
    41   20   39 1  
    42   21   40 1  
    43   24   41 1  
    44   28   42 1  
@<TRIPOS>SUBSTRUCTURE
     1 1SE         1

