### 
### Created by X-TOOL on Mon Sep 10 21:13:19 2018
### 

@<TRIPOS>MOLECULE
4kpz_ligand
   26    27     1     0     0
SMALL
GAST_HUCK


@<TRIPOS>ATOM
      1 C1         83.7350   35.4370   35.3660 C.ar      1 1SF         0.0597
      2 C2         85.0500   35.1550   35.6700 C.ar      1 1SF         0.1279
      3 C3         85.9240   34.7170   34.6970 C.ar      1 1SF         0.3301
      4 C4         85.4850   34.5570   33.3990 C.ar      1 1SF         0.1579
      5 C5         84.1690   34.8510   33.1150 C.ar      1 1SF         0.1977
      6 C6         83.2830   35.2890   34.0740 C.ar      1 1SF         0.0749
      7 N7         83.6710   34.7030   31.7740 N.2       1 1SF        -0.1853
      8 O8         84.3170   34.0150   30.9770 O.2       1 1SF        -0.4827
      9 O9         82.6130   35.2890   31.5280 O.2       1 1SF        -0.4827
     10 N10        87.2580   34.4300   35.0530 N.am      1 1SF        -0.0437
     11 C11        87.4360   33.3110   35.9430 C.3       1 1SF         0.1697
     12 C12        88.6380   33.5490   36.8190 C.3       1 1SF         0.0974
     13 C13        89.8310   33.8150   35.9520 C.2       1 1SF         0.2136
     14 O14        90.9380   33.3990   36.2610 O.2       1 1SF        -0.3863
     15 N15        89.5730   34.5600   34.8180 N.am      1 1SF        -0.1423
     16 C16        88.3320   34.9250   34.3300 C.2       1 1SF         0.4907
     17 O17        88.2230   35.6290   33.3350 O.2       1 1SF        -0.2823
     18 H          83.0584   35.7746   36.1427 H         1 1SF         0.0984
     19 H          85.4018   35.2792   36.6878 H         1 1SF         0.1398
     20 H          86.1574   34.2092   32.6231 H         1 1SF         0.1448
     21 H          82.2537   35.5120   33.8176 H         1 1SF         0.1604
     22 H          87.5882   32.3949   35.3535 H         1 1SF         0.0996
     23 H          86.5410   33.1977   36.5723 H         1 1SF         0.0996
     24 H          88.8241   32.6596   37.4389 H         1 1SF         0.0564
     25 H          88.4541   34.4171   37.4690 H         1 1SF         0.0564
     26 H          90.3676   34.8679   34.2947 H         1 1SF         0.2303
@<TRIPOS>BOND
     1    1    2 ar 
     2    1    6 ar 
     3    2    3 ar 
     4    3    4 ar 
     5    3   10 1  
     6    4    5 ar 
     7    5    6 ar 
     8    5    7 1  
     9    7    8 2  
    10    7    9 2  
    11   10   11 1  
    12   10   16 am 
    13   11   12 1  
    14   12   13 1  
    15   13   14 2  
    16   13   15 am 
    17   15   16 am 
    18   16   17 2  
    19    1   18 1  
    20    2   19 1  
    21    4   20 1  
    22    6   21 1  
    23   11   22 1  
    24   11   23 1  
    25   12   24 1  
    26   12   25 1  
    27   15   26 1  
@<TRIPOS>SUBSTRUCTURE
     1 1SF         1

