### 
### Created by X-TOOL on Mon Sep 10 21:13:18 2018
### 

@<TRIPOS>MOLECULE
4kql_ligand
   53    56     1     0     0
SMALL
GAST_HUCK


@<TRIPOS>ATOM
      1 C1         41.9200   57.5170   23.0970 C.3       1 1SG         0.0591
      2 O2         41.8170   58.8700   22.7010 O.3       1 1SG        -0.3230
      3 C3         41.7560   59.0130   21.3140 C.ar      1 1SG         0.0853
      4 C4         40.9700   60.0580   20.8870 C.ar      1 1SG        -0.0369
      5 C5         40.8540   60.3670   19.5450 C.ar      1 1SG        -0.0422
      6 C6         41.5070   59.5790   18.6180 C.ar      1 1SG        -0.0590
      7 C7         42.2790   58.5060   19.0350 C.ar      1 1SG         0.0370
      8 C8         42.4270   58.2230   20.3850 C.ar      1 1SG        -0.0228
      9 C9         42.9130   57.6920   17.9800 C.2       1 1SG         0.2241
     10 O10        42.5050   57.8370   16.8370 O.2       1 1SG        -0.3750
     11 N11        43.9120   56.8230   18.3730 N.am      1 1SG        -0.2415
     12 C12        44.6030   55.9480   17.5140 C.ar      1 1SG         0.0521
     13 C13        44.8050   54.6510   17.9340 C.ar      1 1SG        -0.0529
     14 C14        45.4900   53.7650   17.1300 C.ar      1 1SG        -0.0528
     15 C15        45.9660   54.1570   15.8920 C.ar      1 1SG         0.0523
     16 C16        45.7840   55.4610   15.4730 C.ar      1 1SG        -0.0528
     17 C17        45.1080   56.3510   16.2870 C.ar      1 1SG        -0.0529
     18 N18        46.6910   53.2880   15.0460 N.am      1 1SG        -0.2392
     19 C19        46.5220   51.9170   14.9140 C.2       1 1SG         0.2475
     20 O20        45.9050   51.1620   15.6630 O.2       1 1SG        -0.3693
     21 C21        47.1970   51.3650   13.7150 C.ar      1 1SG         0.1278
     22 C22        47.4940   52.2060   12.6600 C.ar      1 1SG        -0.0135
     23 C23        48.1190   51.6530   11.5590 C.ar      1 1SG        -0.0366
     24 C24        48.4180   50.3030   11.5500 C.ar      1 1SG        -0.0296
     25 C25        48.0780   49.5490   12.6550 C.ar      1 1SG         0.0168
     26 N26        47.4700   50.0490   13.7420 N.ar      1 1SG        -0.2758
     27 C27        39.9720   61.4540   19.1460 C.2       1 1SG         0.0600
     28 C28        39.1890   61.2830   18.0760 C.2       1 1SG         0.0743
     29 N29        38.2650   62.1860   17.6430 N.am      1 1SG        -0.1948
     30 C30        38.0080   63.3450   18.3210 C.2       1 1SG         0.3342
     31 O31        37.1540   64.1370   17.9500 O.2       1 1SG        -0.3785
     32 N32        38.7870   63.5370   19.4560 N.am      1 1SG        -0.1830
     33 C33        39.7740   62.7060   19.9320 C.2       1 1SG         0.2001
     34 O34        40.4450   62.9620   20.9240 O.2       1 1SG        -0.4048
     35 H          41.9647   57.4586   24.1945 H         1 1SG         0.0577
     36 H          42.8334   57.0782   22.6690 H         1 1SG         0.0577
     37 H          41.0421   56.9613   22.7357 H         1 1SG         0.0577
     38 H          40.4311   60.6507   21.6173 H         1 1SG         0.0480
     39 H          41.4156   59.8003   17.5608 H         1 1SG         0.0496
     40 H          43.0542   57.4010   20.7107 H         1 1SG         0.0514
     41 H          44.1633   56.8149   19.3409 H         1 1SG         0.2207
     42 H          44.4253   54.3275   18.8964 H         1 1SG         0.0471
     43 H          45.6574   52.7500   17.4719 H         1 1SG         0.0471
     44 H          46.1687   55.7841   14.5124 H         1 1SG         0.0471
     45 H          44.9711   57.3761   15.9621 H         1 1SG         0.0471
     46 H          47.4027   53.7061   14.4815 H         1 1SG         0.2210
     47 H          47.2459   53.2606   12.6948 H         1 1SG         0.0763
     48 H          48.3734   52.2736   10.7074 H         1 1SG         0.0749
     49 H          48.9073   49.8481   10.6963 H         1 1SG         0.0743
     50 H          48.3159   48.4915   12.6442 H         1 1SG         0.0841
     51 H          39.2971   60.3581   17.5114 H         1 1SG         0.1256
     52 H          37.7586   61.9948   16.8022 H         1 1SG         0.2524
     53 H          38.6109   64.3685   19.9829 H         1 1SG         0.2263
@<TRIPOS>BOND
     1    1    2 1  
     2    2    3 1  
     3    3    4 ar 
     4    3    8 ar 
     5    4    5 ar 
     6    5    6 ar 
     7    5   27 1  
     8    6    7 ar 
     9    7    8 ar 
    10    7    9 1  
    11    9   10 2  
    12    9   11 am 
    13   11   12 1  
    14   12   13 ar 
    15   12   17 ar 
    16   13   14 ar 
    17   14   15 ar 
    18   15   16 ar 
    19   15   18 1  
    20   16   17 ar 
    21   18   19 am 
    22   19   20 2  
    23   19   21 1  
    24   21   22 ar 
    25   21   26 ar 
    26   22   23 ar 
    27   23   24 ar 
    28   24   25 ar 
    29   25   26 ar 
    30   27   28 2  
    31   27   33 1  
    32   28   29 1  
    33   29   30 am 
    34   30   31 2  
    35   30   32 am 
    36   32   33 am 
    37   33   34 2  
    38    1   35 1  
    39    1   36 1  
    40    1   37 1  
    41    4   38 1  
    42    6   39 1  
    43    8   40 1  
    44   11   41 1  
    45   13   42 1  
    46   14   43 1  
    47   16   44 1  
    48   17   45 1  
    49   18   46 1  
    50   22   47 1  
    51   23   48 1  
    52   24   49 1  
    53   25   50 1  
    54   28   51 1  
    55   29   52 1  
    56   32   53 1  
@<TRIPOS>SUBSTRUCTURE
     1 1SG         1

