### 
### Created by X-TOOL on Mon Sep 10 21:13:15 2018
### 

@<TRIPOS>MOLECULE
4kqo_ligand
   65    67     1     0     0
SMALL
GAST_HUCK


@<TRIPOS>ATOM
      1 S          -5.4460    6.0280   24.3190 S.3       1 JPP        -0.0899
      2 O01        -2.7810    4.2700   20.8680 O.2       1 JPP        -0.3722
      3 O02        -7.6280    3.5960   20.9110 O.co2     1 JPP        -0.5642
      4 O03        -7.5630    5.6330   20.1020 O.co2     1 JPP        -0.5642
      5 O06        -1.8700    6.5220   24.6720 O.2       1 JPP        -0.3914
      6 O04         0.5590    9.2570   21.7460 O.2       1 JPP        -0.3908
      7 O05         1.4390    7.8230   25.2540 O.2       1 JPP        -0.3475
      8 O           3.7860    8.3290   26.4670 O.2       1 JPP        -0.3578
      9 N02        -5.5970    4.0940   22.6330 N.4       1 JPP         0.2550
     10 N03        -2.7750    5.9800   22.6530 N.am      1 JPP        -0.2574
     11 N04        -0.2340    8.2540   23.6240 N.am      1 JPP        -0.2361
     12 N01         2.1960    8.8740   23.4210 N.am      1 JPP        -0.1573
     13 N           4.7700    8.6960   24.4360 N.am      1 JPP        -0.2590
     14 C17        -4.6690    4.5570   23.6650 C.3       1 JPP         0.0664
     15 C19        -6.7580    6.0930   23.0970 C.3       1 JPP         0.0708
     16 C18        -6.1780    5.2050   21.9690 C.3       1 JPP         0.0459
     17 C20        -3.2480    4.6930   23.1500 C.3       1 JPP         0.1653
     18 C01        -3.0590    3.7810   21.9670 C.2       1 JPP         0.1310
     19 C02        -8.0440    5.4950   23.6340 C.3       1 JPP        -0.0437
     20 C03        -6.9930    7.5330   22.6290 C.3       1 JPP        -0.0437
     21 C04        -7.1710    4.7830   20.9520 C.2       1 JPP         0.0859
     22 C21        -2.0740    6.8560   23.5180 C.2       1 JPP         0.2158
     23 CA         -1.5670    8.1520   23.0080 C.3       1 JPP         0.1652
     24 C05        -2.4720    9.3370   23.2090 C.ar      1 JPP         0.0008
     25 C06         0.8260    8.8390   22.8500 C.2       1 JPP         0.2953
     26 C07        -3.6720    9.4430   22.3370 C.ar      1 JPP        -0.0558
     27 C08        -2.2360   10.3160   24.1500 C.ar      1 JPP        -0.0558
     28 C09         3.2040    9.5130   22.6190 C.3       1 JPP         0.0805
     29 C10         4.5890    8.8040   22.9270 C.3       1 JPP         0.0595
     30 C11         2.3770    8.3180   24.6480 C.2       1 JPP         0.3156
     31 C12        -4.5450   10.5020   22.4650 C.ar      1 JPP        -0.0681
     32 C13        -3.1850   11.4760   24.2880 C.ar      1 JPP        -0.0681
     33 C14         3.6550    8.4070   25.2560 C.2       1 JPP         0.2926
     34 C15         6.1230    8.8430   24.9280 C.3       1 JPP         0.0321
     35 C16        -4.2940   11.5710   23.4860 C.ar      1 JPP        -0.0684
     36 C           6.8630    7.5790   24.6800 C.3       1 JPP        -0.0445
     37 H1         -6.3246    3.5432   23.0611 H         1 JPP         0.2045
     38 H2         -5.0975    3.5292   21.9640 H         1 JPP         0.2045
     39 H3         -2.9452    6.2436   21.7035 H         1 JPP         0.1888
     40 H4         -0.0708    7.9256   24.5543 H         1 JPP         0.1910
     41 H5         -4.6332    3.8089   24.4706 H         1 JPP         0.1026
     42 H6         -5.3902    5.7675   21.4466 H         1 JPP         0.1039
     43 H7         -2.5845    4.3857   23.9718 H         1 JPP         0.0858
     44 H8         -3.1662    2.7031   22.0794 H         1 JPP         0.1376
     45 H9         -8.8250    5.5509   22.8614 H         1 JPP         0.0246
     46 H10        -8.3666    6.0571   24.5228 H         1 JPP         0.0246
     47 H11        -7.8733    4.4433   23.9072 H         1 JPP         0.0246
     48 H12        -7.8000    7.5485   21.8816 H         1 JPP         0.0246
     49 H13        -6.0698    7.9279   22.1799 H         1 JPP         0.0246
     50 H14        -7.2780    8.1563   23.4894 H         1 JPP         0.0246
     51 H15        -1.4343    8.0617   21.9198 H         1 JPP         0.0958
     52 H16        -3.8623    8.6787   21.5922 H         1 JPP         0.0562
     53 H17        -1.3651   10.2504   24.7920 H         1 JPP         0.0562
     54 H18         3.2650   10.5809   22.8754 H         1 JPP         0.0596
     55 H19         2.9575    9.4055   21.5524 H         1 JPP         0.0596
     56 H20         4.5944    7.7978   22.4825 H         1 JPP         0.0548
     57 H21         5.4099    9.3982   22.4993 H         1 JPP         0.0548
     58 H22        -5.4173   10.5623   21.8243 H         1 JPP         0.0600
     59 H23        -2.9904   12.2437   25.0281 H         1 JPP         0.0600
     60 H24         6.1030    9.0538   26.0074 H         1 JPP         0.0521
     61 H25         6.6197    9.6714   24.4017 H         1 JPP         0.0521
     62 H26        -4.9780   12.4057   23.5888 H         1 JPP         0.0561
     63 H27         7.8940    7.6790   25.0503 H         1 JPP         0.0249
     64 H28         6.8799    7.3698   23.6002 H         1 JPP         0.0249
     65 H29         6.3632    6.7522   25.2059 H         1 JPP         0.0249
@<TRIPOS>BOND
     1   14    1 1  
     2    1   15 1  
     3   18    2 2  
     4   21    3 ar 
     5   21    4 ar 
     6   22    5 2  
     7   25    6 2  
     8   30    7 2  
     9   33    8 2  
    10   14    9 1  
    11    9   16 1  
    12   10   17 1  
    13   22   10 am 
    14   11   23 1  
    15   25   11 am 
    16   12   25 am 
    17   28   12 1  
    18   12   30 am 
    19   29   13 1  
    20   13   33 am 
    21   13   34 1  
    22   17   14 1  
    23   16   15 1  
    24   15   19 1  
    25   15   20 1  
    26   16   21 1  
    27   17   18 1  
    28   23   22 1  
    29   23   24 1  
    30   24   26 ar 
    31   24   27 ar 
    32   26   31 ar 
    33   27   32 ar 
    34   28   29 1  
    35   30   33 1  
    36   31   35 ar 
    37   32   35 ar 
    38   34   36 1  
    39    9   37 1  
    40    9   38 1  
    41   10   39 1  
    42   11   40 1  
    43   14   41 1  
    44   16   42 1  
    45   17   43 1  
    46   18   44 1  
    47   19   45 1  
    48   19   46 1  
    49   19   47 1  
    50   20   48 1  
    51   20   49 1  
    52   20   50 1  
    53   23   51 1  
    54   26   52 1  
    55   27   53 1  
    56   28   54 1  
    57   28   55 1  
    58   29   56 1  
    59   29   57 1  
    60   31   58 1  
    61   32   59 1  
    62   34   60 1  
    63   34   61 1  
    64   35   62 1  
    65   36   63 1  
    66   36   64 1  
    67   36   65 1  
@<TRIPOS>SUBSTRUCTURE
     1 JPP         1

