### 
### Created by X-TOOL on Mon Sep 10 21:13:12 2018
### 

@<TRIPOS>MOLECULE
4kqp_ligand
   20    19     1     0     0
SMALL
GAST_HUCK


@<TRIPOS>ATOM
      1 N          25.1020    8.2690   32.1230 N.4       1 GLN         0.2328
      2 CA         25.2700    7.8520   33.5410 C.3       1 GLN         0.0304
      3 C          26.5910    8.3580   34.0970 C.2       1 GLN         0.0846
      4 O          27.4500    8.8130   33.3100 O.co2     1 GLN        -0.5643
      5 CB         25.1630    6.3290   33.6850 C.3       1 GLN         0.0192
      6 CG         26.3050    5.5470   33.0490 C.3       1 GLN         0.0437
      7 CD         26.1820    4.0520   33.2630 C.2       1 GLN         0.1738
      8 OE1        25.4900    3.5860   34.1770 O.2       1 GLN        -0.3973
      9 NE2        26.8910    3.2910   32.4420 N.am      1 GLN        -0.3009
     10 OXT        26.7500    8.2970   35.3340 O.co2     1 GLN        -0.5643
     11 H1         24.2216    7.9243   31.7735 H         1 GLN         0.2010
     12 H2         25.8547    7.8900   31.5699 H         1 GLN         0.2010
     13 H3         25.1158    9.2752   32.0648 H         1 GLN         0.2010
     14 H4         24.4575    8.3059   34.1273 H         1 GLN         0.1026
     15 H5         24.2228    6.0057   33.2144 H         1 GLN         0.0363
     16 H6         25.1382    6.0873   34.7578 H         1 GLN         0.0363
     17 H7         27.2533    5.8884   33.4896 H         1 GLN         0.0505
     18 H8         26.3096    5.7482   31.9676 H         1 GLN         0.0505
     19 H9         26.8561    2.2953   32.5278 H         1 GLN         0.1814
     20 H10        27.4609    3.7124   31.7366 H         1 GLN         0.1814
@<TRIPOS>BOND
     1    1    2 1  
     2    2    3 1  
     3    2    5 1  
     4    3    4 ar 
     5    3   10 ar 
     6    5    6 1  
     7    6    7 1  
     8    7    8 2  
     9    7    9 am 
    10    1   11 1  
    11    1   12 1  
    12    1   13 1  
    13    2   14 1  
    14    5   15 1  
    15    5   16 1  
    16    6   17 1  
    17    6   18 1  
    18    9   19 1  
    19    9   20 1  
@<TRIPOS>SUBSTRUCTURE
     1 GLN         1

