### 
### Created by X-TOOL on Mon Sep 10 21:13:15 2018
### 

@<TRIPOS>MOLECULE
4kqq_ligand
   65    67     1     0     0
SMALL
GAST_HUCK


@<TRIPOS>ATOM
      1 S          -7.2970    5.6360   24.0520 S.3       1 VPP        -0.0907
      2 O01        -4.4890    3.6200   23.4160 O.co2     1 VPP        -0.5664
      3 O02        -7.9230    4.7890   19.6780 O.co2     1 VPP        -0.5642
      4 O03        -9.7910    5.8570   19.9400 O.co2     1 VPP        -0.5642
      5 O06        -2.4190    6.8960   24.6070 O.2       1 VPP        -0.3914
      6 O04         0.4060    9.6860   21.8630 O.2       1 VPP        -0.3908
      7 O05         1.1590    7.6740   25.2710 O.2       1 VPP        -0.3475
      8 O           3.5230    7.8610   26.5110 O.2       1 VPP        -0.3578
      9 N02        -6.6220    6.1930   21.6300 N.4       1 VPP         0.2544
     10 N03        -3.8360    6.9310   22.7270 N.am      1 VPP        -0.2617
     11 N04        -0.5170    8.3770   23.5150 N.am      1 VPP        -0.2361
     12 N01         1.8830    9.0260   23.5330 N.am      1 VPP        -0.1573
     13 N           4.5340    8.6400   24.5810 N.am      1 VPP        -0.2590
     14 C17        -6.1440    6.4420   22.9640 C.3       1 VPP         0.0622
     15 C19        -8.6410    5.5310   22.9100 C.3       1 VPP         0.0707
     16 C18        -8.1070    6.1760   21.6320 C.3       1 VPP         0.0459
     17 C20        -4.7370    5.9590   23.2400 C.3       1 VPP         0.1467
     18 C01        -4.4410    4.6160   22.6500 C.2       1 VPP         0.0666
     19 C02        -9.0230    4.1100   22.7080 C.3       1 VPP        -0.0437
     20 C03        -9.8330    6.3520   23.4540 C.3       1 VPP        -0.0437
     21 C04        -8.6270    5.5780   20.3510 C.2       1 VPP         0.0859
     22 C21        -2.6880    7.3440   23.5020 C.2       1 VPP         0.2152
     23 CA         -1.8210    8.3960   22.8930 C.3       1 VPP         0.1651
     24 C05        -2.5360    9.7140   23.0020 C.ar      1 VPP         0.0008
     25 C06         0.5820    9.0700   22.9010 C.2       1 VPP         0.2953
     26 C07        -3.1500   10.2470   21.8410 C.ar      1 VPP        -0.0558
     27 C08        -2.6040   10.4020   24.2210 C.ar      1 VPP        -0.0558
     28 C09         3.0060    9.7640   22.9020 C.3       1 VPP         0.0805
     29 C10         4.3870    9.0730   23.1750 C.3       1 VPP         0.0595
     30 C11         2.0850    8.2880   24.7460 C.2       1 VPP         0.3156
     31 C12        -3.8380   11.4740   21.9210 C.ar      1 VPP        -0.0681
     32 C13        -3.2820   11.6360   24.2850 C.ar      1 VPP        -0.0681
     33 C14         3.4000    8.2480   25.3540 C.2       1 VPP         0.2926
     34 C15         5.8870    8.6060   25.1510 C.3       1 VPP         0.0321
     35 C16        -3.9030   12.1720   23.1350 C.ar      1 VPP        -0.0684
     36 C           6.5600    7.3270   24.7090 C.3       1 VPP        -0.0445
     37 O07        -4.1330    4.4720   21.4190 O.co2     1 VPP        -0.5664
     38 H1         -6.2762    5.3020   21.3099 H         1 VPP         0.2044
     39 H2         -6.2951    6.9212   21.0144 H         1 VPP         0.2044
     40 H3         -3.9972    7.3314   21.8249 H         1 VPP         0.1879
     41 H4         -0.3793    7.8816   24.3727 H         1 VPP         0.1910
     42 H5         -6.1657    7.5267   23.1455 H         1 VPP         0.1018
     43 H6         -8.4460    7.2223   21.6476 H         1 VPP         0.1039
     44 H7         -4.6032    5.8860   24.3294 H         1 VPP         0.0793
     45 H8         -9.8598    4.0529   21.9963 H         1 VPP         0.0246
     46 H9         -9.3291    3.6723   23.6696 H         1 VPP         0.0246
     47 H10        -8.1631    3.5524   22.3084 H         1 VPP         0.0246
     48 H11       -10.6735    6.2906   22.7471 H         1 VPP         0.0246
     49 H12        -9.5304    7.4028   23.5734 H         1 VPP         0.0246
     50 H13       -10.1431    5.9467   24.4284 H         1 VPP         0.0246
     51 H14        -1.6849    8.1706   21.8250 H         1 VPP         0.0958
     52 H15        -3.0907    9.7146   20.8986 H         1 VPP         0.0562
     53 H16        -2.1386    9.9881   25.1082 H         1 VPP         0.0562
     54 H17         3.0331   10.7857   23.3087 H         1 VPP         0.0596
     55 H18         2.8381    9.8060   21.8157 H         1 VPP         0.0596
     56 H19         4.4756    8.1915   22.5231 H         1 VPP         0.0548
     57 H20         5.1910    9.7857   22.9392 H         1 VPP         0.0548
     58 H21        -4.3197   11.8805   21.0390 H         1 VPP         0.0600
     59 H22        -3.3272   12.1774   25.2230 H         1 VPP         0.0600
     60 H23         5.8282    8.6343   26.2490 H         1 VPP         0.0521
     61 H24         6.4630    9.4718   24.7922 H         1 VPP         0.0521
     62 H25        -4.4276   13.1190   23.1910 H         1 VPP         0.0561
     63 H26         7.5765    7.2841   25.1272 H         1 VPP         0.0249
     64 H27         6.6141    7.3017   23.6106 H         1 VPP         0.0249
     65 H28         5.9793    6.4643   25.0675 H         1 VPP         0.0249
@<TRIPOS>BOND
     1   14    1 1  
     2    1   15 1  
     3   18    2 ar 
     4   21    3 ar 
     5   21    4 ar 
     6   22    5 2  
     7   25    6 2  
     8   30    7 2  
     9   33    8 2  
    10   14    9 1  
    11    9   16 1  
    12   10   17 1  
    13   22   10 am 
    14   11   23 1  
    15   25   11 am 
    16   12   25 am 
    17   28   12 1  
    18   12   30 am 
    19   29   13 1  
    20   13   33 am 
    21   13   34 1  
    22   17   14 1  
    23   16   15 1  
    24   15   19 1  
    25   15   20 1  
    26   16   21 1  
    27   17   18 1  
    28   18   37 ar 
    29   23   22 1  
    30   23   24 1  
    31   24   26 ar 
    32   24   27 ar 
    33   26   31 ar 
    34   27   32 ar 
    35   28   29 1  
    36   30   33 1  
    37   31   35 ar 
    38   32   35 ar 
    39   34   36 1  
    40    9   38 1  
    41    9   39 1  
    42   10   40 1  
    43   11   41 1  
    44   14   42 1  
    45   16   43 1  
    46   17   44 1  
    47   19   45 1  
    48   19   46 1  
    49   19   47 1  
    50   20   48 1  
    51   20   49 1  
    52   20   50 1  
    53   23   51 1  
    54   26   52 1  
    55   27   53 1  
    56   28   54 1  
    57   28   55 1  
    58   29   56 1  
    59   29   57 1  
    60   31   58 1  
    61   32   59 1  
    62   34   60 1  
    63   34   61 1  
    64   35   62 1  
    65   36   63 1  
    66   36   64 1  
    67   36   65 1  
@<TRIPOS>SUBSTRUCTURE
     1 VPP         1

