### 
### Created by X-TOOL on Mon Sep 10 21:13:14 2018
### 

@<TRIPOS>MOLECULE
4kqr_ligand
   65    67     1     0     0
SMALL
GAST_HUCK


@<TRIPOS>ATOM
      1 S          -6.9970    5.8930   24.0930 S.3       1 VPP        -0.0907
      2 O01        -3.8090    4.5970   21.5850 O.co2     1 VPP        -0.5664
      3 O02        -7.6600    5.1410   19.5920 O.co2     1 VPP        -0.5642
      4 O03        -9.5320    6.1750   20.0620 O.co2     1 VPP        -0.5642
      5 O06        -2.1220    7.0410   24.7210 O.2       1 VPP        -0.3914
      6 O04         0.8500    9.7590   22.0480 O.2       1 VPP        -0.3908
      7 O05         1.5300    7.7660   25.4990 O.2       1 VPP        -0.3475
      8 O           3.8250    7.8540   26.7370 O.2       1 VPP        -0.3578
      9 N02        -6.2990    6.2820   21.6460 N.4       1 VPP         0.2544
     10 N03        -3.4970    7.1120   22.8320 N.am      1 VPP        -0.2617
     11 N04        -0.1720    8.4930   23.6810 N.am      1 VPP        -0.2361
     12 N01         2.2520    9.0950   23.7530 N.am      1 VPP        -0.1573
     13 N           4.8720    8.7110   24.8380 N.am      1 VPP        -0.2590
     14 C17        -5.8330    6.6400   22.9680 C.3       1 VPP         0.0622
     15 C19        -8.3260    5.6350   22.9310 C.3       1 VPP         0.0707
     16 C18        -7.7860    6.3340   21.6790 C.3       1 VPP         0.0459
     17 C20        -4.4300    6.1730   23.3250 C.3       1 VPP         0.1467
     18 C01        -4.1260    4.8070   22.7940 C.2       1 VPP         0.0666
     19 C02        -8.5370    4.1780   22.7140 C.3       1 VPP        -0.0437
     20 C03        -9.6340    6.3020   23.4110 C.3       1 VPP        -0.0437
     21 C04        -8.3470    5.8530   20.3680 C.2       1 VPP         0.0859
     22 C21        -2.3590    7.5110   23.6240 C.2       1 VPP         0.2152
     23 CA         -1.4530    8.5400   23.0300 C.3       1 VPP         0.1651
     24 C05        -2.1540    9.8580   23.1360 C.ar      1 VPP         0.0008
     25 C06         0.9640    9.1530   23.0970 C.2       1 VPP         0.2953
     26 C07        -2.7730   10.4130   21.9940 C.ar      1 VPP        -0.0558
     27 C08        -2.1870   10.5460   24.3510 C.ar      1 VPP        -0.0558
     28 C09         3.3850    9.8160   23.1170 C.3       1 VPP         0.0805
     29 C10         4.7630    9.1830   23.4450 C.3       1 VPP         0.0595
     30 C11         2.4480    8.3600   24.9630 C.2       1 VPP         0.3156
     31 C12        -3.4390   11.6520   22.0800 C.ar      1 VPP        -0.0681
     32 C13        -2.8530   11.7800   24.4370 C.ar      1 VPP        -0.0681
     33 C14         3.7360    8.2980   25.5880 C.2       1 VPP         0.2926
     34 C15         6.2280    8.6690   25.4100 C.3       1 VPP         0.0321
     35 C16        -3.4840   12.3300   23.3020 C.ar      1 VPP        -0.0684
     36 C           7.0450    7.6250   24.6770 C.3       1 VPP        -0.0445
     37 O07        -4.1960    3.8510   23.6260 O.co2     1 VPP        -0.5664
     38 H1         -5.9905    5.3517   21.4105 H         1 VPP         0.2044
     39 H2         -5.9450    6.9359   20.9654 H         1 VPP         0.2044
     40 H3         -3.6270    7.5055   21.9219 H         1 VPP         0.1879
     41 H4         -0.0706    7.9987   24.5444 H         1 VPP         0.1910
     42 H5         -5.8614    7.7352   23.0670 H         1 VPP         0.1018
     43 H6         -8.0749    7.3915   21.7696 H         1 VPP         0.1039
     44 H7         -4.3476    6.1365   24.4213 H         1 VPP         0.0793
     45 H8         -9.3576    4.0292   21.9967 H         1 VPP         0.0246
     46 H9         -8.7941    3.6983   23.6699 H         1 VPP         0.0246
     47 H10        -7.6153    3.7295   22.3148 H         1 VPP         0.0246
     48 H11       -10.4293    6.1231   22.6724 H         1 VPP         0.0246
     49 H12        -9.4741    7.3846   23.5226 H         1 VPP         0.0246
     50 H13        -9.9302    5.8733   24.3798 H         1 VPP         0.0246
     51 H14        -1.2976    8.3157   21.9644 H         1 VPP         0.0958
     52 H15        -2.7356    9.8842   21.0485 H         1 VPP         0.0562
     53 H16        -1.7001   10.1290   25.2252 H         1 VPP         0.0562
     54 H17         3.3831   10.8568   23.4731 H         1 VPP         0.0596
     55 H18         3.2426    9.8013   22.0264 H         1 VPP         0.0596
     56 H19         4.9227    8.3270   22.7729 H         1 VPP         0.0548
     57 H20         5.5441    9.9374   23.2699 H         1 VPP         0.0548
     58 H21        -3.9140   12.0772   21.2033 H         1 VPP         0.0600
     59 H22        -2.8820   12.3123   25.3809 H         1 VPP         0.0600
     60 H23         6.1694    8.4080   26.4770 H         1 VPP         0.0521
     61 H24         6.7049    9.6540   25.2991 H         1 VPP         0.0521
     62 H25        -4.0038   13.2783   23.3770 H         1 VPP         0.0561
     63 H26         8.0595    7.5895   25.1006 H         1 VPP         0.0249
     64 H27         7.1022    7.8867   23.6101 H         1 VPP         0.0249
     65 H28         6.5667    6.6407   24.7880 H         1 VPP         0.0249
@<TRIPOS>BOND
     1   14    1 1  
     2    1   15 1  
     3   18    2 ar 
     4   21    3 ar 
     5   21    4 ar 
     6   22    5 2  
     7   25    6 2  
     8   30    7 2  
     9   33    8 2  
    10   14    9 1  
    11    9   16 1  
    12   10   17 1  
    13   22   10 am 
    14   11   23 1  
    15   25   11 am 
    16   12   25 am 
    17   28   12 1  
    18   12   30 am 
    19   29   13 1  
    20   13   33 am 
    21   13   34 1  
    22   17   14 1  
    23   16   15 1  
    24   15   19 1  
    25   15   20 1  
    26   16   21 1  
    27   17   18 1  
    28   18   37 ar 
    29   23   22 1  
    30   23   24 1  
    31   24   26 ar 
    32   24   27 ar 
    33   26   31 ar 
    34   27   32 ar 
    35   28   29 1  
    36   30   33 1  
    37   31   35 ar 
    38   32   35 ar 
    39   34   36 1  
    40    9   38 1  
    41    9   39 1  
    42   10   40 1  
    43   11   41 1  
    44   14   42 1  
    45   16   43 1  
    46   17   44 1  
    47   19   45 1  
    48   19   46 1  
    49   19   47 1  
    50   20   48 1  
    51   20   49 1  
    52   20   50 1  
    53   23   51 1  
    54   26   52 1  
    55   27   53 1  
    56   28   54 1  
    57   28   55 1  
    58   29   56 1  
    59   29   57 1  
    60   31   58 1  
    61   32   59 1  
    62   34   60 1  
    63   34   61 1  
    64   35   62 1  
    65   36   63 1  
    66   36   64 1  
    67   36   65 1  
@<TRIPOS>SUBSTRUCTURE
     1 VPP         1

