### 
### Created by X-TOOL on Mon Sep 10 21:13:15 2018
### 

@<TRIPOS>MOLECULE
4krs_ligand
   39    41     1     0     0
SMALL
GAST_HUCK


@<TRIPOS>ATOM
      1 C2        -25.8670  -10.8350    6.6840 C.3       1 1SX         0.0408
      2 C12       -23.2450   -8.7450    7.9160 C.2       1 1SX         0.2481
      3 C15       -24.3160   -6.5610    7.8950 C.2       1 1SX         0.2583
      4 C17       -24.1960   -5.0780    7.6180 C.ar      1 1SX         0.0841
      5 C18       -22.9710   -4.4500    7.8030 C.ar      1 1SX        -0.0137
      6 C20       -22.8140   -3.0830    7.5640 C.ar      1 1SX        -0.0356
      7 C22       -23.8740   -2.2820    7.1360 C.ar      1 1SX        -0.0451
      8 C23       -25.1050   -2.9280    6.9440 C.ar      1 1SX        -0.0356
      9 C25       -25.2720   -4.2980    7.1860 C.ar      1 1SX        -0.0137
     10 C27       -23.7080   -0.7540    6.8570 C.3       1 1SX        -0.0435
     11 C28       -23.0550   -0.6060    5.4570 C.3       1 1SX        -0.0831
     12 S1        -25.0230  -11.9390    7.8910 S.3       1 1SX        -0.0457
     13 C5        -25.5870   -9.3880    7.1840 C.3       1 1SX         0.0759
     14 N8        -24.2390   -9.5570    7.7140 N.pl3     1 1SX        -0.1843
     15 C9        -23.8300  -10.7100    8.0800 C.2       1 1SX         0.1866
     16 N10       -22.6300  -10.7320    8.4990 N.2       1 1SX        -0.2889
     17 N11       -22.2260   -9.3580    8.3910 N.2       1 1SX        -0.2834
     18 N13       -23.2560   -7.3990    7.6910 N.am      1 1SX        -0.1864
     19 O16       -25.4190   -6.9160    8.3260 O.2       1 1SX        -0.3590
     20 C32       -22.7960   -0.0010    7.8760 C.3       1 1SX        -0.0831
     21 C36       -25.0950   -0.0320    6.8670 C.3       1 1SX        -0.0831
     22 H1        -26.9486  -11.0350    6.6700 H         1 1SX         0.0434
     23 H2        -25.4540  -10.9804    5.6749 H         1 1SX         0.0434
     24 H3        -22.1206   -5.0320    8.1393 H         1 1SX         0.0741
     25 H4        -21.8405   -2.6308    7.7153 H         1 1SX         0.0854
     26 H5        -25.9533   -2.3489    6.5976 H         1 1SX         0.0854
     27 H6        -26.2430   -4.7562    7.0370 H         1 1SX         0.0741
     28 H7        -22.9220    0.4611    5.2254 H         1 1SX         0.0139
     29 H8        -23.7046   -1.0675    4.6987 H         1 1SX         0.0139
     30 H9        -22.0755   -1.1065    5.4545 H         1 1SX         0.0139
     31 H10       -26.2973   -9.0822    7.9662 H         1 1SX         0.0622
     32 H11       -25.6129   -8.6597    6.3601 H         1 1SX         0.0622
     33 H12       -22.4120   -6.9888    7.3456 H         1 1SX         0.2348
     34 H13       -23.2273   -0.0834    8.8846 H         1 1SX         0.0139
     35 H14       -22.7269    1.0595    7.5923 H         1 1SX         0.0139
     36 H15       -21.7912   -0.4486    7.8693 H         1 1SX         0.0139
     37 H16       -25.7734   -0.5314    6.1597 H         1 1SX         0.0139
     38 H17       -24.9636    1.0187    6.5692 H         1 1SX         0.0139
     39 H18       -25.5237   -0.0754    7.8791 H         1 1SX         0.0139
@<TRIPOS>BOND
     1    1   12 1  
     2   13    1 1  
     3   14    2 1  
     4    2   17 2  
     5    2   18 1  
     6    3    4 1  
     7   18    3 am 
     8    3   19 2  
     9    4    5 ar 
    10    4    9 ar 
    11    5    6 ar 
    12    6    7 ar 
    13    8    7 ar 
    14    7   10 1  
    15    9    8 ar 
    16   10   11 1  
    17   10   20 1  
    18   10   21 1  
    19   12   15 1  
    20   13   14 1  
    21   14   15 1  
    22   15   16 2  
    23   16   17 1  
    24    1   22 1  
    25    1   23 1  
    26    5   24 1  
    27    6   25 1  
    28    8   26 1  
    29    9   27 1  
    30   11   28 1  
    31   11   29 1  
    32   11   30 1  
    33   13   31 1  
    34   13   32 1  
    35   18   33 1  
    36   20   34 1  
    37   20   35 1  
    38   20   36 1  
    39   21   37 1  
    40   21   38 1  
    41   21   39 1  
@<TRIPOS>SUBSTRUCTURE
     1 1SX         1

