### 
### Created by X-TOOL on Mon Sep 10 21:13:12 2018
### 

@<TRIPOS>MOLECULE
4ks1_ligand
   44    44     1     0     0
SMALL
GAST_HUCK


@<TRIPOS>ATOM
      1 CAA       -26.7110  -22.7720  -12.1430 C.3       1 2H8        -0.0629
      2 CAI       -26.2550  -21.6000  -13.0150 C.3       1 2H8        -0.0294
      3 CAR       -26.6920  -20.1990  -12.4120 C.3       1 2H8         0.0589
      4 CAJ       -28.2460  -20.0430  -12.2700 C.3       1 2H8        -0.0294
      5 CAB       -28.6730  -18.5960  -11.9130 C.3       1 2H8        -0.0629
      6 OAM       -26.0690  -19.9600  -11.1330 O.3       1 2H8        -0.3690
      7 CAS       -24.6490  -19.8380  -11.1110 C.3       1 2H8         0.0955
      8 CAK       -24.1310  -20.7130   -9.9490 C.3       1 2H8         0.0036
      9 CAP       -22.7390  -20.4650   -9.6440 C.2       1 2H8        -0.0181
     10 CAO       -21.9920  -21.5340   -9.1230 C.2       1 2H8         0.0478
     11 OAG       -22.4680  -22.7170   -9.1770 O.co2     1 2H8        -0.5666
     12 OAF       -20.8440  -21.2930   -8.6200 O.co2     1 2H8        -0.5666
     13 CAH       -22.0910  -19.2380   -9.9540 C.2       1 2H8        -0.0283
     14 CAQ       -22.7140  -18.2730  -10.7840 C.3       1 2H8         0.0251
     15 NAD       -22.2110  -16.9140  -10.5250 N.4       1 2H8         0.2343
     16 CAT       -24.2790  -18.3720  -10.8490 C.3       1 2H8         0.1202
     17 NAL       -24.7690  -17.5610  -11.9530 N.am      1 2H8        -0.2740
     18 CAN       -25.6010  -16.5070  -11.8030 C.2       1 2H8         0.1735
     19 OAE       -26.0370  -16.1260  -10.7490 O.2       1 2H8        -0.3974
     20 CAC       -25.9850  -15.7920  -13.1010 C.3       1 2H8         0.0257
     21 H1        -26.3857  -23.7179  -12.6008 H         1 2H8         0.0231
     22 H2        -27.8079  -22.7627  -12.0606 H         1 2H8         0.0231
     23 H3        -26.2671  -22.6779  -11.1409 H         1 2H8         0.0231
     24 H4        -26.6990  -21.7090  -14.0155 H         1 2H8         0.0287
     25 H5        -25.1583  -21.6243  -13.0959 H         1 2H8         0.0287
     26 H6        -26.3431  -19.4228  -13.1089 H         1 2H8         0.0596
     27 H7        -28.5963  -20.7190  -11.4761 H         1 2H8         0.0287
     28 H8        -28.7163  -20.3232  -13.2241 H         1 2H8         0.0287
     29 H9        -29.7686  -18.5477  -11.8269 H         1 2H8         0.0231
     30 H10       -28.3368  -17.9089  -12.7034 H         1 2H8         0.0231
     31 H11       -28.2168  -18.3047  -10.9554 H         1 2H8         0.0231
     32 H12       -24.2178  -20.1724  -12.0661 H         1 2H8         0.0642
     33 H13       -24.2480  -21.7712  -10.2255 H         1 2H8         0.0411
     34 H14       -24.7315  -20.4997   -9.0524 H         1 2H8         0.0411
     35 H15       -21.1010  -19.0367   -9.5475 H         1 2H8         0.0622
     36 H16       -22.3780  -18.5147  -11.8031 H         1 2H8         0.1029
     37 H17       -21.2035  -16.9283  -10.4972 H         1 2H8         0.2011
     38 H18       -22.5669  -16.5868   -9.6405 H         1 2H8         0.2011
     39 H19       -22.5180  -16.2963  -11.2600 H         1 2H8         0.2011
     40 H20       -24.7218  -18.0285   -9.9025 H         1 2H8         0.0664
     41 H21       -24.4723  -17.7978  -12.8782 H         1 2H8         0.1859
     42 H22       -26.6603  -14.9544  -12.8722 H         1 2H8         0.0467
     43 H23       -26.4929  -16.4995  -13.7729 H         1 2H8         0.0467
     44 H24       -25.0777  -15.4083  -13.5905 H         1 2H8         0.0467
@<TRIPOS>BOND
     1    1    2 1  
     2    2    3 1  
     3    3    4 1  
     4    3    6 1  
     5    4    5 1  
     6    6    7 1  
     7    7    8 1  
     8    7   16 1  
     9    8    9 1  
    10    9   10 1  
    11    9   13 2  
    12   10   11 ar 
    13   10   12 ar 
    14   13   14 1  
    15   14   15 1  
    16   14   16 1  
    17   16   17 1  
    18   17   18 am 
    19   18   19 2  
    20   18   20 1  
    21    1   21 1  
    22    1   22 1  
    23    1   23 1  
    24    2   24 1  
    25    2   25 1  
    26    3   26 1  
    27    4   27 1  
    28    4   28 1  
    29    5   29 1  
    30    5   30 1  
    31    5   31 1  
    32    7   32 1  
    33    8   33 1  
    34    8   34 1  
    35   13   35 1  
    36   14   36 1  
    37   15   37 1  
    38   15   38 1  
    39   15   39 1  
    40   16   40 1  
    41   17   41 1  
    42   20   42 1  
    43   20   43 1  
    44   20   44 1  
@<TRIPOS>SUBSTRUCTURE
     1 2H8         1

