### 
### Created by X-TOOL on Mon Sep 10 21:13:13 2018
### 

@<TRIPOS>MOLECULE
4ks2_ligand
   49    49     1     0     0
SMALL
GAST_HUCK


@<TRIPOS>ATOM
      1 CAA       -26.8480  -23.2820  -10.2960 C.3       1 1SJ        -0.0629
      2 CAJ       -25.7880  -22.2860  -10.8590 C.3       1 1SJ        -0.0292
      3 CAT       -26.2610  -20.8150  -10.7000 C.3       1 1SJ         0.0613
      4 CAK       -27.8130  -20.7350  -10.8000 C.3       1 1SJ        -0.0292
      5 CAB       -28.3690  -19.5580   -9.9940 C.3       1 1SJ        -0.0629
      6 OAO       -25.7950  -20.2330   -9.4590 O.3       1 1SJ        -0.3597
      7 CAV       -24.4290  -19.9190   -9.4990 C.3       1 1SJ         0.1095
      8 CAL       -23.7700  -20.8120   -8.4690 C.2       1 1SJ        -0.0471
      9 CAS       -22.4960  -20.3720   -8.0370 C.2       1 1SJ        -0.0198
     10 CAR       -21.7690  -21.3150   -7.2810 C.2       1 1SJ         0.0477
     11 OAH       -20.7220  -21.0290   -6.6660 O.co2     1 1SJ        -0.5666
     12 OAG       -22.1720  -22.4900   -7.2090 O.co2     1 1SJ        -0.5666
     13 CAI       -21.9950  -19.0810   -8.3380 C.3       1 1SJ         0.0131
     14 CAU       -22.6750  -18.1470   -9.1460 C.3       1 1SJ         0.1071
     15 NAM       -22.4840  -16.7060   -8.8100 N.pl3     1 1SJ        -0.2657
     16 CAQ       -22.3450  -15.6900   -9.6990 C.cat     1 1SJ         0.2886
     17 NAE       -22.3720  -15.9230  -11.0040 N.pl3     1 1SJ        -0.2849
     18 NAD       -22.1780  -14.4210   -9.2890 N.pl3     1 1SJ        -0.2849
     19 CAW       -24.1840  -18.4280   -9.1940 C.3       1 1SJ         0.1135
     20 NAN       -24.7290  -17.5800  -10.2700 N.am      1 1SJ        -0.2757
     21 CAP       -25.5230  -16.5050  -10.0900 C.2       1 1SJ         0.1735
     22 OAF       -25.8910  -16.1010   -8.9870 O.2       1 1SJ        -0.3974
     23 CAC       -25.9600  -15.7890  -11.3420 C.3       1 1SJ         0.0257
     24 H1        -26.4858  -24.3130  -10.4223 H         1 1SJ         0.0231
     25 H2        -27.7950  -23.1567  -10.8414 H         1 1SJ         0.0231
     26 H3        -27.0107  -23.0789   -9.2272 H         1 1SJ         0.0231
     27 H4        -25.6274  -22.4980  -11.9263 H         1 1SJ         0.0288
     28 H5        -24.8431  -22.4203  -10.3122 H         1 1SJ         0.0288
     29 H6        -25.8338  -20.2300  -11.5278 H         1 1SJ         0.0598
     30 H7        -28.2445  -21.6693  -10.4116 H         1 1SJ         0.0288
     31 H8        -28.0969  -20.6109  -11.8554 H         1 1SJ         0.0288
     32 H9        -29.4647  -19.5340  -10.0884 H         1 1SJ         0.0231
     33 H10       -27.9472  -18.6180  -10.3792 H         1 1SJ         0.0231
     34 H11       -28.0947  -19.6764   -8.9353 H         1 1SJ         0.0231
     35 H12       -24.0255  -20.1437  -10.4973 H         1 1SJ         0.0776
     36 H13       -24.2385  -21.7196   -8.0911 H         1 1SJ         0.0592
     37 H14       -21.0208  -19.2430   -8.8224 H         1 1SJ         0.0423
     38 H15       -21.8442  -18.5844   -7.3681 H         1 1SJ         0.0423
     39 H16       -22.2797  -18.2863  -10.1630 H         1 1SJ         0.0771
     40 H17       -22.4549  -16.4593   -7.8104 H         1 1SJ         0.2647
     41 H18       -22.2654  -15.1434  -11.6686 H         1 1SJ         0.2615
     42 H19       -22.4996  -16.8836  -11.3531 H         1 1SJ         0.2615
     43 H20       -22.1523  -14.2042   -8.2824 H         1 1SJ         0.2615
     44 H21       -22.0758  -13.6653   -9.9814 H         1 1SJ         0.2615
     45 H22       -24.6520  -18.1686   -8.2329 H         1 1SJ         0.0645
     46 H23       -24.4902  -17.8219  -11.2105 H         1 1SJ         0.1858
     47 H24       -26.5990  -14.9353  -11.0721 H         1 1SJ         0.0467
     48 H25       -26.5253  -16.4820  -11.9824 H         1 1SJ         0.0467
     49 H26       -25.0747  -15.4269  -11.8853 H         1 1SJ         0.0467
@<TRIPOS>BOND
     1    1    2 1  
     2    2    3 1  
     3    3    4 1  
     4    3    6 1  
     5    4    5 1  
     6    6    7 1  
     7    7    8 1  
     8    7   19 1  
     9    8    9 2  
    10    9   10 1  
    11    9   13 1  
    12   10   11 ar 
    13   10   12 ar 
    14   13   14 1  
    15   14   15 1  
    16   14   19 1  
    17   15   16 ar 
    18   16   17 ar 
    19   16   18 ar 
    20   19   20 1  
    21   20   21 am 
    22   21   22 2  
    23   21   23 1  
    24    1   24 1  
    25    1   25 1  
    26    1   26 1  
    27    2   27 1  
    28    2   28 1  
    29    3   29 1  
    30    4   30 1  
    31    4   31 1  
    32    5   32 1  
    33    5   33 1  
    34    5   34 1  
    35    7   35 1  
    36    8   36 1  
    37   13   37 1  
    38   13   38 1  
    39   14   39 1  
    40   15   40 1  
    41   17   41 1  
    42   17   42 1  
    43   18   43 1  
    44   18   44 1  
    45   19   45 1  
    46   20   46 1  
    47   23   47 1  
    48   23   48 1  
    49   23   49 1  
@<TRIPOS>SUBSTRUCTURE
     1 1SJ         1

