### 
### Created by X-TOOL on Mon Sep 10 21:13:12 2018
### 

@<TRIPOS>MOLECULE
4ks3_ligand
   57    58     1     0     0
SMALL
GAST_HUCK


@<TRIPOS>ATOM
      1 CAA       -26.3110  -22.1150  -36.9160 C.3       1 1SL        -0.0629
      2 CAK       -27.0160  -21.4100  -38.0890 C.3       1 1SL        -0.0294
      3 CAX       -26.2500  -21.5240  -39.4150 C.3       1 1SL         0.0589
      4 CAL       -27.1520  -22.1840  -40.4520 C.3       1 1SL        -0.0294
      5 CAB       -28.1750  -21.1840  -40.9950 C.3       1 1SL        -0.0629
      6 OAS       -25.9180  -20.2060  -39.8780 O.3       1 1SL        -0.3691
      7 CAZ       -24.5020  -19.9770  -39.9620 C.3       1 1SL         0.0934
      8 CBA       -24.2150  -18.4790  -39.8240 C.3       1 1SL         0.1108
      9 NAR       -24.8890  -17.7580  -40.9130 N.am      1 1SL        -0.2762
     10 CAT       -25.4800  -16.5830  -40.7580 C.2       1 1SL         0.1735
     11 CAC       -25.9540  -15.9350  -42.0560 C.3       1 1SL         0.0257
     12 OAD       -25.5980  -16.0170  -39.6780 O.2       1 1SL        -0.3974
     13 CAO       -23.8030  -20.7260  -38.8400 C.3       1 1SL         0.0034
     14 CAV       -22.4000  -20.2500  -38.5190 C.2       1 1SL        -0.0203
     15 CAU       -21.4980  -21.2800  -37.8520 C.2       1 1SL         0.0477
     16 OAG       -20.3980  -20.9040  -37.3710 O.co2     1 1SL        -0.5666
     17 OAE       -22.0010  -22.4210  -37.7220 O.co2     1 1SL        -0.5666
     18 CAH       -21.8450  -19.1990  -39.2260 C.2       1 1SL        -0.0398
     19 CAY       -22.7220  -18.2050  -39.9850 C.3       1 1SL         0.1350
     20 NBB       -22.3310  -16.8700  -39.5200 N.pl3     1 1SL        -0.1658
     21 CAI       -21.5350  -16.7040  -38.4750 C.2       1 1SL         0.0722
     22 NAQ       -22.6310  -15.7890  -40.0450 N.2       1 1SL        -0.0995
     23 NAP       -22.0930  -14.8750  -39.4120 N.2       1 1SL        -0.2263
     24 CAW       -21.3800  -15.3990  -38.4050 C.2       1 1SL         0.0373
     25 CAN       -20.5240  -14.6510  -37.3810 C.3       1 1SL        -0.0164
     26 CAM       -19.6760  -15.5620  -36.4910 C.3       1 1SL        -0.0229
     27 CAJ       -18.9490  -14.6760  -35.4730 C.3       1 1SL         0.0455
     28 OAF       -18.1980  -15.4600  -34.5540 O.3       1 1SL        -0.3949
     29 H1        -26.9109  -21.9945  -36.0019 H         1 1SL         0.0231
     30 H2        -25.3172  -21.6687  -36.7638 H         1 1SL         0.0231
     31 H3        -26.2012  -23.1855  -37.1441 H         1 1SL         0.0231
     32 H4        -27.1266  -20.3442  -37.8402 H         1 1SL         0.0287
     33 H5        -28.0106  -21.8610  -38.2205 H         1 1SL         0.0287
     34 H6        -25.3354  -22.1184  -39.2732 H         1 1SL         0.0596
     35 H7        -27.6834  -23.0260  -39.9845 H         1 1SL         0.0287
     36 H8        -26.5347  -22.5559  -41.2830 H         1 1SL         0.0287
     37 H9        -28.8137  -21.6810  -41.7400 H         1 1SL         0.0231
     38 H10       -27.6490  -20.3410  -41.4669 H         1 1SL         0.0231
     39 H11       -28.7978  -20.8112  -40.1685 H         1 1SL         0.0231
     40 H12       -24.1288  -20.3352  -40.9328 H         1 1SL         0.0641
     41 H13       -24.5667  -18.1202  -38.8454 H         1 1SL         0.0640
     42 H14       -24.9021  -18.1776  -41.8206 H         1 1SL         0.1858
     43 H15       -26.4295  -14.9689  -41.8312 H         1 1SL         0.0467
     44 H16       -26.6813  -16.5952  -42.5512 H         1 1SL         0.0467
     45 H17       -25.0929  -15.7738  -42.7212 H         1 1SL         0.0467
     46 H18       -23.7451  -21.7871  -39.1242 H         1 1SL         0.0411
     47 H19       -24.4132  -20.6227  -37.9306 H         1 1SL         0.0411
     48 H20       -20.7629  -19.0778  -39.2419 H         1 1SL         0.0599
     49 H21       -22.4905  -18.2832  -41.0575 H         1 1SL         0.0864
     50 H22       -21.1088  -17.4677  -37.8261 H         1 1SL         0.0901
     51 H23       -21.1928  -14.0628  -36.7355 H         1 1SL         0.0381
     52 H24       -19.8490  -13.9732  -37.9242 H         1 1SL         0.0381
     53 H25       -18.9429  -16.1071  -37.1038 H         1 1SL         0.0304
     54 H26       -20.3229  -16.2810  -35.9670 H         1 1SL         0.0304
     55 H27       -19.6913  -14.0843  -34.9172 H         1 1SL         0.0558
     56 H28       -18.2670  -13.9992  -36.0085 H         1 1SL         0.0558
     57 H29       -17.7588  -14.8875  -33.9361 H         1 1SL         0.2094
@<TRIPOS>BOND
     1    1    2 1  
     2    2    3 1  
     3    3    4 1  
     4    3    6 1  
     5    4    5 1  
     6    6    7 1  
     7    7    8 1  
     8    7   13 1  
     9    8    9 1  
    10    8   19 1  
    11    9   10 am 
    12   10   11 1  
    13   10   12 2  
    14   13   14 1  
    15   14   15 1  
    16   14   18 2  
    17   15   16 ar 
    18   15   17 ar 
    19   18   19 1  
    20   19   20 1  
    21   20   21 1  
    22   20   22 1  
    23   21   24 2  
    24   22   23 2  
    25   23   24 1  
    26   24   25 1  
    27   25   26 1  
    28   26   27 1  
    29   27   28 1  
    30    1   29 1  
    31    1   30 1  
    32    1   31 1  
    33    2   32 1  
    34    2   33 1  
    35    3   34 1  
    36    4   35 1  
    37    4   36 1  
    38    5   37 1  
    39    5   38 1  
    40    5   39 1  
    41    7   40 1  
    42    8   41 1  
    43    9   42 1  
    44   11   43 1  
    45   11   44 1  
    46   11   45 1  
    47   13   46 1  
    48   13   47 1  
    49   18   48 1  
    50   19   49 1  
    51   21   50 1  
    52   25   51 1  
    53   25   52 1  
    54   26   53 1  
    55   26   54 1  
    56   27   55 1  
    57   27   56 1  
    58   28   57 1  
@<TRIPOS>SUBSTRUCTURE
     1 1SL         1

