### 
### Created by X-TOOL on Mon Sep 10 21:13:14 2018
### 

@<TRIPOS>MOLECULE
4ks4_ligand
   57    58     1     0     0
SMALL
GAST_HUCK


@<TRIPOS>ATOM
      1 CAB       210.1700   71.6050 -123.7810 C.3       1 1SN        -0.0629
      2 CAL       209.8890   70.2330 -123.1680 C.3       1 1SN        -0.0294
      3 CAX       208.6160   69.6580 -123.7850 C.3       1 1SN         0.0589
      4 CAM       207.6950   69.1100 -122.6930 C.3       1 1SN        -0.0294
      5 CAC       207.7230   67.5730 -122.7630 C.3       1 1SN        -0.0629
      6 OAR       208.0270   70.6700 -124.6150 O.3       1 1SN        -0.3691
      7 CAZ       206.6100   70.6310 -124.6730 C.3       1 1SN         0.0934
      8 CBA       206.1600   72.0700 -124.9230 C.3       1 1SN         0.1108
      9 NAQ       206.6650   72.8930 -123.8200 N.am      1 1SN        -0.2762
     10 CAS       207.2530   74.0760 -124.0190 C.2       1 1SN         0.1735
     11 CAD       207.7240   74.7800 -122.7460 C.3       1 1SN         0.0257
     12 OAE       207.4190   74.5930 -125.1240 O.2       1 1SN        -0.3974
     13 CAN       206.2070   69.7620 -125.8530 C.3       1 1SN         0.0034
     14 CAU       204.7100   69.9020 -126.1200 C.2       1 1SN        -0.0203
     15 CAT       203.8810   68.7030 -126.5590 C.2       1 1SN         0.0477
     16 OAG       202.9950   68.8940 -127.4260 O.co2     1 1SN        -0.5666
     17 OAF       204.1300   67.6120 -126.0060 O.co2     1 1SN        -0.5666
     18 CAI       204.0640   71.1100 -125.9070 C.2       1 1SN        -0.0398
     19 CAY       204.6430   72.1870 -124.9900 C.3       1 1SN         0.1350
     20 NBB       204.2840   73.4850 -125.5640 N.pl3     1 1SN        -0.1657
     21 CAJ       204.2380   74.6050 -124.8710 C.2       1 1SN         0.0747
     22 NAP       203.9920   73.6580 -126.7510 N.2       1 1SN        -0.0995
     23 NAO       203.7340   74.8470 -126.9520 N.2       1 1SN        -0.2237
     24 CAV       203.8760   75.4810 -125.7900 C.2       1 1SN         0.0654
     25 CAW       203.6630   76.9780 -125.5340 C.3       1 1SN         0.0897
     26 CAK       202.1840   77.2460 -125.2510 C.3       1 1SN        -0.0227
     27 CAA       201.3330   76.8080 -126.4370 C.3       1 1SN        -0.0616
     28 OAH       204.4470   77.3880 -124.4010 O.3       1 1SN        -0.3830
     29 H1        211.0865   72.0232 -123.3393 H         1 1SN         0.0231
     30 H2        209.3244   72.2781 -123.5766 H         1 1SN         0.0231
     31 H3        210.3014   71.5010 -124.8681 H         1 1SN         0.0231
     32 H4        209.7567   70.3360 -122.0809 H         1 1SN         0.0287
     33 H5        210.7338   69.5588 -123.3724 H         1 1SN         0.0287
     34 H6        208.8918   68.8131 -124.4332 H         1 1SN         0.0596
     35 H7        206.6688   69.4710 -122.8563 H         1 1SN         0.0287
     36 H8        208.0485   69.4438 -121.7063 H         1 1SN         0.0287
     37 H9        207.0658   67.1585 -121.9844 H         1 1SN         0.0231
     38 H10       208.7514   67.2173 -122.6023 H         1 1SN         0.0231
     39 H11       207.3717   67.2445 -123.7523 H         1 1SN         0.0231
     40 H12       206.1816   70.2390 -123.7387 H         1 1SN         0.0641
     41 H13       206.5861   72.4224 -125.8739 H         1 1SN         0.0640
     42 H14       206.5656   72.5563 -122.8836 H         1 1SN         0.1858
     43 H15       208.1922   75.7398 -123.0097 H         1 1SN         0.0467
     44 H16       208.4565   74.1455 -122.2257 H         1 1SN         0.0467
     45 H17       206.8622   74.9613 -122.0869 H         1 1SN         0.0467
     46 H18       206.4396   68.7109 -125.6271 H         1 1SN         0.0411
     47 H19       206.7669   70.0778 -126.7456 H         1 1SN         0.0411
     48 H20       203.1154   71.2972 -126.4081 H         1 1SN         0.0599
     49 H21       204.2202   72.0877 -123.9794 H         1 1SN         0.0864
     50 H22       204.4450   74.7662 -123.8141 H         1 1SN         0.0902
     51 H23       203.9751   77.5485 -126.4212 H         1 1SN         0.0710
     52 H24       202.0368   78.3219 -125.0760 H         1 1SN         0.0304
     53 H25       201.8775   76.6837 -124.3567 H         1 1SN         0.0304
     54 H26       200.2728   77.0061 -126.2206 H         1 1SN         0.0232
     55 H27       201.4763   75.7318 -126.6136 H         1 1SN         0.0232
     56 H28       201.6355   77.3701 -127.3329 H         1 1SN         0.0232
     57 H29       204.1756   76.8962 -123.6348 H         1 1SN         0.2121
@<TRIPOS>BOND
     1    1    2 1  
     2    2    3 1  
     3    3    4 1  
     4    3    6 1  
     5    4    5 1  
     6    6    7 1  
     7    7    8 1  
     8    7   13 1  
     9    8    9 1  
    10    8   19 1  
    11    9   10 am 
    12   10   11 1  
    13   10   12 2  
    14   13   14 1  
    15   14   15 1  
    16   14   18 2  
    17   15   16 ar 
    18   15   17 ar 
    19   18   19 1  
    20   19   20 1  
    21   20   21 1  
    22   20   22 1  
    23   21   24 2  
    24   22   23 2  
    25   23   24 1  
    26   24   25 1  
    27   25   26 1  
    28   25   28 1  
    29   26   27 1  
    30    1   29 1  
    31    1   30 1  
    32    1   31 1  
    33    2   32 1  
    34    2   33 1  
    35    3   34 1  
    36    4   35 1  
    37    4   36 1  
    38    5   37 1  
    39    5   38 1  
    40    5   39 1  
    41    7   40 1  
    42    8   41 1  
    43    9   42 1  
    44   11   43 1  
    45   11   44 1  
    46   11   45 1  
    47   13   46 1  
    48   13   47 1  
    49   18   48 1  
    50   19   49 1  
    51   21   50 1  
    52   25   51 1  
    53   26   52 1  
    54   26   53 1  
    55   27   54 1  
    56   27   55 1  
    57   27   56 1  
    58   28   57 1  
@<TRIPOS>SUBSTRUCTURE
     1 1SN         1

