### 
### Created by X-TOOL on Mon Sep 10 21:13:13 2018
### 

@<TRIPOS>MOLECULE
4ks5_ligand
   57    58     1     0     0
SMALL
GAST_HUCK


@<TRIPOS>ATOM
      1 CAD       -13.2600  -23.4170   12.4910 C.3       1 1SO        -0.0690
      2 CBB       -13.9000  -22.0510   12.4150 C.3       1 1SO         0.0482
      3 CAE       -13.3810  -21.2110   11.2480 C.3       1 1SO        -0.0690
      4 OAI       -13.6230  -21.3990   13.6420 O.3       1 1SO        -0.4356
      5 CAV       -15.3740  -22.2980   12.2200 C.2       1 1SO         0.0749
      6 CAK       -16.2420  -22.5090   13.1470 C.2       1 1SO         0.1313
      7 NAO       -15.9780  -22.3180   11.0600 N.2       1 1SO        -0.1954
      8 NAP       -17.1020  -22.5280   11.2600 N.2       1 1SO        -0.0533
      9 NBA       -17.3320  -22.6510   12.4390 N.pl3     1 1SO        -0.1105
     10 CAX       -18.6760  -22.9190   12.9420 C.3       1 1SO         0.1517
     11 CAZ       -18.7640  -24.4250   13.1890 C.3       1 1SO         0.1133
     12 NAQ       -17.8020  -24.8080   14.2660 N.am      1 1SO        -0.2760
     13 CAS       -16.7020  -25.5810   14.0300 C.2       1 1SO         0.1735
     14 OAF       -15.8900  -25.9200   14.8690 O.2       1 1SO        -0.3974
     15 CAC       -16.4930  -26.0300   12.5990 C.3       1 1SO         0.0257
     16 CAJ       -19.6770  -22.4720   12.0670 C.2       1 1SO        -0.0372
     17 CAU       -20.9300  -23.0930   11.9230 C.2       1 1SO        -0.0201
     18 CAT       -21.9540  -22.5000   11.1910 C.2       1 1SO         0.0477
     19 OAH       -23.0930  -22.5930   11.6350 O.co2     1 1SO        -0.5666
     20 OAG       -21.7530  -21.8950   10.1190 O.co2     1 1SO        -0.5666
     21 CAN       -21.2380  -24.3140   12.5200 C.3       1 1SO         0.0034
     22 CAY       -20.2370  -24.8700   13.4880 C.3       1 1SO         0.0935
     23 OAR       -20.4480  -26.3130   13.4050 O.3       1 1SO        -0.3691
     24 CAW       -20.3670  -26.9720   14.6960 C.3       1 1SO         0.0589
     25 CAM       -20.0740  -28.4640   14.5520 C.3       1 1SO        -0.0294
     26 CAB       -18.8110  -28.7290   13.7360 C.3       1 1SO        -0.0629
     27 CAL       -21.6320  -26.7620   15.5030 C.3       1 1SO        -0.0294
     28 CAA       -22.8700  -26.8950   14.6170 C.3       1 1SO        -0.0629
     29 H1        -13.4495  -23.9633   11.5552 H         1 1SO         0.0132
     30 H2        -13.6889  -23.9764   13.3354 H         1 1SO         0.0132
     31 H3        -12.1755  -23.3062   12.6376 H         1 1SO         0.0132
     32 H4        -13.8839  -20.2327   11.2483 H         1 1SO         0.0132
     33 H5        -13.5898  -21.7303   10.3010 H         1 1SO         0.0132
     34 H6        -12.2959  -21.0655   11.3550 H         1 1SO         0.0132
     35 H7        -13.9488  -21.9278   14.3609 H         1 1SO         0.1920
     36 H8        -16.1056  -22.5563   14.2264 H         1 1SO         0.1588
     37 H9        -18.8072  -22.3928   13.8990 H         1 1SO         0.0893
     38 H10       -18.4511  -24.9378   12.2675 H         1 1SO         0.0642
     39 H11       -17.9707  -24.4851   15.1973 H         1 1SO         0.1858
     40 H12       -15.5811  -26.6419   12.5362 H         1 1SO         0.0467
     41 H13       -16.3884  -25.1483   11.9496 H         1 1SO         0.0467
     42 H14       -17.3577  -26.6260   12.2717 H         1 1SO         0.0467
     43 H15       -19.4710  -21.5901   11.4623 H         1 1SO         0.0601
     44 H16       -21.3679  -25.0532   11.7158 H         1 1SO         0.0411
     45 H17       -22.1880  -24.1890   13.0602 H         1 1SO         0.0411
     46 H18       -20.4828  -24.5258   14.5034 H         1 1SO         0.0641
     47 H19       -19.5329  -26.5169   15.2502 H         1 1SO         0.0596
     48 H20       -20.9267  -28.9455   14.0509 H         1 1SO         0.0287
     49 H21       -19.9452  -28.8979   15.5546 H         1 1SO         0.0287
     50 H22       -18.6437  -29.8136   13.6612 H         1 1SO         0.0231
     51 H23       -17.9489  -28.2584   14.2313 H         1 1SO         0.0231
     52 H24       -18.9304  -28.3060   12.7276 H         1 1SO         0.0231
     53 H25       -21.6132  -25.7560   15.9475 H         1 1SO         0.0287
     54 H26       -21.6786  -27.5156   16.3030 H         1 1SO         0.0287
     55 H27       -23.7739  -26.7388   15.2241 H         1 1SO         0.0231
     56 H28       -22.8963  -27.9008   14.1723 H         1 1SO         0.0231
     57 H29       -22.8310  -26.1412   13.8169 H         1 1SO         0.0231
@<TRIPOS>BOND
     1    1    2 1  
     2    2    3 1  
     3    2    4 1  
     4    2    5 1  
     5    5    6 2  
     6    5    7 1  
     7    6    9 1  
     8    7    8 2  
     9    8    9 1  
    10    9   10 1  
    11   10   11 1  
    12   10   16 1  
    13   11   12 1  
    14   11   22 1  
    15   12   13 am 
    16   13   14 2  
    17   13   15 1  
    18   16   17 2  
    19   17   18 1  
    20   17   21 1  
    21   18   19 ar 
    22   18   20 ar 
    23   21   22 1  
    24   22   23 1  
    25   23   24 1  
    26   24   25 1  
    27   24   27 1  
    28   25   26 1  
    29   27   28 1  
    30    1   29 1  
    31    1   30 1  
    32    1   31 1  
    33    3   32 1  
    34    3   33 1  
    35    3   34 1  
    36    4   35 1  
    37    6   36 1  
    38   10   37 1  
    39   11   38 1  
    40   12   39 1  
    41   15   40 1  
    42   15   41 1  
    43   15   42 1  
    44   16   43 1  
    45   21   44 1  
    46   21   45 1  
    47   22   46 1  
    48   24   47 1  
    49   25   48 1  
    50   25   49 1  
    51   26   50 1  
    52   26   51 1  
    53   26   52 1  
    54   27   53 1  
    55   27   54 1  
    56   28   55 1  
    57   28   56 1  
    58   28   57 1  
@<TRIPOS>SUBSTRUCTURE
     1 1SO         1

