### 
### Created by X-TOOL on Mon Sep 10 21:13:14 2018
### 

@<TRIPOS>MOLECULE
4ksp_ligand
   57    61     1     0     0
SMALL
GAST_HUCK


@<TRIPOS>ATOM
      1 C4         49.9760  -34.2650    1.4510 C.ar      1 1SU        -0.0374
      2 C5         41.3900  -36.9030    9.7940 C.ar      1 1SU        -0.0604
      3 C6         42.7480  -36.7990    9.5570 C.ar      1 1SU        -0.0280
      4 C7         45.8020  -35.9750   10.6580 C.ar      1 1SU        -0.0449
      5 C8         46.6630  -34.9010   10.7100 C.ar      1 1SU        -0.0487
      6 C10        46.6170  -36.4960    8.4580 C.ar      1 1SU        -0.0097
      7 C13        48.8300  -33.5630    1.7860 C.ar      1 1SU         0.0414
      8 C15        47.4730  -35.4160    8.5090 C.ar      1 1SU         0.0925
      9 C17        43.5820  -37.8850    9.7060 C.ar      1 1SU         0.1408
     10 C20        39.3860  -39.6520   10.8170 C.2       1 1SU         0.2096
     11 C21        38.0120  -41.6110   11.4680 C.2       1 1SU         0.2200
     12 C22        47.9620  -34.8610    6.1710 C.2       1 1SU         0.2146
     13 C24        35.4460  -41.4570   11.5050 C.3       1 1SU        -0.0301
     14 C26        48.8130  -33.8290    5.5220 C.3       1 1SU         0.0823
     15 C1         43.9390  -40.2690   10.2420 C.1       1 1SU         0.0841
     16 C2         50.7630  -34.8430    2.4300 C.ar      1 1SU        -0.0374
     17 C3         50.3920  -34.7060    3.7510 C.ar      1 1SU        -0.0293
     18 C9         48.4660  -33.4390    3.1070 C.ar      1 1SU        -0.0284
     19 C11        43.0940  -39.1160   10.0870 C.ar      1 1SU         0.1360
     20 C12        49.2370  -34.0160    4.0940 C.ar      1 1SU         0.0052
     21 C14        40.8730  -38.1250   10.1900 C.ar      1 1SU         0.0092
     22 C16        45.7800  -36.7590    9.5300 C.ar      1 1SU         0.1008
     23 C18        47.4920  -34.6330    9.6380 C.ar      1 1SU         0.1404
     24 C19        41.7410  -39.2000   10.3280 C.ar      1 1SU         0.0762
     25 C23        35.8090  -42.9120   11.4810 C.3       1 1SU        -0.0301
     26 C25        36.7290  -41.9200   12.1320 C.3       1 1SU         0.0573
     27 C27        47.9600  -32.9140    0.7630 C.3       1 1SU         0.3751
     28 N28        44.5880  -41.2340   10.3220 N.1       1 1SU        -0.3447
     29 N29        39.5490  -38.3900   10.4690 N.2       1 1SU        -0.3142
     30 N30        48.3620  -35.0730    7.4690 N.am      1 1SU        -0.2338
     31 N31        38.1760  -40.2530   11.1640 N.am      1 1SU        -0.1908
     32 O32        38.7710  -42.5510   11.2570 O.2       1 1SU        -0.3787
     33 O33        47.0260  -35.3960    5.5990 O.2       1 1SU        -0.3823
     34 O34        44.9500  -37.8650    9.4610 O.3       1 1SU        -0.2599
     35 F35        48.3440  -33.5920    9.6550 F         1 1SU        -0.2020
     36 F36        48.6770  -32.4320   -0.2930 F         1 1SU        -0.2203
     37 F37        46.9800  -33.6920    0.2420 F         1 1SU        -0.2203
     38 F38        47.2540  -31.8870    1.3060 F         1 1SU        -0.2203
     39 S39        40.8400  -40.5720   10.8250 S.3       1 1SU         0.0348
     40 H1         50.2592  -34.3624    0.4092 H         1 1SU         0.0804
     41 H2         40.7413  -36.0431    9.6720 H         1 1SU         0.0592
     42 H3         43.1636  -35.8465    9.2486 H         1 1SU         0.0520
     43 H4         45.1509  -36.1985   11.4954 H         1 1SU         0.0420
     44 H5         46.6899  -34.2680   11.5896 H         1 1SU         0.0539
     45 H6         46.5992  -37.1360    7.5833 H         1 1SU         0.0422
     46 H7         34.6187  -41.1071   12.1399 H         1 1SU         0.0294
     47 H8         35.4690  -40.8691   10.5756 H         1 1SU         0.0294
     48 H9         49.7319  -33.7480    6.1212 H         1 1SU         0.0669
     49 H10        48.2590  -32.8800    5.5702 H         1 1SU         0.0669
     50 H11        51.6571  -35.3949    2.1634 H         1 1SU         0.0683
     51 H12        51.0082  -35.1413    4.5294 H         1 1SU         0.0807
     52 H13        47.5717  -32.8868    3.3723 H         1 1SU         0.0784
     53 H14        36.0983  -43.3911   10.5340 H         1 1SU         0.0294
     54 H15        35.2479  -43.6290   12.0983 H         1 1SU         0.0294
     55 H16        36.8534  -41.9018   13.2248 H         1 1SU         0.0546
     56 H17        49.3334  -34.9792    7.6872 H         1 1SU         0.2245
     57 H18        37.3639  -39.6705   11.1984 H         1 1SU         0.2436
@<TRIPOS>BOND
     1    7    1 ar 
     2   16    1 ar 
     3    3    2 ar 
     4    2   21 ar 
     5    9    3 ar 
     6    4    5 ar 
     7   22    4 ar 
     8    5   23 ar 
     9    6    8 ar 
    10   22    6 ar 
    11   18    7 ar 
    12    7   27 1  
    13    8   23 ar 
    14    8   30 1  
    15    9   19 ar 
    16   34    9 1  
    17   29   10 2  
    18   10   31 1  
    19   10   39 1  
    20   11   26 1  
    21   31   11 am 
    22   11   32 2  
    23   12   14 1  
    24   30   12 am 
    25   12   33 2  
    26   13   25 1  
    27   26   13 1  
    28   14   20 1  
    29   19   15 1  
    30   15   28 3  
    31   17   16 ar 
    32   20   17 ar 
    33   20   18 ar 
    34   19   24 ar 
    35   24   21 ar 
    36   21   29 1  
    37   22   34 1  
    38   23   35 1  
    39   24   39 1  
    40   25   26 1  
    41   27   36 1  
    42   27   37 1  
    43   27   38 1  
    44    1   40 1  
    45    2   41 1  
    46    3   42 1  
    47    4   43 1  
    48    5   44 1  
    49    6   45 1  
    50   13   46 1  
    51   13   47 1  
    52   14   48 1  
    53   14   49 1  
    54   16   50 1  
    55   17   51 1  
    56   18   52 1  
    57   25   53 1  
    58   25   54 1  
    59   26   55 1  
    60   30   56 1  
    61   31   57 1  
@<TRIPOS>SUBSTRUCTURE
     1 1SU         1

