### 
### Created by X-TOOL on Mon Sep 10 21:13:15 2018
### 

@<TRIPOS>MOLECULE
4ksq_ligand
   56    60     1     0     0
SMALL
GAST_HUCK


@<TRIPOS>ATOM
      1 F1         48.0970  -33.0010    9.7150 F         1 1SW        -0.2022
      2 C2         47.2460  -34.0440    9.5940 C.ar      1 1SW         0.1402
      3 C3         46.3510  -34.3610   10.6100 C.ar      1 1SW        -0.0488
      4 C4         45.4800  -35.4320   10.4740 C.ar      1 1SW        -0.0450
      5 C5         45.5000  -36.1840    9.3060 C.ar      1 1SW         0.1007
      6 O6         44.6690  -37.2500    9.1500 O.3       1 1SW        -0.2599
      7 C7         43.3420  -37.3000    9.4630 C.ar      1 1SW         0.1408
      8 C8         42.4950  -36.1960    9.4430 C.ar      1 1SW        -0.0280
      9 C9         41.1530  -36.3330    9.7450 C.ar      1 1SW        -0.0604
     10 C10        40.5800  -37.5820   10.0900 C.ar      1 1SW         0.0092
     11 N11        39.3000  -37.9030   10.4250 N.2       1 1SW        -0.3142
     12 C12        39.0060  -39.1360   10.6700 C.2       1 1SW         0.2096
     13 N13        37.7710  -39.6260   11.1100 N.am      1 1SW        -0.1908
     14 C14        37.4520  -40.9400   11.2950 C.2       1 1SW         0.2200
     15 O15        38.2380  -41.8030   10.9970 O.2       1 1SW        -0.3787
     16 C16        36.1360  -41.3930   11.9030 C.3       1 1SW         0.0573
     17 C17        35.5100  -42.7140   11.4520 C.3       1 1SW        -0.0301
     18 C18        34.7890  -41.3880   11.1900 C.3       1 1SW        -0.0301
     19 S19        40.4910  -40.0710   10.5520 S.3       1 1SW         0.0348
     20 C20        41.4320  -38.6740   10.0990 C.ar      1 1SW         0.0762
     21 C21        42.7940  -38.5480    9.7820 C.ar      1 1SW         0.1360
     22 C22        43.6270  -39.7070    9.8100 C.1       1 1SW         0.0841
     23 N23        44.2290  -40.6680    9.8470 N.1       1 1SW        -0.3447
     24 C24        46.4090  -35.8730    8.2890 C.ar      1 1SW        -0.0100
     25 C25        47.2750  -34.7860    8.4220 C.ar      1 1SW         0.0933
     26 N26        48.2260  -34.4170    7.4500 N.am      1 1SW        -0.2158
     27 C27        48.0400  -34.1980    6.1270 C.2       1 1SW         0.3162
     28 O28        46.9410  -34.2950    5.6140 O.2       1 1SW        -0.3807
     29 N29        49.1480  -33.8660    5.4180 N.am      1 1SW        -0.2086
     30 C30        49.2830  -33.6030    4.0410 C.ar      1 1SW         0.0959
     31 C31        50.5680  -33.7130    3.4890 C.ar      1 1SW        -0.0114
     32 C32        50.8010  -33.4660    2.1440 C.ar      1 1SW        -0.0435
     33 C33        49.7330  -33.1040    1.3330 C.ar      1 1SW        -0.0452
     34 C34        48.4470  -32.9940    1.8650 C.ar      1 1SW         0.0333
     35 C35        48.2180  -33.2450    3.2130 C.ar      1 1SW        -0.0127
     36 C36        47.2900  -32.6060    0.9750 C.3       1 1SW         0.3726
     37 F37        47.7700  -32.1090   -0.2470 F         1 1SW        -0.2209
     38 F38        46.4490  -33.7080    0.7780 F         1 1SW        -0.2209
     39 F39        46.5300  -31.6250    1.6060 F         1 1SW        -0.2209
     40 H1         46.3338  -33.7661   11.5160 H         1 1SW         0.0539
     41 H2         44.7897  -35.6800   11.2722 H         1 1SW         0.0419
     42 H3         42.8912  -35.2197    9.1883 H         1 1SW         0.0520
     43 H4         40.5176  -35.4552    9.7169 H         1 1SW         0.0592
     44 H5         37.0582  -38.9527   11.3065 H         1 1SW         0.2436
     45 H6         36.1515  -41.1367   12.9726 H         1 1SW         0.0546
     46 H7         35.1134  -43.4186   12.1978 H         1 1SW         0.0294
     47 H8         35.9515  -43.2755   10.6155 H         1 1SW         0.0294
     48 H9         34.7112  -40.9978   10.1645 H         1 1SW         0.0294
     49 H10        33.8731  -41.1409   11.7468 H         1 1SW         0.0294
     50 H11        46.4411  -36.4802    7.3916 H         1 1SW         0.0421
     51 H12        49.1624  -34.3016    7.7813 H         1 1SW         0.2249
     52 H13        49.9916  -33.7981    5.9506 H         1 1SW         0.2264
     53 H14        51.3968  -33.9972    4.1273 H         1 1SW         0.0758
     54 H15        51.8001  -33.5540    1.7327 H         1 1SW         0.0664
     55 H16        49.8991  -32.9056    0.2803 H         1 1SW         0.0740
     56 H17        47.2164  -33.1630    3.6194 H         1 1SW         0.0710
@<TRIPOS>BOND
     1    1    2 1  
     2    2    3 ar 
     3    2   25 ar 
     4    3    4 ar 
     5    4    5 ar 
     6    5    6 1  
     7    5   24 ar 
     8    6    7 1  
     9    7    8 ar 
    10    7   21 ar 
    11    8    9 ar 
    12    9   10 ar 
    13   10   11 1  
    14   10   20 ar 
    15   11   12 2  
    16   12   13 1  
    17   12   19 1  
    18   13   14 am 
    19   14   15 2  
    20   14   16 1  
    21   16   17 1  
    22   16   18 1  
    23   17   18 1  
    24   19   20 1  
    25   20   21 ar 
    26   21   22 1  
    27   22   23 3  
    28   24   25 ar 
    29   25   26 1  
    30   26   27 am 
    31   27   28 2  
    32   27   29 am 
    33   29   30 1  
    34   30   31 ar 
    35   30   35 ar 
    36   31   32 ar 
    37   32   33 ar 
    38   33   34 ar 
    39   34   35 ar 
    40   34   36 1  
    41   36   37 1  
    42   36   38 1  
    43   36   39 1  
    44    3   40 1  
    45    4   41 1  
    46    8   42 1  
    47    9   43 1  
    48   13   44 1  
    49   16   45 1  
    50   17   46 1  
    51   17   47 1  
    52   18   48 1  
    53   18   49 1  
    54   24   50 1  
    55   26   51 1  
    56   29   52 1  
    57   31   53 1  
    58   32   54 1  
    59   33   55 1  
    60   35   56 1  
@<TRIPOS>SUBSTRUCTURE
     1 1SW         1

