### 
### Created by X-TOOL on Mon Sep 10 21:13:15 2018
### 

@<TRIPOS>MOLECULE
4ktc_ligand
  103   109     1     0     0
SMALL
GAST_HUCK


@<TRIPOS>ATOM
      1 C21        49.6080   36.8150  109.5810 C.2       1 1X3         0.3221
      2 O22        50.5150   37.5950  109.8870 O.2       1 1X3        -0.3774
      3 O23        48.4160   36.8150  110.1350 O.3       1 1X3        -0.2605
      4 C42        48.1400   37.7140  111.2030 C.3       1 1X3         0.0882
      5 C46        46.9270   37.2310  112.0020 C.3       1 1X3        -0.0223
      6 C45        45.7350   37.7920  111.2160 C.3       1 1X3        -0.0503
      7 C44        46.2430   38.9810  110.3870 C.3       1 1X3        -0.0503
      8 C43        47.7540   39.0890  110.6460 C.3       1 1X3        -0.0223
      9 C17        50.6350   36.6390  106.5790 C.2       1 1X3         0.2064
     10 C18        50.8960   35.6970  107.7670 C.3       1 1X3         0.1330
     11 O19        49.6090   36.4420  105.9270 O.2       1 1X3        -0.3942
     12 N20        49.7660   35.7720  108.6990 N.am      1 1X3        -0.2412
     13 C24        51.1180   34.2370  107.3120 C.3       1 1X3        -0.0124
     14 C25        52.3690   34.1910  106.4000 C.3       1 1X3        -0.0488
     15 C26        52.4360   32.8350  105.6560 C.3       1 1X3        -0.0528
     16 C27        52.1680   33.0360  104.1460 C.3       1 1X3        -0.0531
     17 C28        50.6450   33.0120  103.9090 C.3       1 1X3        -0.0531
     18 C1         48.2770   36.6650  101.7570 C.3       1 1X3        -0.0152
     19 C2         49.7710   36.8700  101.9330 C.3       1 1X3         0.1374
     20 C3         49.1040   35.6370  102.5110 C.3       1 1X3        -0.0064
     21 N4         50.2230   37.8240  102.9080 N.am      1 1X3        -0.2737
     22 O5         50.4200   35.9620   99.7550 O.2       1 1X3        -0.3404
     23 C6         50.6880   36.8090  100.7300 C.2       1 1X3         0.2444
     24 C8         49.3450   34.2400  102.0070 C.3       1 1X3        -0.0488
     25 C29        50.2090   33.3050  102.4590 C.3       1 1X3        -0.0529
     26 N7         51.6370   37.7340  100.6250 N.am      1 1X3        -0.1552
     27 S47        52.5470   37.8050   99.2040 S.o2      1 1X3         0.0645
     28 O49        53.1850   36.5050   98.9700 O.2       1 1X3        -0.1503
     29 O50        51.6790   38.3530   98.1440 O.2       1 1X3        -0.1503
     30 C48        53.8420   39.0730   99.5670 C.3       1 1X3         0.1004
     31 C52        54.6220   39.4720   98.3320 C.3       1 1X3        -0.0268
     32 C51        53.5580   40.3960   98.8820 C.3       1 1X3        -0.0268
     33 N10        51.5530   37.5950  106.2260 N.am      1 1X3        -0.2469
     34 C11        51.3840   38.4900  105.0670 C.3       1 1X3         0.1363
     35 C14        51.3140   37.7110  103.7460 C.2       1 1X3         0.2013
     36 O15        52.2240   36.9090  103.5490 O.2       1 1X3        -0.3947
     37 C12        52.5680   39.4740  105.1180 C.3       1 1X3         0.0204
     38 C13        52.9120   39.5030  106.6120 C.3       1 1X3         0.1127
     39 C9         52.6370   38.0710  107.0950 C.3       1 1X3         0.0674
     40 O16        52.0530   40.4060  107.3110 O.3       1 1X3        -0.2581
     41 C30        52.0520   41.7020  107.0810 C.2       1 1X3         0.3243
     42 N31        51.0200   42.3120  107.7580 N.am      1 1X3        -0.2370
     43 O32        53.0340   42.3220  106.6710 O.2       1 1X3        -0.3773
     44 C33        50.9420   43.7750  107.9540 C.3       1 1X3         0.0672
     45 C34        49.6740   44.2620  108.6650 C.ar      1 1X3        -0.0187
     46 C35        48.6100   43.3720  108.9370 C.ar      1 1X3        -0.0372
     47 C36        48.7700   41.9340  108.5200 C.3       1 1X3        -0.0009
     48 C37        50.2310   41.5690  108.7450 C.3       1 1X3         0.0464
     49 C38        49.5490   45.6120  109.0440 C.ar      1 1X3        -0.0649
     50 C39        48.3710   46.0350  109.6990 C.ar      1 1X3        -0.0754
     51 C40        47.3200   45.1330  109.9780 C.ar      1 1X3        -0.0755
     52 C41        47.4320   43.7840  109.5980 C.ar      1 1X3        -0.0667
     53 H1         49.0223   37.7959  111.8548 H         1 1X3         0.0647
     54 H2         46.9460   37.6313  113.0264 H         1 1X3         0.0293
     55 H3         46.8921   36.1322  112.0383 H         1 1X3         0.0293
     56 H4         44.9515   38.1273  111.9115 H         1 1X3         0.0266
     57 H5         45.3271   37.0175  110.5499 H         1 1X3         0.0266
     58 H6         45.7377   39.9059  110.7021 H         1 1X3         0.0266
     59 H7         46.0536   38.8057  109.3177 H         1 1X3         0.0266
     60 H8         48.2959   39.2975  109.7117 H         1 1X3         0.0293
     61 H9         47.9684   39.8809  111.3788 H         1 1X3         0.0293
     62 H10        51.8048   36.0365  108.2855 H         1 1X3         0.0799
     63 H11        49.0863   35.0385  108.6928 H         1 1X3         0.1899
     64 H12        50.2384   33.8847  106.7532 H         1 1X3         0.0312
     65 H13        51.2757   33.5944  108.1907 H         1 1X3         0.0312
     66 H14        53.2725   34.3132  107.0154 H         1 1X3         0.0267
     67 H15        52.3132   35.0070  105.6645 H         1 1X3         0.0267
     68 H16        51.6774   32.1554  106.0716 H         1 1X3         0.0265
     69 H17        53.4354   32.3959  105.7916 H         1 1X3         0.0265
     70 H18        52.6447   32.2263  103.5741 H         1 1X3         0.0265
     71 H19        52.5780   34.0041  103.8225 H         1 1X3         0.0265
     72 H20        50.1854   33.7674  104.5633 H         1 1X3         0.0265
     73 H21        50.2722   32.0140  104.1829 H         1 1X3         0.0265
     74 H22        47.8679   36.4219  100.7653 H         1 1X3         0.0279
     75 H23        47.5660   37.3048  102.3002 H         1 1X3         0.0279
     76 H24        48.9879   35.5744  103.6031 H         1 1X3         0.0312
     77 H25        49.6868   38.6643  102.9884 H         1 1X3         0.1839
     78 H26        49.6191   34.3755  100.9504 H         1 1X3         0.0267
     79 H27        48.3603   33.7540  102.0710 H         1 1X3         0.0267
     80 H28        49.7944   32.3517  102.0992 H         1 1X3         0.0265
     81 H29        51.1482   33.5200  101.9283 H         1 1X3         0.0265
     82 H30        51.8087   38.3753  101.3728 H         1 1X3         0.2148
     83 H31        54.2873   38.9862  100.5691 H         1 1X3         0.0559
     84 H32        54.4539   38.9445   97.3815 H         1 1X3         0.0285
     85 H33        55.6842   39.7448   98.4171 H         1 1X3         0.0285
     86 H34        53.8467   41.3399   99.3675 H         1 1X3         0.0285
     87 H35        52.6163   40.5396   98.3319 H         1 1X3         0.0285
     88 H36        50.4450   39.0522  105.1774 H         1 1X3         0.0803
     89 H37        52.2722   40.4708  104.7589 H         1 1X3         0.0342
     90 H38        53.4163   39.1064  104.5220 H         1 1X3         0.0342
     91 H39        53.9638   39.7838  106.7695 H         1 1X3         0.0670
     92 H40        53.5325   37.4427  106.9801 H         1 1X3         0.0553
     93 H41        52.3206   38.0695  108.1485 H         1 1X3         0.0553
     94 H42        50.9859   44.2555  106.9655 H         1 1X3         0.0670
     95 H43        51.8108   44.0869  108.5522 H         1 1X3         0.0670
     96 H44        48.5100   41.8169  107.4576 H         1 1X3         0.0431
     97 H45        48.1206   41.2887  109.1297 H         1 1X3         0.0431
     98 H46        50.5377   41.8517  109.7628 H         1 1X3         0.0544
     99 H47        50.3750   40.4874  108.6058 H         1 1X3         0.0544
    100 H48        50.3456   46.3172  108.8361 H         1 1X3         0.0538
    101 H49        48.2714   47.0734  109.9937 H         1 1X3         0.0541
    102 H50        46.4273   45.4810  110.4850 H         1 1X3         0.0541
    103 H51        46.6355   43.0790  109.8068 H         1 1X3         0.0537
@<TRIPOS>BOND
     1    1    2 2  
     2    1    3 1  
     3   12    1 am 
     4    3    4 1  
     5    4    5 1  
     6    4    8 1  
     7    5    6 1  
     8    7    6 1  
     9    8    7 1  
    10   10    9 1  
    11    9   11 2  
    12    9   33 am 
    13   10   12 1  
    14   13   10 1  
    15   14   13 1  
    16   15   14 1  
    17   16   15 1  
    18   17   16 1  
    19   25   17 1  
    20   19   18 1  
    21   20   18 1  
    22   20   19 1  
    23   19   21 1  
    24   19   23 1  
    25   24   20 1  
    26   21   35 am 
    27   23   22 2  
    28   23   26 am 
    29   24   25 1  
    30   26   27 am 
    31   27   28 2  
    32   27   29 2  
    33   27   30 1  
    34   30   31 1  
    35   30   32 1  
    36   31   32 1  
    37   33   34 1  
    38   33   39 1  
    39   34   35 1  
    40   34   37 1  
    41   35   36 2  
    42   37   38 1  
    43   38   39 1  
    44   38   40 1  
    45   40   41 1  
    46   41   42 am 
    47   41   43 2  
    48   42   44 1  
    49   42   48 1  
    50   44   45 1  
    51   45   46 ar 
    52   45   49 ar 
    53   46   47 1  
    54   46   52 ar 
    55   47   48 1  
    56   49   50 ar 
    57   50   51 ar 
    58   51   52 ar 
    59    4   53 1  
    60    5   54 1  
    61    5   55 1  
    62    6   56 1  
    63    6   57 1  
    64    7   58 1  
    65    7   59 1  
    66    8   60 1  
    67    8   61 1  
    68   10   62 1  
    69   12   63 1  
    70   13   64 1  
    71   13   65 1  
    72   14   66 1  
    73   14   67 1  
    74   15   68 1  
    75   15   69 1  
    76   16   70 1  
    77   16   71 1  
    78   17   72 1  
    79   17   73 1  
    80   18   74 1  
    81   18   75 1  
    82   20   76 1  
    83   21   77 1  
    84   24   78 1  
    85   24   79 1  
    86   25   80 1  
    87   25   81 1  
    88   26   82 1  
    89   30   83 1  
    90   31   84 1  
    91   31   85 1  
    92   32   86 1  
    93   32   87 1  
    94   34   88 1  
    95   37   89 1  
    96   37   90 1  
    97   38   91 1  
    98   39   92 1  
    99   39   93 1  
   100   44   94 1  
   101   44   95 1  
   102   47   96 1  
   103   47   97 1  
   104   48   98 1  
   105   48   99 1  
   106   49  100 1  
   107   50  101 1  
   108   51  102 1  
   109   52  103 1  
@<TRIPOS>SUBSTRUCTURE
     1 1X3         1

