### 
### Created by X-TOOL on Mon Sep 10 21:13:16 2018
### 

@<TRIPOS>MOLECULE
4kup_ligand
   51    53     1     0     0
SMALL
GAST_HUCK


@<TRIPOS>ATOM
      1 C18        26.0280    7.4640   56.7940 C.2       1 1TZ         0.0186
      2 C01        25.1240    8.6730   56.7550 C.ar      1 1TZ        -0.0178
      3 C02        25.4960    9.8730   57.4150 C.ar      1 1TZ        -0.0505
      4 C03        26.8330   10.0810   58.1650 C.3       1 1TZ        -0.0334
      5 C04        24.6240   10.9750   57.3800 C.ar      1 1TZ        -0.0662
      6 C05        23.4110   10.8860   56.7140 C.ar      1 1TZ        -0.0599
      7 C06        22.4630   12.0890   56.6830 C.3       1 1TZ        -0.0345
      8 C07        23.0470    9.7040   56.0700 C.ar      1 1TZ        -0.0662
      9 C08        23.8910    8.5820   56.0810 C.ar      1 1TZ        -0.0505
     10 C09        23.4150    7.3020   55.3600 C.3       1 1TZ        -0.0334
     11 N24        26.4610    7.0980   57.9260 N.2       1 1TZ        -0.1988
     12 N01        27.1500    5.8620   57.9970 N.am      1 1TZ        -0.1692
     13 C23        27.8020    5.4980   59.1010 C.2       1 1TZ         0.2687
     14 O23        27.8580    6.1710   60.1200 O.2       1 1TZ        -0.3756
     15 C11        28.4870    4.1640   59.0350 C.3       1 1TZ         0.0769
     16 N22        29.9650    4.3820   59.0310 N.4       1 1TZ         0.2393
     17 C10        28.0000    3.2270   60.1630 C.3       1 1TZ         0.0250
     18 C12        26.5000    3.1050   60.3240 C.2       1 1TZ        -0.0386
     19 C2         25.5830    4.0400   60.7040 C.2       1 1TZ         0.0168
     20 N23        24.3670    3.5120   60.7450 N.pl3     1 1TZ        -0.2890
     21 C13        24.4300    2.1830   60.4290 C.ar      1 1TZ         0.0603
     22 C14        23.3950    1.2350   60.3480 C.ar      1 1TZ        -0.0443
     23 C15        23.7500   -0.0690   59.9960 C.ar      1 1TZ        -0.0768
     24 C16        25.0910   -0.4120   59.7120 C.ar      1 1TZ        -0.0792
     25 C17        26.1240    0.5300   59.7840 C.ar      1 1TZ        -0.0747
     26 C          25.7520    1.8290   60.1380 C.ar      1 1TZ        -0.0213
     27 H          26.2967    6.9283   55.8847 H         1 1TZ         0.0686
     28 H          26.8647   11.0981   58.5827 H         1 1TZ         0.0392
     29 H          27.6709    9.9458   57.4652 H         1 1TZ         0.0392
     30 H          26.9141    9.3471   58.9803 H         1 1TZ         0.0392
     31 H          24.9010   11.8983   57.8758 H         1 1TZ         0.0439
     32 H          21.5593   11.8290   56.1123 H         1 1TZ         0.0389
     33 H          22.9671   12.9409   56.2033 H         1 1TZ         0.0389
     34 H          22.1818   12.3609   57.7111 H         1 1TZ         0.0389
     35 H          22.0962    9.6505   55.5521 H         1 1TZ         0.0439
     36 H          24.1816    6.5192   55.4583 H         1 1TZ         0.0392
     37 H          23.2493    7.5212   54.2949 H         1 1TZ         0.0392
     38 H          22.4752    6.9538   55.8133 H         1 1TZ         0.0392
     39 H          27.1471    5.2519   57.2047 H         1 1TZ         0.2497
     40 H          28.2181    3.6885   58.0802 H         1 1TZ         0.1119
     41 H          30.4358    3.4918   58.9868 H         1 1TZ         0.2016
     42 H          30.2359    4.8638   59.8739 H         1 1TZ         0.2016
     43 H          30.2206    4.9373   58.2296 H         1 1TZ         0.2016
     44 H          28.4108    3.6014   61.1122 H         1 1TZ         0.0430
     45 H          28.3995    2.2221   59.9616 H         1 1TZ         0.0430
     46 H          25.8168    5.0769   60.9410 H         1 1TZ         0.0795
     47 H          23.5054    4.0254   60.9794 H         1 1TZ         0.2216
     48 H          22.3648    1.5048   60.5503 H         1 1TZ         0.0541
     49 H          22.9824   -0.8323   59.9396 H         1 1TZ         0.0530
     50 H          25.3262   -1.4321   59.4308 H         1 1TZ         0.0510
     51 H          27.1548    0.2662   59.5767 H         1 1TZ         0.0540
@<TRIPOS>BOND
     1    1    2 1  
     2    1   11 2  
     3    2    3 ar 
     4    2    9 ar 
     5    3    4 1  
     6    3    5 ar 
     7    5    6 ar 
     8    6    7 1  
     9    6    8 ar 
    10    8    9 ar 
    11    9   10 1  
    12   11   12 1  
    13   12   13 am 
    14   13   14 2  
    15   13   15 1  
    16   15   16 1  
    17   15   17 1  
    18   17   18 1  
    19   18   19 2  
    20   18   26 1  
    21   19   20 1  
    22   20   21 1  
    23   21   22 ar 
    24   21   26 ar 
    25   22   23 ar 
    26   23   24 ar 
    27   24   25 ar 
    28   25   26 ar 
    29    1   27 1  
    30    4   28 1  
    31    4   29 1  
    32    4   30 1  
    33    5   31 1  
    34    7   32 1  
    35    7   33 1  
    36    7   34 1  
    37    8   35 1  
    38   10   36 1  
    39   10   37 1  
    40   10   38 1  
    41   12   39 1  
    42   15   40 1  
    43   16   41 1  
    44   16   42 1  
    45   16   43 1  
    46   17   44 1  
    47   17   45 1  
    48   19   46 1  
    49   20   47 1  
    50   22   48 1  
    51   23   49 1  
    52   24   50 1  
    53   25   51 1  
@<TRIPOS>SUBSTRUCTURE
     1 1TZ         1

