### 
### Created by X-TOOL on Mon Sep 10 21:13:20 2018
### 

@<TRIPOS>MOLECULE
4kwf_ligand
   29    31     1     0     0
SMALL
GAST_HUCK


@<TRIPOS>ATOM
      1 O11        -1.0030  -27.7940   50.7030 O.2       1 3AK        -0.3416
      2 C8          0.1720  -27.8260   50.1980 C.2       1 3AK         0.3009
      3 C9          0.4960  -28.6420   49.0470 C.2       1 3AK         0.2388
      4 O10        -0.3520  -29.3770   48.4320 O.2       1 3AK        -0.3423
      5 C1          1.9240  -28.4020   48.7900 C.ar      1 3AK         0.0663
      6 N7          1.2220  -27.1330   50.6400 N.am      1 3AK        -0.1954
      7 C6          2.3040  -27.4250   49.8620 C.ar      1 3AK         0.0901
      8 C5          3.6200  -26.9900   49.8820 C.ar      1 3AK        -0.0353
      9 C4          4.5290  -27.4740   48.9400 C.ar      1 3AK        -0.0710
     10 C3          4.1470  -28.3950   47.9410 C.ar      1 3AK        -0.0713
     11 C2          2.8380  -28.8650   47.8560 C.ar      1 3AK        -0.0566
     12 C12         1.2030  -26.2360   51.7760 C.3       1 3AK         0.0903
     13 C13        -0.1700  -25.6190   51.9500 C.ar      1 3AK        -0.0152
     14 C18        -0.8150  -25.7430   53.1780 C.ar      1 3AK        -0.0579
     15 C17        -2.0770  -25.1960   53.3590 C.ar      1 3AK        -0.0685
     16 C16        -2.7080  -24.5260   52.3160 C.ar      1 3AK        -0.0687
     17 C15        -2.0770  -24.4030   51.0840 C.ar      1 3AK        -0.0685
     18 C14        -0.8050  -24.9440   50.8950 C.ar      1 3AK        -0.0579
     19 H           3.9430  -26.2741   50.6291 H         1 3AK         0.0517
     20 H           5.5573  -27.1330   48.9766 H         1 3AK         0.0614
     21 H           4.8850  -28.7429   47.2273 H         1 3AK         0.0500
     22 H           2.5442  -29.5688   47.0857 H         1 3AK         0.0631
     23 H           1.9406  -25.4357   51.6163 H         1 3AK         0.0752
     24 H           1.4634  -26.7987   52.6846 H         1 3AK         0.0752
     25 H          -0.3304  -26.2676   53.9935 H         1 3AK         0.0557
     26 H          -2.5737  -25.2912   54.3178 H         1 3AK         0.0599
     27 H          -3.6933  -24.0992   52.4644 H         1 3AK         0.0559
     28 H          -2.5730  -23.8868   50.2700 H         1 3AK         0.0599
     29 H          -0.3084  -24.8436   49.9367 H         1 3AK         0.0557
@<TRIPOS>BOND
     1    1    2 2  
     2    2    3 1  
     3    2    6 am 
     4    3    4 2  
     5    3    5 1  
     6    5    7 ar 
     7    5   11 ar 
     8    6    7 1  
     9    6   12 1  
    10    7    8 ar 
    11    8    9 ar 
    12    9   10 ar 
    13   10   11 ar 
    14   12   13 1  
    15   13   14 ar 
    16   13   18 ar 
    17   14   15 ar 
    18   15   16 ar 
    19   16   17 ar 
    20   17   18 ar 
    21    8   19 1  
    22    9   20 1  
    23   10   21 1  
    24   11   22 1  
    25   12   23 1  
    26   12   24 1  
    27   14   25 1  
    28   15   26 1  
    29   16   27 1  
    30   17   28 1  
    31   18   29 1  
@<TRIPOS>SUBSTRUCTURE
     1 3AK         1

