### 
### Created by X-TOOL on Mon Sep 10 21:13:18 2018
### 

@<TRIPOS>MOLECULE
4kwg_ligand
   19    20     1     0     0
SMALL
GAST_HUCK


@<TRIPOS>ATOM
      1 BR1         3.9470  -26.9290   49.1570 Br        1 2AK        -0.0624
      2 C5          2.0930  -27.2150   49.3320 C.ar      1 2AK         0.0316
      3 C4          1.3310  -26.5960   50.3250 C.ar      1 2AK        -0.0594
      4 C3         -0.0490  -26.8160   50.4430 C.ar      1 2AK        -0.0522
      5 C12        -0.8150  -26.1180   51.5360 C.3       1 2AK        -0.0365
      6 C2         -0.7330  -27.6680   49.5710 C.ar      1 2AK        -0.0519
      7 C6          1.4400  -28.1270   48.3740 C.ar      1 2AK         0.0881
      8 N7          1.9070  -28.8580   47.3230 N.am      1 2AK        -0.2226
      9 C8          0.8700  -29.5170   46.7820 C.2       1 2AK         0.2959
     10 O11         0.9520  -30.3110   45.7790 O.2       1 2AK        -0.3423
     11 C9         -0.3750  -29.2440   47.5020 C.2       1 2AK         0.2377
     12 C1         -0.0240  -28.3070   48.5670 C.ar      1 2AK         0.0627
     13 O10        -1.5380  -29.7060   47.2380 O.2       1 2AK        -0.3421
     14 H           1.8197  -25.9269   51.0240 H         1 2AK         0.0585
     15 H          -1.8757  -26.4039   51.4804 H         1 2AK         0.0363
     16 H          -0.7217  -25.0291   51.4113 H         1 2AK         0.0363
     17 H          -0.4071  -26.4113   52.5145 H         1 2AK         0.0363
     18 H          -1.8000  -27.8260   49.6786 H         1 2AK         0.0595
     19 H           2.8558  -28.8968   47.0096 H         1 2AK         0.2265
@<TRIPOS>BOND
     1    1    2 1  
     2    2    3 ar 
     3    2    7 ar 
     4    3    4 ar 
     5    4    5 1  
     6    4    6 ar 
     7    6   12 ar 
     8    7    8 1  
     9    7   12 ar 
    10    8    9 am 
    11    9   10 2  
    12    9   11 1  
    13   11   12 1  
    14   11   13 2  
    15    3   14 1  
    16    5   15 1  
    17    5   16 1  
    18    5   17 1  
    19    6   18 1  
    20    8   19 1  
@<TRIPOS>SUBSTRUCTURE
     1 2AK         1

