### 
### Created by X-TOOL on Mon Sep 10 21:13:16 2018
### 

@<TRIPOS>MOLECULE
4kwo_ligand
   54    57     1     0     0
SMALL
GAST_HUCK


@<TRIPOS>ATOM
      1 C1        102.1060   16.4500   22.1660 C.ar      1 1UD         0.1182
      2 C2        103.0940   16.8390   21.2570 C.ar      1 1UD         0.0077
      3 C3        102.7060   16.8710   19.9220 C.ar      1 1UD         0.1026
      4 C4        101.4350   16.5410   19.4810 C.ar      1 1UD         0.1423
      5 C5        100.4420   16.1280   20.3980 C.ar      1 1UD         0.0782
      6 C6         99.0460   15.8100   19.9190 C.3       1 1UD         0.0046
      7 C7         98.8050   14.3840   19.4480 C.3       1 1UD        -0.0104
      8 C8        100.8030   16.0960   21.7690 C.ar      1 1UD         0.1469
      9 N9         99.8460   15.6990   22.7240 N.pl3     1 1UD        -0.2460
     10 C10       100.1660   15.7060   23.9840 C.cat     1 1UD         0.1880
     11 N11        99.2800   15.3430   24.9350 N.pl3     1 1UD        -0.3360
     12 N12       101.4080   16.0640   24.4260 N.am      1 1UD        -0.2591
     13 C13       102.4340   16.4370   23.6020 C.2       1 1UD         0.2059
     14 O14       103.5460   16.7510   24.0340 O.2       1 1UD        -0.3908
     15 N15       103.3890   17.2030   18.7820 N.2       1 1UD        -0.2095
     16 N16       101.3480   16.6860   18.1170 N.pl3     1 1UD        -0.1975
     17 C17       102.5350   17.0780   17.7170 C.2       1 1UD         0.2812
     18 N18       102.9390   17.3490   16.4630 N.pl3     1 1UD        -0.2505
     19 C19       101.9480   17.4770   15.4140 C.3       1 1UD         0.0333
     20 C20        95.8960   14.6790   17.3210 C.3       1 1UD         0.1875
     21 O21        95.9310   14.9850   15.9310 O.3       1 1UD        -0.3520
     22 C22        95.4890   16.3110   15.6650 C.3       1 1UD         0.0395
     23 O23        97.1360   15.1000   17.8920 O.3       1 1UD        -0.3426
     24 C24        97.3440   14.2540   19.0240 C.3       1 1UD         0.0929
     25 C25        96.8910   12.8670   18.5940 C.3       1 1UD         0.1152
     26 O26        96.3450   12.2370   19.7510 O.3       1 1UD        -0.3745
     27 C26        96.4160   10.8150   19.7570 C.3       1 1UD         0.0370
     28 C27        95.8230   13.1710   17.5410 C.3       1 1UD         0.1343
     29 O28        94.5320   12.8450   18.0550 O.3       1 1UD        -0.3841
     30 H         104.0980   17.0990   21.5724 H         1 1UD         0.0918
     31 H          98.8178   16.4834   19.0797 H         1 1UD         0.0489
     32 H          98.3527   16.0107   20.7491 H         1 1UD         0.0489
     33 H          99.0173   13.6817   20.2675 H         1 1UD         0.0321
     34 H          99.4606   14.1596   18.5937 H         1 1UD         0.0321
     35 H          98.9040   15.4067   22.4273 H         1 1UD         0.2316
     36 H          99.5554   15.3561   25.9274 H         1 1UD         0.1759
     37 H          98.3284   15.0528   24.6684 H         1 1UD         0.1759
     38 H         101.5773   16.0527   25.4115 H         1 1UD         0.1811
     39 H         100.5193   16.5206   17.5281 H         1 1UD         0.2405
     40 H         103.9404   17.4641   16.2512 H         1 1UD         0.2094
     41 H         102.4499   17.6975   14.4604 H         1 1UD         0.0521
     42 H         101.2555   18.2950   15.6616 H         1 1UD         0.0521
     43 H         101.3862   16.5357   15.3235 H         1 1UD         0.0521
     44 H          95.0442   15.1828   17.8013 H         1 1UD         0.0937
     45 H          95.5330   16.5019   14.5826 H         1 1UD         0.0525
     46 H          96.1388   17.0264   16.1902 H         1 1UD         0.0525
     47 H          94.4534   16.4298   16.0164 H         1 1UD         0.0525
     48 H          96.7141   14.5822   19.8639 H         1 1UD         0.0626
     49 H          97.7105   12.2653   18.1740 H         1 1UD         0.0649
     50 H          95.9712   10.4296   20.6863 H         1 1UD         0.0524
     51 H          97.4682   10.5001   19.6961 H         1 1UD         0.0524
     52 H          95.8634   10.4166   18.8933 H         1 1UD         0.0524
     53 H          96.0161   12.6199   16.6088 H         1 1UD         0.0671
     54 H          93.8732   13.0356   17.3976 H         1 1UD         0.2101
@<TRIPOS>BOND
     1    1    2 ar 
     2    8    1 ar 
     3    1   13 1  
     4    3    2 ar 
     5    4    3 ar 
     6    3   15 1  
     7    5    4 ar 
     8    4   16 1  
     9    6    5 1  
    10    5    8 ar 
    11    7    6 1  
    12   24    7 1  
    13    8    9 1  
    14    9   10 ar 
    15   10   11 ar 
    16   10   12 ar 
    17   13   12 am 
    18   13   14 2  
    19   17   15 2  
    20   16   17 1  
    21   17   18 1  
    22   18   19 1  
    23   20   21 1  
    24   23   20 1  
    25   20   28 1  
    26   21   22 1  
    27   23   24 1  
    28   24   25 1  
    29   25   26 1  
    30   25   28 1  
    31   26   27 1  
    32   28   29 1  
    33    2   30 1  
    34    6   31 1  
    35    6   32 1  
    36    7   33 1  
    37    7   34 1  
    38    9   35 1  
    39   11   36 1  
    40   11   37 1  
    41   12   38 1  
    42   16   39 1  
    43   18   40 1  
    44   19   41 1  
    45   19   42 1  
    46   19   43 1  
    47   20   44 1  
    48   22   45 1  
    49   22   46 1  
    50   22   47 1  
    51   24   48 1  
    52   25   49 1  
    53   27   50 1  
    54   27   51 1  
    55   27   52 1  
    56   28   53 1  
    57   29   54 1  
@<TRIPOS>SUBSTRUCTURE
     1 1UD         1

