### 
### Created by X-TOOL on Mon Sep 10 21:13:16 2018
### 

@<TRIPOS>MOLECULE
4kwp_ligand
   31    33     1     0     0
SMALL
GAST_HUCK


@<TRIPOS>ATOM
      1 BRE        22.9530  -32.0450   15.4250 Br        1 EXX        -0.0498
      2 CAN        22.8590  -30.6640   14.0990 C.ar      1 EXX         0.0282
      3 CAL        22.9950  -30.9840   12.7640 C.ar      1 EXX         0.0205
      4 BRC        23.3250  -32.8170   12.1400 Br        1 EXX        -0.0535
      5 CAM        22.9260  -29.9680   11.8710 C.ar      1 EXX         0.0225
      6 BRD        23.1630  -30.4300   10.0030 Br        1 EXX        -0.0512
      7 CAO        22.7190  -28.6510   12.2770 C.ar      1 EXX         0.0501
      8 BRF        22.6190  -27.3020   10.9000 Br        1 EXX        -0.0504
      9 CAQ        22.5800  -28.3330   13.6560 C.ar      1 EXX         0.1055
     10 CAP        22.6620  -29.3580   14.5400 C.ar      1 EXX         0.0505
     11 NAJ        22.5210  -28.8680   15.7930 N.2       1 EXX        -0.3007
     12 CAG        22.3390  -27.5300   15.7000 C.2       1 EXX         0.1116
     13 NAU        22.3990  -27.1770   14.3900 N.pl3     1 EXX        -0.2047
     14 CAT        22.2170  -25.9730   13.9700 C.3       1 EXX         0.1733
     15 OAK        23.1550  -25.0000   14.5030 O.3       1 EXX        -0.3396
     16 CAI        20.7550  -25.5210   14.5620 C.3       1 EXX         0.0311
     17 CAR        21.0060  -24.1570   14.8930 C.3       1 EXX         0.0886
     18 OAB        20.6370  -23.2880   13.7980 O.3       1 EXX        -0.3890
     19 CAS        22.3600  -24.0730   15.2090 C.3       1 EXX         0.1110
     20 CAH        22.6590  -24.0540   16.7980 C.3       1 EXX         0.0729
     21 OAA        22.0380  -25.1120   17.4430 O.3       1 EXX        -0.3924
     22 H          22.1725  -26.8510   16.5349 H         1 EXX         0.1374
     23 H          22.2381  -25.9526   12.8704 H         1 EXX         0.0964
     24 H          20.4797  -26.1083   15.4504 H         1 EXX         0.0345
     25 H          19.9652  -25.6136   13.8020 H         1 EXX         0.0345
     26 H          20.4106  -23.8758   15.7741 H         1 EXX         0.0622
     27 H          20.8118  -22.3857   14.0385 H         1 EXX         0.2099
     28 H          22.6782  -23.0846   14.8459 H         1 EXX         0.0646
     29 H          22.2867  -23.1092   17.2208 H         1 EXX         0.0584
     30 H          23.7449  -24.1249   16.9586 H         1 EXX         0.0584
     31 H          22.2323  -25.0730   18.3721 H         1 EXX         0.2095
@<TRIPOS>BOND
     1    1    2 1  
     2    2    3 ar 
     3    2   10 ar 
     4    3    4 1  
     5    3    5 ar 
     6    5    6 1  
     7    5    7 ar 
     8    7    8 1  
     9    7    9 ar 
    10    9   10 ar 
    11    9   13 1  
    12   10   11 1  
    13   11   12 2  
    14   12   13 1  
    15   13   14 1  
    16   14   15 1  
    17   14   16 1  
    18   15   19 1  
    19   16   17 1  
    20   17   18 1  
    21   17   19 1  
    22   19   20 1  
    23   20   21 1  
    24   12   22 1  
    25   14   23 1  
    26   16   24 1  
    27   16   25 1  
    28   17   26 1  
    29   18   27 1  
    30   19   28 1  
    31   20   29 1  
    32   20   30 1  
    33   21   31 1  
@<TRIPOS>SUBSTRUCTURE
     1 EXX         1

