### 
### Created by X-TOOL on Mon Sep 10 21:13:14 2018
### 

@<TRIPOS>MOLECULE
4kww_ligand
   16    16     1     0     0
SMALL
GAST_HUCK


@<TRIPOS>ATOM
      1 O8        -83.1330  -20.5950   -0.6260 O.co2     1 PHT        -0.5599
      2 O9        -83.8060  -20.5620   -2.6870 O.co2     1 PHT        -0.5599
      3 C10       -82.2470  -23.2800    0.1290 C.2       1 PHT         0.0654
      4 O11       -82.3280  -23.2370    1.3990 O.co2     1 PHT        -0.5599
      5 O12       -81.2200  -23.0430   -0.5560 O.co2     1 PHT        -0.5599
      6 C7        -83.6490  -21.1860   -1.6110 C.2       1 PHT         0.0654
      7 C1        -83.9070  -24.9820   -0.6110 C.ar      1 PHT        -0.0442
      8 C2        -83.4480  -23.6480   -0.6600 C.ar      1 PHT         0.0241
      9 C3        -84.1170  -22.6160   -1.5160 C.ar      1 PHT         0.0241
     10 C4        -85.2320  -23.0480   -2.2560 C.ar      1 PHT        -0.0442
     11 C5        -85.6950  -24.4000   -2.1750 C.ar      1 PHT        -0.0557
     12 C6        -85.0290  -25.3680   -1.3850 C.ar      1 PHT        -0.0557
     13 H1        -83.4029  -25.7082    0.0164 H         1 PHT         0.0658
     14 H2        -85.7497  -22.3452   -2.8987 H         1 PHT         0.0658
     15 H3        -86.5781  -24.6902   -2.7327 H         1 PHT         0.0645
     16 H4        -85.3746  -26.3954   -1.3725 H         1 PHT         0.0645
@<TRIPOS>BOND
     1    6    1 ar 
     2    6    2 ar 
     3    3    4 ar 
     4    3    5 ar 
     5    8    3 1  
     6    9    6 1  
     7    8    7 ar 
     8    7   12 ar 
     9    8    9 ar 
    10    9   10 ar 
    11   10   11 ar 
    12   11   12 ar 
    13    7   13 1  
    14   10   14 1  
    15   11   15 1  
    16   12   16 1  
@<TRIPOS>SUBSTRUCTURE
     1 PHT         1

