### 
### Created by X-TOOL on Mon Sep 10 21:13:15 2018
### 

@<TRIPOS>MOLECULE
4kx8_ligand
   70    69     1     0     0
SMALL
GAST_HUCK


@<TRIPOS>ATOM
      1 N         -10.2760   39.0610   44.8090 N.4       1 L2O         0.2243
      2 C1        -11.3610   39.1710   43.7970 C.3       1 L2O         0.0198
      3 C2        -12.8040   39.2980   44.3780 C.3       1 L2O        -0.0028
      4 C3        -13.0540   40.7030   44.9480 C.3       1 L2O        -0.0414
      5 C4        -13.6720   41.6060   43.8810 C.3       1 L2O        -0.0625
      6 C5        -14.0210   40.5960   46.1470 C.3       1 L2O        -0.0625
      7 C6        -11.3590   37.9890   42.8200 C.3       1 L2O         0.1863
      8 O1        -10.0520   37.4670   42.5490 O.3       1 L2O        -0.3665
      9 C         -11.7760   38.5400   41.4960 C.2       1 L2O         0.2128
     10 O         -10.9480   39.2600   40.9020 O.2       1 L2O        -0.3938
     11 N         -12.7530   37.6790   40.8670 N.am      1 VAL        -0.2631
     12 CA        -13.2620   38.2810   39.6770 C.3       1 VAL         0.1333
     13 C         -14.4740   39.0570   40.1270 C.2       1 VAL         0.2042
     14 O         -15.1860   38.6390   41.0200 O.2       1 VAL        -0.3944
     15 CB        -13.5790   37.2100   38.6460 C.3       1 VAL        -0.0063
     16 CG1       -14.2150   37.8170   37.4410 C.3       1 VAL        -0.0584
     17 CG2       -12.2980   36.5420   38.2130 C.3       1 VAL        -0.0584
     18 N         -14.6570   40.2270   39.5540 N.am      1 VAL        -0.2635
     19 CA        -15.6730   41.1410   39.9890 C.3       1 VAL         0.1332
     20 C         -17.0550   40.7460   39.5070 C.2       1 VAL         0.2037
     21 O         -18.0140   41.2800   39.9350 O.2       1 VAL        -0.3944
     22 CB        -15.3240   42.5480   39.4830 C.3       1 VAL        -0.0063
     23 CG1       -16.4550   43.5270   39.6980 C.3       1 VAL        -0.0584
     24 CG2       -14.0570   43.0460   40.1340 C.3       1 VAL        -0.0584
     25 N         -17.1100   39.7720   38.6430 N.am      1 ASP        -0.2679
     26 CA        -18.1300   39.5720   37.6550 C.3       1 ASP         0.1057
     27 C         -18.8790   40.7060   37.0560 C.2       1 ASP         0.0618
     28 O         -18.7170   40.7390   35.7980 O.co2     1 ASP        -0.5665
     29 CB        -19.0560   38.4560   37.9430 C.3       1 ASP         0.0351
     30 CG        -18.7930   37.3470   37.0640 C.2       1 ASP         0.0387
     31 OD1       -17.6300   36.9350   37.0800 O.co2     1 ASP        -0.5688
     32 OD2       -19.6820   36.8960   36.3300 O.co2     1 ASP        -0.5688
     33 OXT       -19.5740   41.4730   37.7720 O.co2     1 ASP        -0.5665
     34 H1        -10.3131   39.8550   45.4289 H         1 L2O         0.1999
     35 H2         -9.3825   39.0402   44.3428 H         1 L2O         0.1999
     36 H3        -10.3973   38.2134   45.3409 H         1 L2O         0.1999
     37 H4        -11.1583   40.0865   43.2219 H         1 L2O         0.0902
     38 H5        -12.9337   38.5573   45.1808 H         1 L2O         0.0325
     39 H6        -13.5316   39.1016   43.5768 H         1 L2O         0.0325
     40 H7        -12.0996   41.1357   45.2823 H         1 L2O         0.0297
     41 H8        -13.8450   42.6069   44.3031 H         1 L2O         0.0232
     42 H9        -14.6291   41.1781   43.5480 H         1 L2O         0.0232
     43 H10       -12.9867   41.6830   43.0240 H         1 L2O         0.0232
     44 H11       -13.5795   39.9466   46.9173 H         1 L2O         0.0232
     45 H12       -14.9767   40.1678   45.8103 H         1 L2O         0.0232
     46 H13       -14.1957   41.5972   46.5677 H         1 L2O         0.0232
     47 H14       -12.0328   37.1967   43.1781 H         1 L2O         0.0896
     48 H15        -9.5121   38.1499   42.1685 H         1 L2O         0.2135
     49 H16       -13.0333   36.7853   41.2174 H         1 VAL         0.1884
     50 H17       -12.5192   38.9707   39.2497 H         1 VAL         0.0802
     51 H18       -14.2584   36.4663   39.0880 H         1 VAL         0.0343
     52 H19       -14.4369   37.0283   36.7070 H         1 VAL         0.0234
     53 H20       -13.5281   38.5509   36.9942 H         1 VAL         0.0234
     54 H21       -15.1490   38.3193   37.7331 H         1 VAL         0.0234
     55 H22       -11.8091   36.0857   39.0863 H         1 VAL         0.0234
     56 H23       -11.6268   37.2905   37.7666 H         1 VAL         0.0234
     57 H24       -12.5237   35.7626   37.4703 H         1 VAL         0.0234
     58 H25       -14.0678   40.4879   38.7893 H         1 VAL         0.1883
     59 H26       -15.6832   41.1504   41.0889 H         1 VAL         0.0802
     60 H27       -15.1443   42.4785   38.4000 H         1 VAL         0.0343
     61 H28       -16.1593   44.5173   39.3212 H         1 VAL         0.0234
     62 H29       -16.6810   43.5960   40.7723 H         1 VAL         0.0234
     63 H30       -17.3478   43.1804   39.1569 H         1 VAL         0.0234
     64 H31       -13.2483   42.3196   39.9655 H         1 VAL         0.0234
     65 H32       -14.2228   43.1660   41.2148 H         1 VAL         0.0234
     66 H33       -13.7763   44.0153   39.6962 H         1 VAL         0.0234
     67 H34       -16.3702   39.0998   38.6717 H         1 ASP         0.1876
     68 H35       -17.5380   39.2069   36.8028 H         1 ASP         0.0745
     69 H36       -20.0915   38.7970   37.7965 H         1 ASP         0.0471
     70 H37       -18.9205   38.1323   38.9855 H         1 ASP         0.0471
@<TRIPOS>BOND
     1    1    2 1  
     2    2    3 1  
     3    2    7 1  
     4    3    4 1  
     5    4    5 1  
     6    4    6 1  
     7    7    8 1  
     8    7    9 1  
     9    9   10 2  
    10    9   11 am 
    11   11   12 1  
    12   12   13 1  
    13   12   15 1  
    14   13   14 2  
    15   13   18 am 
    16   15   16 1  
    17   15   17 1  
    18   18   19 1  
    19   19   20 1  
    20   19   22 1  
    21   20   21 2  
    22   20   25 am 
    23   22   23 1  
    24   22   24 1  
    25   25   26 1  
    26   26   27 1  
    27   26   29 1  
    28   27   28 ar 
    29   27   33 ar 
    30   29   30 1  
    31   30   31 ar 
    32   30   32 ar 
    33    1   34 1  
    34    1   35 1  
    35    1   36 1  
    36    2   37 1  
    37    3   38 1  
    38    3   39 1  
    39    4   40 1  
    40    5   41 1  
    41    5   42 1  
    42    5   43 1  
    43    6   44 1  
    44    6   45 1  
    45    6   46 1  
    46    7   47 1  
    47    8   48 1  
    48   11   49 1  
    49   12   50 1  
    50   15   51 1  
    51   16   52 1  
    52   16   53 1  
    53   16   54 1  
    54   17   55 1  
    55   17   56 1  
    56   17   57 1  
    57   18   58 1  
    58   19   59 1  
    59   22   60 1  
    60   23   61 1  
    61   23   62 1  
    62   23   63 1  
    63   24   64 1  
    64   24   65 1  
    65   24   66 1  
    66   25   67 1  
    67   26   68 1  
    68   29   69 1  
    69   29   70 1  
@<TRIPOS>SUBSTRUCTURE
     1 L2O         1

