### 
### Created by X-TOOL on Mon Sep 10 21:13:13 2018
### 

@<TRIPOS>MOLECULE
4kxb_ligand
   46    46     1     0     0
SMALL
GAST_HUCK


@<TRIPOS>ATOM
      1 N2         -9.9300   38.6770   44.7080 N.4       1 BES         0.2258
      2 C1        -10.9390   38.8690   43.6850 C.3       1 BES         0.0291
      3 C6        -12.3350   38.9540   44.2950 C.3       1 BES         0.0287
      4 C7        -12.7730   40.3920   44.4410 C.ar      1 BES        -0.0374
      5 C8        -13.2990   41.0770   43.3530 C.ar      1 BES        -0.0601
      6 C12       -12.6550   41.0360   45.6700 C.ar      1 BES        -0.0601
      7 C9        -13.7010   42.4040   43.4970 C.ar      1 BES        -0.0686
      8 C11       -13.0540   42.3650   45.8120 C.ar      1 BES        -0.0686
      9 C10       -13.5820   43.0540   44.7230 C.ar      1 BES        -0.0687
     10 C2        -10.8520   37.7070   42.7110 C.3       1 BES         0.1881
     11 O2         -9.5030   37.2150   42.7190 O.3       1 BES        -0.3664
     12 C3        -11.2530   38.1880   41.3460 C.2       1 BES         0.2125
     13 O3        -10.6060   39.0440   40.7930 O.2       1 BES        -0.3939
     14 N1        -12.3320   37.6560   40.7860 N.am      1 BES        -0.2691
     15 C4        -12.9010   38.1710   39.5570 C.3       1 BES         0.0946
     16 C13       -12.7630   37.1410   38.4390 C.3       1 BES        -0.0156
     17 C14       -11.4090   37.2180   37.7350 C.3       1 BES        -0.0431
     18 C15       -11.2700   36.0930   36.7200 C.3       1 BES        -0.0625
     19 C16       -11.1810   38.5580   37.0450 C.3       1 BES        -0.0625
     20 C5        -14.3300   38.5840   39.7460 C.2       1 BES         0.0601
     21 O1        -14.8390   38.4160   40.8730 O.co2     1 BES        -0.5666
     22 O4        -14.9570   39.0870   38.7850 O.co2     1 BES        -0.5666
     23 H1         -9.9702   39.4389   45.3667 H         1 BES         0.2001
     24 H2         -9.0179   38.6510   44.2797 H         1 BES         0.2001
     25 H3        -10.1003   37.8077   45.1890 H         1 BES         0.2001
     26 H4        -10.7330   39.8069   43.1485 H         1 BES         0.0926
     27 H5        -12.3242   38.4785   45.2868 H         1 BES         0.0484
     28 H6        -13.0458   38.4256   43.6427 H         1 BES         0.0484
     29 H7        -13.3966   40.5808   42.3942 H         1 BES         0.0557
     30 H8        -12.2505   40.5011   46.5217 H         1 BES         0.0557
     31 H9        -14.1106   42.9356   42.6457 H         1 BES         0.0599
     32 H10       -12.9531   42.8616   46.7702 H         1 BES         0.0599
     33 H11       -13.8972   44.0858   44.8285 H         1 BES         0.0559
     34 H12       -11.5341   36.9037   43.0261 H         1 BES         0.0898
     35 H13        -9.2781   36.9248   43.5953 H         1 BES         0.2136
     36 H14       -12.7679   36.8719   41.2278 H         1 BES         0.1875
     37 H15       -12.3294   39.0650   39.2672 H         1 BES         0.0726
     38 H16       -13.5563   37.3169   37.6976 H         1 BES         0.0308
     39 H17       -12.8798   36.1355   38.8695 H         1 BES         0.0308
     40 H18       -10.6272   37.0935   38.4987 H         1 BES         0.0297
     41 H19       -10.2906   36.1652   36.2245 H         1 BES         0.0232
     42 H20       -12.0684   36.1769   35.9680 H         1 BES         0.0232
     43 H21       -11.3504   35.1236   37.2337 H         1 BES         0.0232
     44 H22       -11.2817   39.3705   37.7796 H         1 BES         0.0232
     45 H23       -11.9262   38.6909   36.2468 H         1 BES         0.0232
     46 H24       -10.1706   38.5796   36.6107 H         1 BES         0.0232
@<TRIPOS>BOND
     1    1    2 1  
     2    2    3 1  
     3    2   10 1  
     4    3    4 1  
     5    4    5 ar 
     6    4    6 ar 
     7    5    7 ar 
     8    6    8 ar 
     9    7    9 ar 
    10    8    9 ar 
    11   10   11 1  
    12   10   12 1  
    13   12   13 2  
    14   12   14 am 
    15   14   15 1  
    16   15   16 1  
    17   15   20 1  
    18   16   17 1  
    19   17   18 1  
    20   17   19 1  
    21   20   21 ar 
    22   20   22 ar 
    23    1   23 1  
    24    1   24 1  
    25    1   25 1  
    26    2   26 1  
    27    3   27 1  
    28    3   28 1  
    29    5   29 1  
    30    6   30 1  
    31    7   31 1  
    32    8   32 1  
    33    9   33 1  
    34   10   34 1  
    35   11   35 1  
    36   14   36 1  
    37   15   37 1  
    38   16   38 1  
    39   16   39 1  
    40   17   40 1  
    41   18   41 1  
    42   18   42 1  
    43   18   43 1  
    44   19   44 1  
    45   19   45 1  
    46   19   46 1  
@<TRIPOS>SUBSTRUCTURE
     1 BES         1

