### 
### Created by X-TOOL on Mon Sep 10 21:13:13 2018
### 

@<TRIPOS>MOLECULE
4kyh_ligand
   40    43     1     0     0
SMALL
GAST_HUCK


@<TRIPOS>ATOM
      1 C1         -5.0530   14.0640   -0.7170 C.2       1 ZST         0.2414
      2 O1         -6.1380   14.5980   -0.7280 O.2       1 ZST        -0.3934
      3 C2         -4.7730   12.8930    0.1170 C.ar      1 ZST         0.0614
      4 C3         -3.5290   12.2250    0.0300 C.ar      1 ZST         0.0124
      5 C4         -2.5260   12.8100   -0.9090 C.2       1 ZST         0.0682
      6 C5         -5.7740   12.3970    0.9600 C.ar      1 ZST        -0.0440
      7 C6         -5.5560   11.2380    1.6860 C.ar      1 ZST        -0.0589
      8 C7         -4.3490   10.5660    1.5820 C.ar      1 ZST        -0.0598
      9 C8         -3.3350   11.0550    0.7640 C.ar      1 ZST        -0.0505
     10 N1         -3.9710   14.5020   -1.5860 N.am      1 ZST        -0.1364
     11 N2         -2.7350   13.8550   -1.6450 N.2       1 ZST        -0.1777
     12 C9         -4.1750   15.6570   -2.4450 C.3       1 ZST         0.1493
     13 C10        -4.0950   16.9250   -1.6500 C.2       1 ZST         0.1366
     14 C11        -3.3380   18.6480   -0.1060 C.ar      1 ZST         0.0829
     15 C12        -4.5900   18.8560   -0.6970 C.ar      1 ZST         0.0542
     16 C13        -2.8020   19.5640    0.7940 C.ar      1 ZST        -0.0213
     17 C14        -3.5230   20.7110    1.0720 C.ar      1 ZST        -0.0427
     18 C15        -4.7540   20.9460    0.4740 C.ar      1 ZST         0.0359
     19 C16        -5.2980   20.0160   -0.4100 C.ar      1 ZST        -0.0255
     20 N3         -5.0010   17.8440   -1.5690 N.2       1 ZST        -0.2959
     21 S1         -2.6540   17.1730   -0.6910 S.3       1 ZST         0.0334
     22 C17        -1.1390   12.2140   -1.0160 C.3       1 ZST         0.0458
     23 C18        -0.3280   12.3220    0.2530 C.2       1 ZST         0.0463
     24 O2         -0.8250   13.1350    1.1520 O.co2     1 ZST        -0.5666
     25 O3          0.6940   11.6850    0.4360 O.co2     1 ZST        -0.5666
     26 C19        -5.4900   22.1960    0.7790 C.3       1 ZST         0.3698
     27 F1         -6.5580   21.9620    1.5400 F         1 ZST        -0.2248
     28 F2         -4.7060   22.9820    1.4370 F         1 ZST        -0.2248
     29 F3         -5.8900   22.9080   -0.3210 F         1 ZST        -0.2248
     30 H1         -6.7198   12.9199    1.0447 H         1 ZST         0.0659
     31 H2         -6.3327   10.8552    2.3381 H         1 ZST         0.0609
     32 H3         -4.1931    9.6514    2.1426 H         1 ZST         0.0642
     33 H4         -2.3917   10.5251    0.6971 H         1 ZST         0.0617
     34 H5         -5.1668   15.5871   -2.9156 H         1 ZST         0.0915
     35 H6         -3.3992   15.6694   -3.2247 H         1 ZST         0.0915
     36 H7         -1.8429   19.3830    1.2656 H         1 ZST         0.0649
     37 H8         -3.1207   21.4383    1.7679 H         1 ZST         0.0766
     38 H9         -6.2635   20.1960   -0.8688 H         1 ZST         0.0820
     39 H10        -0.5981   12.7370   -1.8184 H         1 ZST         0.0585
     40 H11        -1.2383   11.1493   -1.2741 H         1 ZST         0.0585
@<TRIPOS>BOND
     1    1    2 2  
     2    1    3 1  
     3   10    1 am 
     4    3    4 ar 
     5    3    6 ar 
     6    5    4 1  
     7    4    9 ar 
     8   11    5 2  
     9    5   22 1  
    10    6    7 ar 
    11    7    8 ar 
    12    9    8 ar 
    13   10   11 1  
    14   12   10 1  
    15   13   12 1  
    16   13   20 2  
    17   21   13 1  
    18   14   15 ar 
    19   14   16 ar 
    20   14   21 1  
    21   15   19 ar 
    22   15   20 1  
    23   16   17 ar 
    24   17   18 ar 
    25   18   19 ar 
    26   18   26 1  
    27   22   23 1  
    28   23   24 ar 
    29   23   25 ar 
    30   26   27 1  
    31   26   28 1  
    32   26   29 1  
    33    6   30 1  
    34    7   31 1  
    35    8   32 1  
    36    9   33 1  
    37   12   34 1  
    38   12   35 1  
    39   16   36 1  
    40   17   37 1  
    41   19   38 1  
    42   22   39 1  
    43   22   40 1  
@<TRIPOS>SUBSTRUCTURE
     1 ZST         1

