### 
### Created by X-TOOL on Mon Sep 10 21:13:14 2018
### 

@<TRIPOS>MOLECULE
4kyk_ligand
   40    42     1     0     0
SMALL
GAST_HUCK


@<TRIPOS>ATOM
      1 C          20.6010   13.9640   61.0470 C.ar      1 IMN         0.0787
      2 C1         20.5860   15.1390   60.2820 C.ar      1 IMN        -0.0393
      3 C2         20.4870   15.0430   58.8970 C.ar      1 IMN        -0.0562
      4 C3         20.4090   13.7890   58.3050 C.ar      1 IMN         0.0670
      5 C4         20.4350   12.6310   59.0700 C.ar      1 IMN        -0.0504
      6 C5         20.5320   12.7130   60.4470 C.ar      1 IMN        -0.0495
      7 C6         20.2140   12.4240   56.3570 C.3       1 IMN         0.0564
      8 C7         20.6680   16.2440   61.1970 C.2       1 IMN        -0.0396
      9 C8         20.7100   15.7530   62.4570 C.2       1 IMN         0.0648
     10 C9         20.7790   13.4600   63.5280 C.2       1 IMN         0.2697
     11 C10        19.8850   12.2610   63.5980 C.ar      1 IMN         0.0658
     12 C11        20.3250   11.1460   64.3000 C.ar      1 IMN        -0.0401
     13 C12        19.5440   10.0110   64.3890 C.ar      1 IMN        -0.0421
     14 C13        18.3190    9.9840   63.7590 C.ar      1 IMN         0.0451
     15 C14        17.8480   11.0830   63.0720 C.ar      1 IMN        -0.0421
     16 C15        18.6310   12.2190   62.9950 C.ar      1 IMN        -0.0401
     17 C16        20.7540   16.5110   63.7390 C.3       1 IMN        -0.0090
     18 C17        20.7380   17.6940   60.7970 C.3       1 IMN         0.0085
     19 C18        19.4750   18.1200   60.0980 C.2       1 IMN         0.0372
     20 N          20.6820   14.3510   62.4100 N.am      1 IMN        -0.1828
     21 O          20.3000   13.7190   56.9410 O.3       1 IMN        -0.3319
     22 O1         21.5920   13.6680   64.4080 O.2       1 IMN        -0.3512
     23 O2         19.4550   18.7500   59.0700 O.co2     1 IMN        -0.5679
     24 O3         18.4060   17.7310   60.7020 O.co2     1 IMN        -0.5679
     25 CL         17.3840    8.5140   63.7740 Cl        1 IMN        -0.0665
     26 H1         20.4709   15.9384   58.2862 H         1 IMN         0.0397
     27 H2         20.3792   11.6618   58.5877 H         1 IMN         0.0444
     28 H3         20.5539   11.8127   61.0504 H         1 IMN         0.0515
     29 H4         20.1314   12.5193   55.2643 H         1 IMN         0.0572
     30 H5         19.3271   11.9037   56.7477 H         1 IMN         0.0572
     31 H6         21.1170   11.8481   56.6075 H         1 IMN         0.0572
     32 H7         21.2945   11.1673   64.7844 H         1 IMN         0.0670
     33 H8         19.8910    9.1500   64.9488 H         1 IMN         0.0634
     34 H9         16.8738   11.0560   62.5974 H         1 IMN         0.0634
     35 H10        18.2647   13.0871   62.4591 H         1 IMN         0.0670
     36 H11        20.7698   17.5902   63.5265 H         1 IMN         0.0401
     37 H12        21.6601   16.2340   64.2978 H         1 IMN         0.0401
     38 H13        19.8646   16.2685   64.3391 H         1 IMN         0.0401
     39 H14        21.5916   17.8397   60.1187 H         1 IMN         0.0476
     40 H15        20.8762   18.3099   61.6979 H         1 IMN         0.0476
@<TRIPOS>BOND
     1    1    2 ar 
     2    1    6 ar 
     3   20    1 1  
     4    2    3 ar 
     5    8    2 1  
     6    3    4 ar 
     7    5    4 ar 
     8    4   21 1  
     9    6    5 ar 
    10   21    7 1  
    11    9    8 2  
    12    8   18 1  
    13    9   17 1  
    14   20    9 1  
    15   10   11 1  
    16   10   20 am 
    17   10   22 2  
    18   11   12 ar 
    19   11   16 ar 
    20   12   13 ar 
    21   13   14 ar 
    22   14   15 ar 
    23   14   25 1  
    24   15   16 ar 
    25   18   19 1  
    26   19   23 ar 
    27   19   24 ar 
    28    3   26 1  
    29    5   27 1  
    30    6   28 1  
    31    7   29 1  
    32    7   30 1  
    33    7   31 1  
    34   12   32 1  
    35   13   33 1  
    36   15   34 1  
    37   16   35 1  
    38   17   36 1  
    39   17   37 1  
    40   17   38 1  
    41   18   39 1  
    42   18   40 1  
@<TRIPOS>SUBSTRUCTURE
     1 IMN         1

