### 
### Created by X-TOOL on Mon Sep 10 21:13:15 2018
### 

@<TRIPOS>MOLECULE
4kz0_ligand
   27    28     1     0     0
SMALL
GAST_HUCK


@<TRIPOS>ATOM
      1 O2         15.6280   15.2270   22.0480 O.2       1 1UJ        -0.3785
      2 C7         15.2040   14.3240   22.7660 C.2       1 1UJ         0.2155
      3 C8         13.7410   14.1680   23.0620 C.3       1 1UJ         0.0345
      4 N1         16.0290   13.3940   23.3640 N.am      1 1UJ        -0.1881
      5 C6         17.3860   13.2310   23.1480 C.2       1 1UJ         0.2141
      6 N          18.0510   12.3450   23.8380 N.2       1 1UJ        -0.3052
      7 S          18.2870   14.1570   21.9670 S.3       1 1UJ         0.0325
      8 C9         19.7100   13.2700   22.4320 C.ar      1 1UJ         0.0535
      9 C5         19.3920   12.3560   23.4450 C.ar      1 1UJ         0.0116
     10 C4         20.4020   11.5460   23.9630 C.ar      1 1UJ        -0.0590
     11 C3         21.6900   11.6550   23.4570 C.ar      1 1UJ        -0.0557
     12 C10        20.9950   13.3770   21.9160 C.ar      1 1UJ        -0.0329
     13 C2         21.9970   12.5530   22.4300 C.ar      1 1UJ         0.0477
     14 C1         23.3650   12.5760   21.8170 C.2       1 1UJ         0.2544
     15 O1         24.3150   11.9630   22.2440 O.2       1 1UJ        -0.3617
     16 O          23.4290   13.3810   20.7470 O.3       1 1UJ        -0.2823
     17 C          24.6660   13.3730   19.9880 C.3       1 1UJ         0.0645
     18 H1         13.5907   13.2998   23.7205 H         1 1UJ         0.0475
     19 H2         13.1910   14.0146   22.1218 H         1 1UJ         0.0475
     20 H3         13.3690   15.0751   23.5607 H         1 1UJ         0.0475
     21 H4         15.6021   12.7734   24.0217 H         1 1UJ         0.2457
     22 H5         20.1833   10.8375   24.7538 H         1 1UJ         0.0540
     23 H6         22.4752   11.0302   23.8671 H         1 1UJ         0.0594
     24 H7         21.2156   14.0880   21.1280 H         1 1UJ         0.0610
     25 H8         24.5827   14.0732   19.1437 H         1 1UJ         0.0575
     26 H9         24.8553   12.3590   19.6060 H         1 1UJ         0.0575
     27 H10        25.4976   13.6808   20.6389 H         1 1UJ         0.0575
@<TRIPOS>BOND
     1    1    2 2  
     2    2    3 1  
     3    2    4 am 
     4    4    5 1  
     5    5    6 2  
     6    5    7 1  
     7    6    9 1  
     8    7    8 1  
     9    8    9 ar 
    10    8   12 ar 
    11    9   10 ar 
    12   10   11 ar 
    13   11   13 ar 
    14   12   13 ar 
    15   13   14 1  
    16   14   15 2  
    17   14   16 1  
    18   16   17 1  
    19    3   18 1  
    20    3   19 1  
    21    3   20 1  
    22    4   21 1  
    23   10   22 1  
    24   11   23 1  
    25   12   24 1  
    26   17   25 1  
    27   17   26 1  
    28   17   27 1  
@<TRIPOS>SUBSTRUCTURE
     1 1UJ         1

