### 
### Created by X-TOOL on Mon Sep 10 21:13:16 2018
### 

@<TRIPOS>MOLECULE
4kz3_ligand
   16    16     1     0     0
SMALL
GAST_HUCK


@<TRIPOS>ATOM
      1 C01        23.3320    6.2570   10.2560 C.2       1 1U1        -0.0308
      2 C02        22.2480    5.8210    9.4180 C.2       1 1U1         0.1081
      3 C03        21.5220    4.8390   10.0820 C.2       1 1U1         0.0873
      4 S04        22.1480    4.4870   11.6350 S.3       1 1U1        -0.0178
      5 C05        23.4120    5.6440   11.4530 C.2       1 1U1         0.1001
      6 CL6        24.5210    5.8440   12.7080 Cl        1 1U1        -0.0539
      7 C07        20.2940    3.9780    9.5560 C.2       1 1U1         0.0701
      8 O08        19.6900    3.4150   10.4900 O.co2     1 1U1        -0.5627
      9 O09        19.9920    4.0420    8.3650 O.co2     1 1U1        -0.5627
     10 S10        21.9560    6.4890    7.9240 S.o2      1 1U1         0.0583
     11 O11        22.9510    7.4790    7.6590 O.2       1 1U1        -0.1526
     12 O12        20.5980    6.8840    7.8010 O.2       1 1U1        -0.1526
     13 N13        22.2860    5.3180    6.7870 N.am      1 1U1        -0.2627
     14 H          24.0371    7.0268    9.9457 H         1 1U1         0.0453
     15 H          22.1726    5.5196    5.8141 H         1 1U1         0.1633
     16 H          22.5976    4.4131    7.0771 H         1 1U1         0.1633
@<TRIPOS>BOND
     1    1    2 1  
     2    1    5 2  
     3    2    3 2  
     4    2   10 1  
     5    3    4 1  
     6    3    7 1  
     7    4    5 1  
     8    5    6 1  
     9    7    8 ar 
    10    7    9 ar 
    11   10   11 2  
    12   10   12 2  
    13   10   13 am 
    14    1   14 1  
    15   13   15 1  
    16   13   16 1  
@<TRIPOS>SUBSTRUCTURE
     1 1U1         1

