### 
### Created by X-TOOL on Mon Sep 10 21:13:16 2018
### 

@<TRIPOS>MOLECULE
4kz4_ligand
   28    28     1     0     0
SMALL
GAST_HUCK


@<TRIPOS>ATOM
      1 C01        80.4970    4.4730   33.4750 C.3       1 4A1        -0.0342
      2 C02        81.2300    5.2860   34.5540 C.3       1 4A1        -0.0637
      3 C1         78.9760    5.8330   28.0070 C.ar      1 4A1         0.0261
      4 N1         79.0730    4.8180   30.1470 N.am      1 4A1        -0.1879
      5 O1         78.5440    3.4980   28.0710 O.co2     1 4A1        -0.5662
      6 S1         78.5060    4.5280   31.6450 S.o2      1 4A1         0.0611
      7 C2         79.0270    5.9940   29.3890 C.ar      1 4A1         0.0776
      8 O2         79.3260    4.4240   26.1910 O.co2     1 4A1        -0.5662
      9 C3         79.0540    7.2690   29.9110 C.ar      1 4A1        -0.0414
     10 O3         77.2160    5.0940   31.6190 O.2       1 4A1        -0.1496
     11 C4         79.0270    8.3560   29.0890 C.ar      1 4A1        -0.0750
     12 O4         78.7190    3.1470   31.8620 O.2       1 4A1        -0.1496
     13 C5         78.9680    8.2090   27.7200 C.ar      1 4A1        -0.0754
     14 C6         78.9460    6.9560   27.1970 C.ar      1 4A1        -0.0634
     15 C7         78.9340    4.4740   27.4370 C.2       1 4A1         0.0531
     16 C8         79.5670    5.4240   32.6980 C.3       1 4A1         0.0900
     17 H          79.9031    3.6774   33.9486 H         1 4A1         0.0279
     18 H          81.2285    4.0243   32.7868 H         1 4A1         0.0279
     19 H          81.9002    4.6229   35.1206 H         1 4A1         0.0230
     20 H          80.4945    5.7350   35.2377 H         1 4A1         0.0230
     21 H          81.8199    6.0819   34.0759 H         1 4A1         0.0230
     22 H          79.5201    4.0417   29.7027 H         1 4A1         0.2181
     23 H          79.0971    7.4088   30.9851 H         1 4A1         0.0490
     24 H          79.0523    9.3509   29.5185 H         1 4A1         0.0593
     25 H          78.9397    9.0778   27.0724 H         1 4A1         0.0480
     26 H          78.9040    6.8319   26.1209 H         1 4A1         0.0606
     27 H          80.1773    6.1120   32.0945 H         1 4A1         0.0524
     28 H          78.9623    6.0012   33.4130 H         1 4A1         0.0524
@<TRIPOS>BOND
     1    1    2 1  
     2   16    1 1  
     3    7    3 ar 
     4    3   14 ar 
     5    3   15 1  
     6    6    4 am 
     7    4    7 1  
     8   15    5 ar 
     9    6   10 2  
    10    6   12 2  
    11    6   16 1  
    12    7    9 ar 
    13   15    8 ar 
    14    9   11 ar 
    15   11   13 ar 
    16   13   14 ar 
    17    1   17 1  
    18    1   18 1  
    19    2   19 1  
    20    2   20 1  
    21    2   21 1  
    22    4   22 1  
    23    9   23 1  
    24   11   24 1  
    25   13   25 1  
    26   14   26 1  
    27   16   27 1  
    28   16   28 1  
@<TRIPOS>SUBSTRUCTURE
     1 4A1         1

