### 
### Created by X-TOOL on Mon Sep 10 21:13:16 2018
### 

@<TRIPOS>MOLECULE
4kz5_ligand
   30    31     1     0     0
SMALL
GAST_HUCK


@<TRIPOS>ATOM
      1 C01        24.7410    7.6930   17.7630 C.3       1 1U3         0.0166
      2 C02        24.8750    7.1760   16.3540 C.2       1 1U3         0.1630
      3 C03        23.8500    6.8450   15.4600 C.2       1 1U3         0.0870
      4 C04        24.4770    6.4130   14.2890 C.2       1 1U3         0.0647
      5 N05        25.8050    6.4850   14.4550 N.2       1 1U3        -0.1444
      6 O06        26.0540    6.9520   15.7230 O.3       1 1U3        -0.1564
      7 C07        23.8840    5.9950   13.1070 C.ar      1 1U3         0.0016
      8 C08        23.6880    4.6470   12.8300 C.ar      1 1U3        -0.0541
      9 C09        23.1010    4.2900   11.6260 C.ar      1 1U3        -0.0617
     10 C10        22.7130    5.2640   10.7130 C.ar      1 1U3        -0.0618
     11 C11        22.9140    6.6090   10.9990 C.ar      1 1U3        -0.0479
     12 C12        23.5000    6.9750   12.2010 C.ar      1 1U3         0.0476
     13 CL1        23.7590    8.6460   12.5900 Cl        1 1U3        -0.0700
     14 C14        22.3470    6.9130   15.6690 C.2       1 1U3         0.1816
     15 O15        21.8610    7.6180   16.5490 O.2       1 1U3        -0.4041
     16 N16        21.4860    6.1460   14.8210 N.am      1 1U3        -0.2794
     17 C17        20.0460    6.1600   14.9430 C.3       1 1U3         0.0819
     18 C18        19.3540    6.2540   13.6210 C.2       1 1U3         0.0568
     19 O19        20.0240    6.0450   12.5650 O.co2     1 1U3        -0.5669
     20 O20        18.1290    6.5410   13.5680 O.co2     1 1U3        -0.5669
     21 H          25.7414    7.8530   18.1915 H         1 1U3         0.0477
     22 H          24.1942    6.9586   18.3726 H         1 1U3         0.0477
     23 H          24.1897    8.6448   17.7535 H         1 1U3         0.0477
     24 H          23.9890    3.8881   13.5431 H         1 1U3         0.0618
     25 H          22.9432    3.2428   11.3945 H         1 1U3         0.0617
     26 H          22.2525    4.9736    9.7756 H         1 1U3         0.0613
     27 H          22.6141    7.3682   10.2858 H         1 1U3         0.0622
     28 H          21.8995    5.5746   14.1121 H         1 1U3         0.1853
     29 H          19.7534    7.0258   15.5552 H         1 1U3         0.0688
     30 H          19.7264    5.2332   15.4419 H         1 1U3         0.0688
@<TRIPOS>BOND
     1    1    2 1  
     2    2    3 2  
     3    2    6 1  
     4    3    4 1  
     5    3   14 1  
     6    4    5 2  
     7    4    7 1  
     8    5    6 1  
     9    7    8 ar 
    10    7   12 ar 
    11    8    9 ar 
    12    9   10 ar 
    13   10   11 ar 
    14   11   12 ar 
    15   12   13 1  
    16   14   15 2  
    17   14   16 am 
    18   16   17 1  
    19   17   18 1  
    20   18   19 ar 
    21   18   20 ar 
    22    1   21 1  
    23    1   22 1  
    24    1   23 1  
    25    8   24 1  
    26    9   25 1  
    27   10   26 1  
    28   11   27 1  
    29   16   28 1  
    30   17   29 1  
    31   17   30 1  
@<TRIPOS>SUBSTRUCTURE
     1 1U3         1

