### 
### Created by X-TOOL on Mon Sep 10 21:13:16 2018
### 

@<TRIPOS>MOLECULE
4kz6_ligand
   31    31     1     0     0
SMALL
GAST_HUCK


@<TRIPOS>ATOM
      1 C01        77.5190    7.7140   27.7450 C.3       1 ZB6        -0.0416
      2 C02        78.6890    8.0180   28.6170 C.3       1 ZB6         0.0443
      3 C03        79.7050    8.7710   27.8320 C.3       1 ZB6        -0.0296
      4 C04        80.4910    7.8630   26.9150 C.3       1 ZB6        -0.0473
      5 C05        81.0330    6.6590   27.6580 C.3       1 ZB6        -0.0176
      6 C06        79.9970    5.9440   28.4670 C.3       1 ZB6         0.0973
      7 N07        79.2190    6.8560   29.2340 N.am      1 ZB6        -0.2547
      8 C08        78.9240    6.7150   30.6490 C.2       1 ZB6         0.1812
      9 O09        78.2490    7.5910   31.1600 O.2       1 ZB6        -0.3967
     10 C10        79.3740    5.6000   31.5390 C.3       1 ZB6         0.0463
     11 C11        79.6960    5.9550   32.9530 C.3       1 ZB6         0.0075
     12 S12        80.7500    4.8300   33.8170 S.3       1 ZB6        -0.1759
     13 C13        79.2240    4.9870   27.6060 C.2       1 ZB6         0.0603
     14 O14        79.5640    4.8490   26.3960 O.co2     1 ZB6        -0.5666
     15 O15        78.2320    4.3340   28.0800 O.co2     1 ZB6        -0.5666
     16 H          77.1473    8.6451   27.2924 H         1 ZB6         0.0252
     17 H          76.7214    7.2556   28.3481 H         1 ZB6         0.0252
     18 H          77.8248    7.0170   26.9509 H         1 ZB6         0.0252
     19 H          78.3394    8.6778   29.4248 H         1 ZB6         0.0557
     20 H          80.4005    9.2624   28.5283 H         1 ZB6         0.0287
     21 H          79.1935    9.5331   27.2257 H         1 ZB6         0.0287
     22 H          81.3325    8.4280   26.4876 H         1 ZB6         0.0268
     23 H          79.8328    7.5165   26.1047 H         1 ZB6         0.0268
     24 H          81.8315    6.9973   28.3347 H         1 ZB6         0.0306
     25 H          81.4492    5.9541   26.9232 H         1 ZB6         0.0306
     26 H          80.5365    5.3236   29.1978 H         1 ZB6         0.0728
     27 H          80.2784    5.1617   31.0919 H         1 ZB6         0.0510
     28 H          78.5729    4.8465   31.5594 H         1 ZB6         0.0510
     29 H          78.7481    6.0203   33.5072 H         1 ZB6         0.0398
     30 H          80.1869    6.9394   32.9488 H         1 ZB6         0.0398
     31 H          80.9000    5.1655   34.7557 H         1 ZB6         0.1018
@<TRIPOS>BOND
     1    1    2 1  
     2    2    3 1  
     3    2    7 1  
     4    3    4 1  
     5    4    5 1  
     6    5    6 1  
     7    6    7 1  
     8    6   13 1  
     9    7    8 am 
    10    8    9 2  
    11    8   10 1  
    12   10   11 1  
    13   11   12 1  
    14   13   14 ar 
    15   13   15 ar 
    16    1   16 1  
    17    1   17 1  
    18    1   18 1  
    19    2   19 1  
    20    3   20 1  
    21    3   21 1  
    22    4   22 1  
    23    4   23 1  
    24    5   24 1  
    25    5   25 1  
    26    6   26 1  
    27   10   27 1  
    28   10   28 1  
    29   11   29 1  
    30   11   30 1  
    31   12   31 1  
@<TRIPOS>SUBSTRUCTURE
     1 ZB6         1

