### 
### Created by X-TOOL on Mon Sep 10 21:13:16 2018
### 

@<TRIPOS>MOLECULE
4kz7_ligand
   27    28     1     0     0
SMALL
GAST_HUCK


@<TRIPOS>ATOM
      1 C01        26.1980    7.4910   16.1790 C.3       1 1U5        -0.0578
      2 C02        24.6800    7.4960   15.9710 C.3       1 1U5         0.0161
      3 C03        23.9810    8.5430   16.8470 C.3       1 1U5        -0.0578
      4 C04        24.2770    7.5940   14.4130 C.3       1 1U5         0.0671
      5 C05        24.7550    8.8040   13.6770 C.3       1 1U5        -0.0517
      6 C06        22.7740    7.2960   14.4520 C.3       1 1U5        -0.0373
      7 C07        22.6470    6.2130   15.5970 C.3       1 1U5        -0.0147
      8 C08        24.1000    6.0400   16.0700 C.3       1 1U5         0.1454
      9 C09        24.3630    5.3090   17.4040 C.2       1 1U5         0.0815
     10 O10        23.6600    5.6380   18.3760 O.co2     1 1U5        -0.5447
     11 O11        25.2490    4.4300   17.4000 O.co2     1 1U5        -0.5447
     12 O12        24.7760    5.3780   14.9820 O.3       1 1U5        -0.2662
     13 C13        24.9140    6.2900   13.9690 C.2       1 1U5         0.2619
     14 O14        25.4170    5.9640   12.9250 O.2       1 1U5        -0.3121
     15 H          26.5815    8.5194   16.1055 H         1 1U5         0.0234
     16 H          26.6719    6.8669   15.4070 H         1 1U5         0.0234
     17 H          26.4305    7.0832   17.1738 H         1 1U5         0.0234
     18 H          24.4621    9.5217   16.7030 H         1 1U5         0.0234
     19 H          24.0590    8.2480   17.9038 H         1 1U5         0.0234
     20 H          22.9206    8.6103   16.5624 H         1 1U5         0.0234
     21 H          24.4179    8.7539   12.6311 H         1 1U5         0.0221
     22 H          25.8540    8.8409   13.7066 H         1 1U5         0.0221
     23 H          24.3448    9.7077   14.1515 H         1 1U5         0.0221
     24 H          22.4270    6.8935   13.4889 H         1 1U5         0.0256
     25 H          22.1993    8.2006   14.6999 H         1 1U5         0.0256
     26 H          22.2435    5.2679   15.2046 H         1 1U5         0.0287
     27 H          22.0054    6.5745   16.4141 H         1 1U5         0.0287
@<TRIPOS>BOND
     1    1    2 1  
     2    2    3 1  
     3    2    4 1  
     4    2    8 1  
     5    4    5 1  
     6    4    6 1  
     7    4   13 1  
     8    6    7 1  
     9    7    8 1  
    10    8    9 1  
    11    8   12 1  
    12    9   10 ar 
    13    9   11 ar 
    14   12   13 1  
    15   13   14 2  
    16    1   15 1  
    17    1   16 1  
    18    1   17 1  
    19    3   18 1  
    20    3   19 1  
    21    3   20 1  
    22    5   21 1  
    23    5   22 1  
    24    5   23 1  
    25    6   24 1  
    26    6   25 1  
    27    7   26 1  
    28    7   27 1  
@<TRIPOS>SUBSTRUCTURE
     1 1U5         1

