### 
### Created by X-TOOL on Mon Sep 10 21:13:17 2018
### 

@<TRIPOS>MOLECULE
4kz8_ligand
   25    25     1     0     0
SMALL
GAST_HUCK


@<TRIPOS>ATOM
      1 C01        23.8700    8.7590   16.0970 C.3       1 1U6        -0.0359
      2 C02        23.4040    7.3540   16.2820 C.3       1 1U6         0.0695
      3 N03        22.5960    6.7670   15.2370 N.am      1 1U6        -0.1689
      4 C04        21.2530    6.8820   15.3500 C.2       1 1U6         0.2172
      5 O05        20.6770    7.5320   16.4230 O.3       1 1U6        -0.2878
      6 C06        20.4420    6.3360   14.3770 C.2       1 1U6         0.0294
      7 C07        21.0130    5.6870   13.3050 C.2       1 1U6         0.1752
      8 O08        20.2750    5.2090   12.4500 O.2       1 1U6        -0.4230
      9 N09        22.3550    5.5810   13.2030 N.am      1 1U6        -0.1895
     10 C10        22.8720    4.8830   12.0450 C.3       1 1U6         0.0598
     11 C11        23.1160    5.6950   10.8130 C.3       1 1U6        -0.0385
     12 C12        23.1630    6.1230   14.1700 C.2       1 1U6         0.2063
     13 S13        24.8340    6.0130   14.0840 S.2       1 1U6        -0.2848
     14 H          24.4690    9.0642   16.9676 H         1 1U6         0.0257
     15 H          22.9994    9.4243   15.9995 H         1 1U6         0.0257
     16 H          24.4853    8.8245   15.1875 H         1 1U6         0.0257
     17 H          22.8128    7.3242   17.2091 H         1 1U6         0.0628
     18 H          24.2986    6.7244   16.3971 H         1 1U6         0.0628
     19 H          19.7315    7.5134   16.3327 H         1 1U6         0.2637
     20 H          19.3589    6.4175   14.4559 H         1 1U6         0.0090
     21 H          22.1512    4.0940   11.7844 H         1 1U6         0.0595
     22 H          23.8290    4.4243   12.3344 H         1 1U6         0.0595
     23 H          23.5053    5.0443   10.0161 H         1 1U6         0.0255
     24 H          23.8500    6.4841   11.0333 H         1 1U6         0.0255
     25 H          22.1722    6.1538   10.4833 H         1 1U6         0.0255
@<TRIPOS>BOND
     1    1    2 1  
     2    2    3 1  
     3    3    4 1  
     4    3   12 am 
     5    4    5 1  
     6    4    6 2  
     7    6    7 1  
     8    7    8 2  
     9    7    9 am 
    10    9   10 1  
    11    9   12 am 
    12   10   11 1  
    13   12   13 2  
    14    1   14 1  
    15    1   15 1  
    16    1   16 1  
    17    2   17 1  
    18    2   18 1  
    19    5   19 1  
    20    6   20 1  
    21   10   21 1  
    22   10   22 1  
    23   11   23 1  
    24   11   24 1  
    25   11   25 1  
@<TRIPOS>SUBSTRUCTURE
     1 1U6         1

