### 
### Created by X-TOOL on Mon Sep 10 21:13:16 2018
### 

@<TRIPOS>MOLECULE
4kza_ligand
   23    24     1     0     0
SMALL
GAST_HUCK


@<TRIPOS>ATOM
      1 C01        53.2140   -0.2840   22.3440 C.2       1 NZ9        -0.0449
      2 C02        53.1900    0.9080   21.7250 C.2       1 NZ9        -0.0009
      3 S03        51.6130    1.5800   21.8000 S.3       1 NZ9        -0.0302
      4 C04        51.0940    0.3820   22.8760 C.2       1 NZ9         0.0873
      5 C05        52.0210   -0.6200   23.1140 C.2       1 NZ9         0.1073
      6 S06        51.9200   -1.9720   24.1000 S.o2      1 NZ9         0.0607
      7 O07        51.6430   -1.6270   25.4490 O.2       1 NZ9        -0.1524
      8 O08        53.0350   -2.8130   23.7950 O.2       1 NZ9        -0.1524
      9 N09        50.6240   -3.0260   23.8530 N.am      1 NZ9        -0.2461
     10 C10        50.0990   -3.3950   22.5880 C.3       1 NZ9         0.0378
     11 C11        50.4780   -2.5570   21.4060 C.3       1 NZ9        -0.0316
     12 C12        51.1050   -3.9390   21.5990 C.3       1 NZ9        -0.0316
     13 C13        49.6120    0.4920   23.3460 C.2       1 NZ9         0.0698
     14 O14        49.0140    1.5530   23.2380 O.co2     1 NZ9        -0.5629
     15 O15        49.2150   -0.5960   23.7940 O.co2     1 NZ9        -0.5629
     16 H          54.0683   -0.9559   22.2756 H         1 NZ9         0.0442
     17 H          54.0467    1.3792   21.2454 H         1 NZ9         0.0765
     18 H          50.1921   -3.4217   24.6635 H         1 NZ9         0.1674
     19 H          49.0895   -3.8219   22.6808 H         1 NZ9         0.0511
     20 H          51.0874   -1.6520   21.5458 H         1 NZ9         0.0284
     21 H          49.7538   -2.3898   20.5951 H         1 NZ9         0.0284
     22 H          50.8305   -4.7687   20.9310 H         1 NZ9         0.0284
     23 H          52.1641   -4.0309   21.8817 H         1 NZ9         0.0284
@<TRIPOS>BOND
     1    1    2 2  
     2    1    5 1  
     3    2    3 1  
     4    3    4 1  
     5    4    5 2  
     6    4   13 1  
     7    5    6 1  
     8    6    7 2  
     9    6    8 2  
    10    6    9 am 
    11    9   10 1  
    12   10   11 1  
    13   10   12 1  
    14   11   12 1  
    15   13   14 ar 
    16   13   15 ar 
    17    1   16 1  
    18    2   17 1  
    19    9   18 1  
    20   10   19 1  
    21   11   20 1  
    22   11   21 1  
    23   12   22 1  
    24   12   23 1  
@<TRIPOS>SUBSTRUCTURE
     1 NZ9         1

