### 
### Created by X-TOOL on Sat Nov 28 16:06:01 2015
### 

@<TRIPOS>MOLECULE
4kzb_ligand
   28    28     1     0     0
SMALL
GAST_HUCK


@<TRIPOS>ATOM
      1 C01        23.6380    8.1750   17.2290 C.3       1 NZ2        -0.0270
      2 C02        23.8810    6.8900   16.5110 C.3       1 NZ2         0.1155
      3 C03        23.6140    5.6750   17.3520 C.2       1 NZ2         0.0629
      4 O04        22.8030    5.7380   18.3200 O.co2     1 NZ2        -0.5664
      5 O05        24.1730    4.5750   17.0970 O.co2     1 NZ2        -0.5664
      6 N06        23.1430    6.8280   15.2840 N.am      1 NZ2        -0.1626
      7 C07        21.7020    6.8370   15.2740 C.ar      1 NZ2         0.0675
      8 C08        20.9640    5.6690   15.4850 C.ar      1 NZ2        -0.0452
      9 C09        19.5840    5.7090   15.4620 C.ar      1 NZ2        -0.0779
     10 C10        18.9240    6.9100   15.2430 C.ar      1 NZ2        -0.0792
     11 C11        19.6580    8.0660   15.0500 C.ar      1 NZ2        -0.0779
     12 C12        21.0430    8.0400   15.0510 C.ar      1 NZ2        -0.0452
     13 S13        23.8870    6.4320   13.9060 S.o2      1 NZ2         0.0612
     14 C14        23.9110    4.6790   13.6810 C.3       1 NZ2         0.0791
     15 O15        25.2490    6.9050   14.0640 O.2       1 NZ2        -0.1499
     16 O16        23.2160    7.0380   12.7880 O.2       1 NZ2        -0.1499
     17 H          24.2183    8.1883   18.1634 H         1 NZ2         0.0272
     18 H          22.5669    8.2684   17.4613 H         1 NZ2         0.0272
     19 H          23.9497    9.0157   16.5918 H         1 NZ2         0.0272
     20 H          24.9496    6.8698   16.2509 H         1 NZ2         0.0757
     21 H          21.4755    4.7307   15.6669 H         1 NZ2         0.0481
     22 H          19.0144    4.7996   15.6155 H         1 NZ2         0.0572
     23 H          17.8406    6.9417   15.2234 H         1 NZ2         0.0471
     24 H          19.1418    9.0066   14.8956 H         1 NZ2         0.0572
     25 H          21.6074    8.9494   14.8795 H         1 NZ2         0.0481
     26 H          24.4222    4.4374   12.7374 H         1 NZ2         0.0488
     27 H          22.8791    4.2996   13.6465 H         1 NZ2         0.0488
     28 H          24.4467    4.2090   14.5189 H         1 NZ2         0.0488
@<TRIPOS>BOND
     1    1    2 1  
     2    2    3 1  
     3    2    6 1  
     4    3    4 ar 
     5    3    5 ar 
     6    6    7 1  
     7    6   13 am 
     8    7    8 ar 
     9    7   12 ar 
    10    8    9 ar 
    11    9   10 ar 
    12   10   11 ar 
    13   11   12 ar 
    14   13   14 1  
    15   13   15 2  
    16   13   16 2  
    17    1   17 1  
    18    1   18 1  
    19    1   19 1  
    20    2   20 1  
    21    8   21 1  
    22    9   22 1  
    23   10   23 1  
    24   11   24 1  
    25   12   25 1  
    26   14   26 1  
    27   14   27 1  
    28   14   28 1  
@<TRIPOS>SUBSTRUCTURE
     1 NZ2         1

