### 
### Created by X-TOOL on Mon Sep 10 21:13:15 2018
### 

@<TRIPOS>MOLECULE
4kzc_ligand
   36    38     1     0     0
SMALL
GAST_HUCK


@<TRIPOS>ATOM
      1 F2         25.1360   13.3580   18.6920 F         1 1UK        -0.2315
      2 C14        26.2740   13.5650   19.3510 C.3       1 1UK         0.3701
      3 F          26.4640   14.8800   19.4020 F         1 1UK        -0.2315
      4 F1         27.2220   13.0810   18.5580 F         1 1UK        -0.2315
      5 C12        26.2800   12.9270   20.7150 C.ar      1 1UK         0.0882
      6 C11        27.3920   12.1870   21.3170 C.ar      1 1UK         0.1473
      7 N4         28.5870   12.1170   20.7240 N.pl3     1 1UK        -0.3009
      8 N3         27.2400   11.5760   22.5150 N.ar      1 1UK        -0.2474
      9 C10        26.0670   11.6610   23.1560 C.ar      1 1UK         0.0310
     10 C13        25.0960   13.0060   21.4470 C.ar      1 1UK        -0.0216
     11 C9         24.9690   12.3650   22.6780 C.ar      1 1UK         0.0206
     12 C5         23.6460   12.3170   23.3720 C.2       1 1UK         0.0229
     13 C4         22.6120   13.1820   23.0070 C.2       1 1UK         0.0856
     14 C6         23.4120   11.3780   24.4520 C.2       1 1UK        -0.0557
     15 C7         22.2270   11.2640   25.0920 C.2       1 1UK        -0.0214
     16 C8         21.1590   12.1060   24.6980 C.2       1 1UK         0.1269
     17 N1         21.3870   13.0730   23.6550 N.pl3     1 1UK        -0.2211
     18 C3         20.2010   13.7400   23.4420 C.2       1 1UK         0.0648
     19 N2         19.8940   12.1480   25.1120 N.2       1 1UK        -0.3216
     20 C2         19.2790   13.1530   24.3360 C.2       1 1UK         0.0946
     21 N          17.9200   13.3810   24.5400 N.am      1 1UK        -0.2410
     22 C1         17.1150   14.3470   23.9980 C.2       1 1UK         0.1964
     23 O          17.5570   15.2530   23.2980 O.2       1 1UK        -0.3873
     24 C          15.6660   14.2630   24.3740 C.3       1 1UK         0.0308
     25 H1         29.3524   11.5901   21.1684 H         1 1UK         0.1931
     26 H2         28.7430   12.5899   19.8224 H         1 1UK         0.1931
     27 H3         25.9684   11.1489   24.1063 H         1 1UK         0.1012
     28 H4         24.2616   13.5746   21.0527 H         1 1UK         0.0879
     29 H5         22.7627   13.9286   22.2286 H         1 1UK         0.1203
     30 H6         24.2320   10.7324   24.7629 H         1 1UK         0.0618
     31 H7         22.0963   10.5393   25.8943 H         1 1UK         0.0561
     32 H8         20.0143   14.5473   22.7354 H         1 1UK         0.0583
     33 H9         17.4687   12.7503   25.1713 H         1 1UK         0.2204
     34 H10        15.1131   15.0802   23.8877 H         1 1UK         0.0471
     35 H11        15.5648   14.3507   25.4658 H         1 1UK         0.0471
     36 H12        15.2570   13.2966   24.0442 H         1 1UK         0.0471
@<TRIPOS>BOND
     1    1    2 1  
     2    2    3 1  
     3    2    4 1  
     4    2    5 1  
     5    5    6 ar 
     6    5   10 ar 
     7    6    7 1  
     8    6    8 ar 
     9    8    9 ar 
    10    9   11 ar 
    11   10   11 ar 
    12   11   12 1  
    13   12   13 2  
    14   12   14 1  
    15   13   17 1  
    16   14   15 2  
    17   15   16 1  
    18   16   17 1  
    19   16   19 2  
    20   17   18 1  
    21   18   20 2  
    22   19   20 1  
    23   20   21 1  
    24   21   22 am 
    25   22   23 2  
    26   22   24 1  
    27    7   25 1  
    28    7   26 1  
    29    9   27 1  
    30   10   28 1  
    31   13   29 1  
    32   14   30 1  
    33   15   31 1  
    34   18   32 1  
    35   21   33 1  
    36   24   34 1  
    37   24   35 1  
    38   24   36 1  
@<TRIPOS>SUBSTRUCTURE
     1 1UK         1

