### 
### Created by X-TOOL on Mon Sep 10 21:13:13 2018
### 

@<TRIPOS>MOLECULE
4kzl_ligand
   27    29     1     0     0
SMALL
GAST_HUCK


@<TRIPOS>ATOM
      1 CAJ        -7.4930  -38.2130   12.9610 C.2       1 20D         0.0102
      2 CAG        -7.4790  -37.9220   14.3150 C.2       1 20D         0.1115
      3 OAK        -8.2570  -38.4830   15.1300 O.2       1 20D        -0.4156
      4 CAF        -6.6260  -36.8830   14.7380 C.ar      1 20D         0.0595
      5 CAA        -6.4880  -36.6180   16.0900 C.ar      1 20D        -0.0507
      6 CAB        -5.6410  -35.5940   16.5350 C.ar      1 20D        -0.0657
      7 CAC        -4.9320  -34.7930   15.6280 C.ar      1 20D        -0.0640
      8 CAD        -5.0660  -35.0760   14.2740 C.ar      1 20D        -0.0194
      9 CAE        -5.8940  -36.1140   13.8270 C.ar      1 20D         0.1451
     10 OAH        -5.9860  -36.3910   12.4760 O.3       1 20D        -0.2363
     11 CAI        -6.7130  -37.4800   12.0490 C.2       1 20D         0.1418
     12 CAL        -6.6690  -37.7220   10.6400 C.ar      1 20D         0.0274
     13 CAM        -5.8820  -36.8980    9.8310 C.ar      1 20D        -0.0460
     14 CAN        -5.8130  -37.0880    8.4640 C.ar      1 20D        -0.0225
     15 CAO        -6.5070  -38.1300    7.8450 C.ar      1 20D         0.1377
     16 FAR        -6.4220  -38.2650    6.5290 F         1 20D        -0.1791
     17 CAP        -7.2970  -38.9770    8.6120 C.ar      1 20D        -0.0225
     18 CAQ        -7.3960  -38.7630    9.9880 C.ar      1 20D        -0.0460
     19 H1         -8.1200  -39.0250   12.5957 H         1 20D         0.0409
     20 H2         -7.0407  -37.2086   16.8116 H         1 20D         0.0640
     21 H3         -5.5319  -35.4179   17.5990 H         1 20D         0.0551
     22 H4         -4.3012  -33.9811   15.9713 H         1 20D         0.0628
     23 H5         -4.5196  -34.4824   13.5501 H         1 20D         0.0575
     24 H6         -5.3143  -36.0937   10.2848 H         1 20D         0.0654
     25 H7         -5.2104  -36.4173    7.8623 H         1 20D         0.0617
     26 H8         -7.8318  -39.7968    8.1462 H         1 20D         0.0617
     27 H9         -8.0420  -39.4043   10.5767 H         1 20D         0.0654
@<TRIPOS>BOND
     1    1    2 1  
     2    1   11 2  
     3    2    3 2  
     4    2    4 1  
     5    4    5 ar 
     6    4    9 ar 
     7    5    6 ar 
     8    6    7 ar 
     9    7    8 ar 
    10    8    9 ar 
    11    9   10 1  
    12   10   11 1  
    13   11   12 1  
    14   12   13 ar 
    15   12   18 ar 
    16   13   14 ar 
    17   14   15 ar 
    18   15   16 1  
    19   15   17 ar 
    20   17   18 ar 
    21    1   19 1  
    22    5   20 1  
    23    6   21 1  
    24    7   22 1  
    25    8   23 1  
    26   13   24 1  
    27   14   25 1  
    28   17   26 1  
    29   18   27 1  
@<TRIPOS>SUBSTRUCTURE
     1 20D         1

