### 
### Created by X-TOOL on Mon Sep 10 21:13:13 2018
### 

@<TRIPOS>MOLECULE
4kzu_ligand
   27    29     1     0     0
SMALL
GAST_HUCK


@<TRIPOS>ATOM
      1 CAB        -7.7340   38.1610  -12.9490 C.2       1 A73         0.0137
      2 CAD        -7.6420   37.8740  -14.2980 C.2       1 A73         0.1142
      3 OAH        -8.4190   38.4630  -15.0510 O.2       1 A73        -0.4138
      4 CAE        -6.7690   36.8540  -14.7060 C.ar      1 A73         0.0601
      5 CAO        -6.5940   36.5230  -16.0290 C.ar      1 A73        -0.0506
      6 CAQ        -5.7040   35.4880  -16.3930 C.ar      1 A73        -0.0656
      7 CAR        -4.9710   34.7660  -15.4320 C.ar      1 A73        -0.0640
      8 CAP        -5.1610   35.0940  -14.0880 C.ar      1 A73        -0.0194
      9 CAF        -6.0290   36.1290  -13.7480 C.ar      1 A73         0.1453
     10 OAC        -6.1370   36.4590  -12.4280 O.3       1 A73        -0.2352
     11 CAA        -6.9120   37.4980  -12.0370 C.2       1 A73         0.1463
     12 CAG        -6.9310   37.6940  -10.6530 C.ar      1 A73         0.0332
     13 CAI        -6.2480   36.7750   -9.8480 C.ar      1 A73        -0.0425
     14 CAM        -6.2460   36.9350   -8.4790 C.ar      1 A73        -0.0478
     15 CAK        -6.9340   38.0140   -7.8960 C.ar      1 A73         0.0164
     16 BR1        -6.9600   38.2160   -5.9560 Br        1 A73        -0.0466
     17 CAL        -7.6110   38.9340   -8.6860 C.ar      1 A73        -0.0478
     18 CAJ        -7.6120   38.7680  -10.0550 C.ar      1 A73        -0.0425
     19 H1         -8.4480   38.9046  -12.5980 H         1 A73         0.0438
     20 H2         -7.1414   37.0586  -16.7962 H         1 A73         0.0640
     21 H3         -5.5820   35.2428  -17.4418 H         1 A73         0.0551
     22 H4         -4.2824   33.9819  -15.7255 H         1 A73         0.0628
     23 H5         -4.6360   34.5463  -13.3137 H         1 A73         0.0575
     24 H6         -5.7228   35.9410  -10.2993 H         1 A73         0.0666
     25 H7         -5.7140   36.2290   -7.8516 H         1 A73         0.0652
     26 H8         -8.1310   39.7704   -8.2331 H         1 A73         0.0652
     27 H9         -8.1457   39.4760  -10.6787 H         1 A73         0.0666
@<TRIPOS>BOND
     1    1    2 1  
     2    1   11 2  
     3    2    3 2  
     4    2    4 1  
     5    4    5 ar 
     6    4    9 ar 
     7    5    6 ar 
     8    6    7 ar 
     9    7    8 ar 
    10    8    9 ar 
    11    9   10 1  
    12   10   11 1  
    13   11   12 1  
    14   12   13 ar 
    15   12   18 ar 
    16   13   14 ar 
    17   14   15 ar 
    18   15   16 1  
    19   15   17 ar 
    20   17   18 ar 
    21    1   19 1  
    22    5   20 1  
    23    6   21 1  
    24    7   22 1  
    25    8   23 1  
    26   13   24 1  
    27   14   25 1  
    28   17   26 1  
    29   18   27 1  
@<TRIPOS>SUBSTRUCTURE
     1 A73         1

