### 
### Created by X-TOOL on Mon Sep 10 21:13:15 2018
### 

@<TRIPOS>MOLECULE
4l02_ligand
   57    60     1     0     0
SMALL
GAST_HUCK


@<TRIPOS>ATOM
      1 C13        51.9390   61.2210    9.8420 C.ar      1 1V2        -0.0442
      2 C14        52.7650   60.1980   10.2800 C.ar      1 1V2         0.0515
      3 CL1        53.0770   58.8470    9.2550 Cl        1 1V2        -0.0709
      4 C15        53.3480   60.2450   11.5390 C.ar      1 1V2         0.0512
      5 CL2        54.3670   58.9350   12.0230 Cl        1 1V2        -0.0725
      6 C16        53.1130   61.3270   12.3840 C.ar      1 1V2        -0.0503
      7 C17        52.2810   62.3580   11.9460 C.ar      1 1V2        -0.0580
      8 C12        51.6960   62.3070   10.6750 C.ar      1 1V2        -0.0248
      9 C11        50.8580   63.3220   10.2240 C.2       1 1V2         0.0065
     10 N3         50.3920   63.3730    8.9540 N.2       1 1V2        -0.3090
     11 C10        50.4270   64.3210   11.0110 C.2       1 1V2         0.0110
     12 S1         49.4370   65.3030   10.0720 S.3       1 1V2         0.0211
     13 C9         49.5950   64.4080    8.6810 C.2       1 1V2         0.1992
     14 N1         48.9930   64.7130    7.5240 N.pl3     1 1V2        -0.2405
     15 C1         49.2020   64.1650    6.3190 C.ar      1 1V2         0.0612
     16 C3         48.2590   64.4220    5.3260 C.ar      1 1V2        -0.0441
     17 C5         48.4160   63.8970    4.0470 C.ar      1 1V2        -0.0691
     18 C2         50.3160   63.3760    6.0160 C.ar      1 1V2        -0.0441
     19 C4         50.4740   62.8480    4.7320 C.ar      1 1V2        -0.0691
     20 C6         49.5210   63.1070    3.7440 C.ar      1 1V2        -0.0489
     21 C7         49.6640   62.5390    2.3220 C.3       1 1V2         0.0161
     22 C8         49.9850   61.0360    2.3070 C.3       1 1V2        -0.0234
     23 N2         49.7290   60.4280    0.9850 N.4       1 1V2         0.2404
     24 C22        50.3830   61.2480   -0.0670 C.3       1 1V2        -0.0290
     25 C21        50.1880   60.6290   -1.4590 C.3       1 1V2         0.0137
     26 C20        50.7950   59.2240   -1.4810 C.3       1 1V2         0.0652
     27 O2         50.6170   58.6340   -2.7710 O.3       1 1V2        -0.3914
     28 C19        50.1120   58.3650   -0.4120 C.3       1 1V2         0.0187
     29 C18        50.2330   59.0230    0.9820 C.3       1 1V2         0.0053
     30 C23        49.4830   58.1550    2.0130 C.3       1 1V2         0.0870
     31 O1         48.1260   57.9240    1.6200 O.3       1 1V2        -0.3895
     32 H1         51.4863   61.1747    8.8582 H         1 1V2         0.0601
     33 H2         53.5693   61.3675   13.3665 H         1 1V2         0.0615
     34 H3         52.0862   63.2045   12.5945 H         1 1V2         0.0596
     35 H4         50.6729   64.4677   12.0617 H         1 1V2         0.0674
     36 H5         48.2838   65.4588    7.5654 H         1 1V2         0.2195
     37 H6         47.3951   65.0366    5.5519 H         1 1V2         0.0521
     38 H7         47.6748   64.1041    3.2836 H         1 1V2         0.0529
     39 H8         51.0588   63.1735    6.7791 H         1 1V2         0.0521
     40 H9         51.3384   62.2357    4.5019 H         1 1V2         0.0529
     41 H10        50.4757   63.0762    1.8096 H         1 1V2         0.0457
     42 H11        48.7191   62.7013    1.7827 H         1 1V2         0.0457
     43 H12        49.3582   60.5316    3.0571 H         1 1V2         0.0836
     44 H13        51.0459   60.8969    2.5622 H         1 1V2         0.0836
     45 H14        48.7358   60.4150    0.8135 H         1 1V2         0.2038
     46 H15        51.4597   61.3142    0.1480 H         1 1V2         0.0815
     47 H16        49.9448   62.2569   -0.0590 H         1 1V2         0.0815
     48 H17        50.6870   61.2560   -2.2125 H         1 1V2         0.0342
     49 H18        49.1134   60.5679   -1.6861 H         1 1V2         0.0342
     50 H19        51.8707   59.2898   -1.2609 H         1 1V2         0.0597
     51 H20        51.0475   59.1711   -3.4258 H         1 1V2         0.2098
     52 H21        50.5899   57.3746   -0.3858 H         1 1V2         0.0346
     53 H22        49.0477   58.2520   -0.6661 H         1 1V2         0.0346
     54 H23        51.2972   59.0480    1.2591 H         1 1V2         0.0875
     55 H24        49.4903   58.6693    2.9853 H         1 1V2         0.0614
     56 H25        49.9973   57.1871    2.1062 H         1 1V2         0.0614
     57 H26        47.6740   58.7559    1.5423 H         1 1V2         0.2097
@<TRIPOS>BOND
     1    1    2 ar 
     2    1    8 ar 
     3    2    3 1  
     4    2    4 ar 
     5    4    5 1  
     6    4    6 ar 
     7    6    7 ar 
     8    7    8 ar 
     9    8    9 1  
    10    9   10 1  
    11    9   11 2  
    12   10   13 2  
    13   11   12 1  
    14   12   13 1  
    15   13   14 1  
    16   14   15 1  
    17   15   16 ar 
    18   15   18 ar 
    19   16   17 ar 
    20   17   20 ar 
    21   18   19 ar 
    22   19   20 ar 
    23   20   21 1  
    24   21   22 1  
    25   22   23 1  
    26   23   24 1  
    27   23   29 1  
    28   24   25 1  
    29   25   26 1  
    30   26   27 1  
    31   26   28 1  
    32   28   29 1  
    33   29   30 1  
    34   30   31 1  
    35    1   32 1  
    36    6   33 1  
    37    7   34 1  
    38   11   35 1  
    39   14   36 1  
    40   16   37 1  
    41   17   38 1  
    42   18   39 1  
    43   19   40 1  
    44   21   41 1  
    45   21   42 1  
    46   22   43 1  
    47   22   44 1  
    48   23   45 1  
    49   24   46 1  
    50   24   47 1  
    51   25   48 1  
    52   25   49 1  
    53   26   50 1  
    54   27   51 1  
    55   28   52 1  
    56   28   53 1  
    57   29   54 1  
    58   30   55 1  
    59   30   56 1  
    60   31   57 1  
@<TRIPOS>SUBSTRUCTURE
     1 1V2         1

