### 
### Created by X-TOOL on Mon Sep 10 21:13:12 2018
### 

@<TRIPOS>MOLECULE
4l09_ligand
   29    31     1     0     0
SMALL
GAST_HUCK


@<TRIPOS>ATOM
      1 CAK        -7.5990  -38.2820   12.9050 C.2       1 1UR         0.0136
      2 CAL        -7.5690  -37.9760   14.2660 C.2       1 1UR         0.1142
      3 OAM        -8.3430  -38.5560   15.0740 O.2       1 1UR        -0.4139
      4 CAN        -6.6830  -36.9410   14.6840 C.ar      1 1UR         0.0601
      5 CAO        -6.5000  -36.6560   16.0290 C.ar      1 1UR        -0.0506
      6 CAP        -5.6480  -35.6270   16.4200 C.ar      1 1UR        -0.0656
      7 CAQ        -4.9160  -34.8740   15.4860 C.ar      1 1UR        -0.0640
      8 CAR        -5.0670  -35.1760   14.1340 C.ar      1 1UR        -0.0194
      9 CAS        -5.9400  -36.2070   13.7630 C.ar      1 1UR         0.1453
     10 OAT        -6.0530  -36.5090   12.4280 O.3       1 1UR        -0.2353
     11 CAJ        -6.8100  -37.5520   11.9790 C.2       1 1UR         0.1461
     12 CAG        -6.7410  -37.7410   10.5560 C.ar      1 1UR         0.0330
     13 CAF        -7.4360  -38.7510    9.8500 C.ar      1 1UR        -0.0417
     14 CAE        -7.3300  -38.8820    8.4470 C.ar      1 1UR        -0.0433
     15 CAD        -6.5310  -38.0150    7.6730 C.ar      1 1UR         0.0134
     16 CAB        -6.4460  -38.1470    6.2400 C.2       1 1UR         0.0648
     17 OAC        -5.6900  -37.4710    5.5170 O.co2     1 1UR        -0.5599
     18 OAA        -7.1550  -38.9740    5.6480 O.co2     1 1UR        -0.5599
     19 CAI        -5.8470  -37.0190    8.3660 C.ar      1 1UR        -0.0433
     20 CAH        -5.9480  -36.8800    9.7640 C.ar      1 1UR        -0.0417
     21 H1         -8.2356  -39.0908   12.5493 H         1 1UR         0.0438
     22 H2         -7.0231  -37.2375   16.7795 H         1 1UR         0.0640
     23 H3         -5.5462  -35.4000   17.4751 H         1 1UR         0.0551
     24 H4         -4.2521  -34.0800   15.8085 H         1 1UR         0.0628
     25 H5         -4.5177  -34.6220   13.3814 H         1 1UR         0.0575
     26 H6         -8.0656  -39.4417   10.3991 H         1 1UR         0.0666
     27 H7         -7.8798  -39.6733    7.9503 H         1 1UR         0.0659
     28 H8         -5.2183  -36.3305    7.8130 H         1 1UR         0.0659
     29 H9         -5.3971  -36.0832   10.2504 H         1 1UR         0.0666
@<TRIPOS>BOND
     1    1    2 1  
     2    1   11 2  
     3    2    3 2  
     4    2    4 1  
     5    4    5 ar 
     6    4    9 ar 
     7    5    6 ar 
     8    6    7 ar 
     9    7    8 ar 
    10    8    9 ar 
    11    9   10 1  
    12   10   11 1  
    13   11   12 1  
    14   12   13 ar 
    15   12   20 ar 
    16   13   14 ar 
    17   14   15 ar 
    18   15   16 1  
    19   15   19 ar 
    20   16   17 ar 
    21   16   18 ar 
    22   19   20 ar 
    23    1   21 1  
    24    5   22 1  
    25    6   23 1  
    26    7   24 1  
    27    8   25 1  
    28   13   26 1  
    29   14   27 1  
    30   19   28 1  
    31   20   29 1  
@<TRIPOS>SUBSTRUCTURE
     1 1UR         1

