### 
### Created by X-TOOL on Mon Sep 10 21:13:13 2018
### 

@<TRIPOS>MOLECULE
4l0b_ligand
   35    37     1     0     0
SMALL
GAST_HUCK


@<TRIPOS>ATOM
      1 CAA         5.5600   11.4350   -5.5160 C.3       1 1UT         0.0167
      2 NAB         6.1650   10.4470   -6.4430 N.pl3     1 1UT        -0.3112
      3 CAC         6.3650    9.0730   -5.9990 C.3       1 1UT         0.0167
      4 CAD         6.3180   10.7430   -7.7860 C.ar      1 1UT         0.0468
      5 CAI         5.7340   11.8760   -8.3420 C.ar      1 1UT        -0.0370
      6 CAH         5.8800   12.1960   -9.7030 C.ar      1 1UT        -0.0546
      7 CAE         7.0110    9.8840   -8.6340 C.ar      1 1UT        -0.0370
      8 CAF         7.1260   10.1830  -10.0090 C.ar      1 1UT        -0.0546
      9 CAG         6.5780   11.3360  -10.5660 C.ar      1 1UT         0.0191
     10 CAJ         6.6690   11.6340  -11.9720 C.2       1 1UT         0.1354
     11 OAT         5.8980   12.6600  -12.3640 O.3       1 1UT        -0.2378
     12 CAS         5.8460   13.0170  -13.6880 C.ar      1 1UT         0.1448
     13 CAR         5.0130   14.0600  -14.0260 C.ar      1 1UT        -0.0195
     14 CAQ         4.8600   14.4310  -15.3850 C.ar      1 1UT        -0.0641
     15 CAP         5.5630   13.6960  -16.3740 C.ar      1 1UT        -0.0657
     16 CAO         6.4240   12.6250  -15.9920 C.ar      1 1UT        -0.0508
     17 CAN         6.5570   12.2690  -14.6450 C.ar      1 1UT         0.0585
     18 CAL         7.4230   11.2210  -14.2540 C.2       1 1UT         0.1078
     19 OAM         8.2550   10.6770  -15.0420 O.2       1 1UT        -0.4181
     20 CAK         7.4300   10.9290  -12.8960 C.2       1 1UT         0.0051
     21 H1          5.5274   11.0130   -4.5007 H         1 1UT         0.0481
     22 H2          4.5382   11.6713   -5.8478 H         1 1UT         0.0481
     23 H3          6.1659   12.3531   -5.5121 H         1 1UT         0.0481
     24 H4          6.8208    8.4879   -6.8113 H         1 1UT         0.0481
     25 H5          5.3952    8.6304   -5.7279 H         1 1UT         0.0481
     26 H6          7.0300    9.0639   -5.1229 H         1 1UT         0.0481
     27 H7          5.1490   12.5317   -7.7072 H         1 1UT         0.0536
     28 H8          5.4506   13.1134  -10.0891 H         1 1UT         0.0636
     29 H9          7.4639    8.9825   -8.2374 H         1 1UT         0.0536
     30 H10         7.6585    9.4922  -10.6527 H         1 1UT         0.0636
     31 H11         4.4748   14.5968  -13.2532 H         1 1UT         0.0575
     32 H12         4.2188   15.2596  -15.6633 H         1 1UT         0.0628
     33 H13         5.4456   13.9487  -17.4216 H         1 1UT         0.0550
     34 H14         6.9788   12.0834  -16.7496 H         1 1UT         0.0640
     35 H15         8.0582   10.1134  -12.5409 H         1 1UT         0.0369
@<TRIPOS>BOND
     1    1    2 1  
     2    2    3 1  
     3    2    4 1  
     4    4    5 ar 
     5    4    7 ar 
     6    5    6 ar 
     7    6    9 ar 
     8    7    8 ar 
     9    8    9 ar 
    10    9   10 1  
    11   10   11 1  
    12   10   20 2  
    13   11   12 1  
    14   12   13 ar 
    15   12   17 ar 
    16   13   14 ar 
    17   14   15 ar 
    18   15   16 ar 
    19   16   17 ar 
    20   17   18 1  
    21   18   19 2  
    22   18   20 1  
    23    1   21 1  
    24    1   22 1  
    25    1   23 1  
    26    3   24 1  
    27    3   25 1  
    28    3   26 1  
    29    5   27 1  
    30    6   28 1  
    31    7   29 1  
    32    8   30 1  
    33   13   31 1  
    34   14   32 1  
    35   15   33 1  
    36   16   34 1  
    37   20   35 1  
@<TRIPOS>SUBSTRUCTURE
     1 1UT         1

