### 
### Created by X-TOOL on Mon Sep 10 21:13:13 2018
### 

@<TRIPOS>MOLECULE
4l0i_ligand
   36    38     1     0     0
SMALL
GAST_HUCK


@<TRIPOS>ATOM
      1 CAV        -8.3700   37.6860   -3.5530 C.3       1 1UW        -0.0373
      2 CAS        -8.1030   38.3310   -4.9130 C.3       1 1UW         0.0729
      3 OAP        -7.2450   37.4170   -5.6210 O.3       1 1UW        -0.2776
      4 CAG        -6.1600   37.8590   -6.3240 C.2       1 1UW         0.2650
      5 OAK        -5.0990   38.0840   -5.7500 O.2       1 1UW        -0.3558
      6 CAI        -6.3010   37.7850   -7.7430 C.ar      1 1UW         0.0648
      7 CAO        -5.6410   36.7760   -8.4650 C.ar      1 1UW        -0.0367
      8 CAM        -5.7750   36.6500   -9.8460 C.ar      1 1UW        -0.0398
      9 CAN        -7.1330   38.6430   -8.4800 C.ar      1 1UW        -0.0367
     10 CAL        -7.2830   38.5150   -9.8690 C.ar      1 1UW        -0.0398
     11 CAH        -6.6100   37.5130  -10.5870 C.ar      1 1UW         0.0346
     12 CAA        -6.7020   37.3510  -11.9930 C.2       1 1UW         0.1473
     13 OAC        -5.9320   36.3360  -12.4850 O.3       1 1UW        -0.2351
     14 CAF        -5.7890   36.0920  -13.8310 C.ar      1 1UW         0.1453
     15 CAR        -4.8820   35.1050  -14.2530 C.ar      1 1UW        -0.0194
     16 CAU        -4.7220   34.8700  -15.6150 C.ar      1 1UW        -0.0640
     17 CAT        -5.4690   35.6150  -16.5420 C.ar      1 1UW        -0.0656
     18 CAQ        -6.3770   36.5870  -16.1040 C.ar      1 1UW        -0.0506
     19 CAE        -6.5670   36.8140  -14.7380 C.ar      1 1UW         0.0603
     20 CAD        -7.4480   37.8030  -14.2610 C.2       1 1UW         0.1150
     21 OAJ        -8.1480   38.4630  -15.0400 O.2       1 1UW        -0.4133
     22 CAB        -7.4700   38.1020  -12.8920 C.2       1 1UW         0.0146
     23 H1         -9.0251   38.3404   -2.9591 H         1 1UW         0.0255
     24 H2         -7.4174   37.5417   -3.0222 H         1 1UW         0.0255
     25 H3         -8.8597   36.7119   -3.6989 H         1 1UW         0.0255
     26 H4         -7.6038   39.3027   -4.7844 H         1 1UW         0.0608
     27 H5         -9.0461   38.4729   -5.4610 H         1 1UW         0.0608
     28 H6         -5.0090   36.0751   -7.9317 H         1 1UW         0.0678
     29 H7         -5.2255   35.8716  -10.3628 H         1 1UW         0.0670
     30 H8         -7.6744   39.4259   -7.9614 H         1 1UW         0.0678
     31 H9         -7.9315   39.2034  -10.3988 H         1 1UW         0.0670
     32 H10        -4.3145   34.5342  -13.5269 H         1 1UW         0.0575
     33 H11        -4.0240   34.1154  -15.9590 H         1 1UW         0.0628
     34 H12        -5.3419   35.4364  -17.6036 H         1 1UW         0.0551
     35 H13        -6.9362   37.1672  -16.8291 H         1 1UW         0.0640
     36 H14        -8.0866   38.9215  -12.5257 H         1 1UW         0.0447
@<TRIPOS>BOND
     1    1    2 1  
     2    2    3 1  
     3    3    4 1  
     4    4    5 2  
     5    4    6 1  
     6    6    7 ar 
     7    6    9 ar 
     8    7    8 ar 
     9    8   11 ar 
    10    9   10 ar 
    11   10   11 ar 
    12   11   12 1  
    13   12   13 1  
    14   12   22 2  
    15   13   14 1  
    16   14   15 ar 
    17   14   19 ar 
    18   15   16 ar 
    19   16   17 ar 
    20   17   18 ar 
    21   18   19 ar 
    22   19   20 1  
    23   20   21 2  
    24   20   22 1  
    25    1   23 1  
    26    1   24 1  
    27    1   25 1  
    28    2   26 1  
    29    2   27 1  
    30    7   28 1  
    31    8   29 1  
    32    9   30 1  
    33   10   31 1  
    34   15   32 1  
    35   16   33 1  
    36   17   34 1  
    37   18   35 1  
    38   22   36 1  
@<TRIPOS>SUBSTRUCTURE
     1 1UW         1

