### 
### Created by X-TOOL on Mon Sep 10 21:13:15 2018
### 

@<TRIPOS>MOLECULE
4l0l_ligand
   66    67     1     0     0
SMALL
GAST_HUCK


@<TRIPOS>ATOM
      1 C36        -2.3610   -0.1330  -17.7170 C.2       1 PFV         0.2600
      2 C34         0.0450    0.2600  -17.5560 C.3       1 PFV         0.1017
      3 C6         -8.2830   -1.2590  -15.0840 C.2       1 PFV         0.1485
      4 C9         -9.3100   -2.1320  -14.5240 C.2       1 PFV         0.0260
      5 O15        -6.8790    0.4900  -15.0070 O.3       1 PFV        -0.2177
      6 C18        -5.2270    2.2900  -15.0690 C.3       1 PFV        -0.0232
      7 C16        -6.3210    1.5950  -14.2510 C.3       1 PFV         0.1563
      8 C19        -5.7050    1.2680  -12.9110 C.3       1 PFV        -0.0232
      9 C26         0.8030    2.6190  -17.4970 C.2       1 PFV        -0.0155
     10 O37        -2.5590   -0.0140  -16.5150 O.2       1 PFV        -0.4007
     11 N35        -1.2070    0.3060  -18.2700 N.am      1 PFV        -0.2548
     12 C27         0.9380    1.3820  -18.0460 C.2       1 PFV         0.1178
     13 N28         1.8820    1.1170  -19.0630 N.pl3     1 PFV        -0.1214
     14 O38         2.0220   -0.1860  -19.6330 O.3       1 PFV        -0.2414
     15 C29         2.7210    2.1510  -19.5210 C.2       1 PFV         0.1049
     16 C30         2.6880    3.4390  -19.0560 C.2       1 PFV         0.1325
     17 O33         3.5090    4.4590  -19.5080 O.3       1 PFV        -0.3474
     18 C31         1.6820    3.7440  -17.9820 C.2       1 PFV         0.0928
     19 O32         1.5770    4.8710  -17.5060 O.2       1 PFV        -0.4558
     20 N4         -3.2760   -0.7200  -18.6150 N.am      1 PFV        -0.2710
     21 C3         -4.5820   -1.1480  -18.0850 C.3       1 PFV         0.0551
     22 C2         -4.5160   -2.6240  -17.6520 C.3       1 PFV         0.0932
     23 N1         -3.6170   -2.8070  -16.5220 N.am      1 PFV        -0.2714
     24 S22        -2.2070   -3.7630  -16.6400 S.o2      1 PFV        -0.1197
     25 O25        -2.6810   -5.1100  -16.8240 O.co2     1 PFV        -0.4676
     26 O24        -1.5240   -3.6860  -15.3950 O.co2     1 PFV        -0.4676
     27 O23        -1.4290   -3.2740  -17.7210 O.co2     1 PFV        -0.4676
     28 CA         -5.9200   -3.1450  -17.2510 C.3       1 PFV         0.1334
     29 C          -5.8080   -4.5780  -16.8240 C.2       1 PFV         0.1264
     30 O          -5.7890   -4.9760  -15.6460 O.2       1 PFV        -0.3724
     31 N          -6.4630   -2.4230  -16.1370 N.am      1 PFV        -0.2642
     32 C5         -7.5630   -1.6880  -16.3760 C.2       1 PFV         0.2188
     33 O7         -7.9860   -1.4220  -17.4880 O.2       1 PFV        -0.3862
     34 N8         -8.0150   -0.1590  -14.4410 N.2       1 PFV        -0.1296
     35 C17        -7.4050    2.7250  -14.0300 C.2       1 PFV         0.0845
     36 O21        -8.5290    2.6070  -14.5970 O.co2     1 PFV        -0.5445
     37 O20        -7.0960    3.6760  -13.2960 O.co2     1 PFV        -0.5445
     38 N13       -10.0060   -1.8130  -13.3610 N.2       1 PFV        -0.3138
     39 C12       -10.8640   -2.7090  -12.9810 C.2       1 PFV         0.1779
     40 N14       -11.6900   -2.6680  -11.8570 N.pl3     1 PFV        -0.2979
     41 S11       -10.8860   -4.0360  -14.0840 S.3       1 PFV         0.0150
     42 C10        -9.6820   -3.3380  -15.1010 C.2       1 PFV         0.0081
     43 H1          0.5366   -0.7073  -17.7367 H         1 PFV         0.0770
     44 H2         -0.1409    0.3813  -16.4786 H         1 PFV         0.0770
     45 H3         -4.8101    3.1259  -14.4881 H         1 PFV         0.0256
     46 H4         -5.6573    2.6733  -16.0059 H         1 PFV         0.0256
     47 H5         -4.4284    1.5697  -15.3000 H         1 PFV         0.0256
     48 H6         -5.3233    2.1900  -12.4482 H         1 PFV         0.0256
     49 H7         -4.8765    0.5582  -13.0517 H         1 PFV         0.0256
     50 H8         -6.4666    0.8178  -12.2574 H         1 PFV         0.0256
     51 H9          0.0667    2.7953  -16.7142 H         1 PFV         0.0200
     52 H10        -1.2227    0.6728  -19.2002 H         1 PFV         0.1881
     53 H11         2.7018   -0.1689  -20.2964 H         1 PFV         0.2603
     54 H12         3.4454    1.9103  -20.2977 H         1 PFV         0.0953
     55 H13         3.3039    5.2600  -19.0401 H         1 PFV         0.2376
     56 H14        -3.0457   -0.8418  -19.5805 H         1 PFV         0.1846
     57 H15        -5.3480   -1.0313  -18.8657 H         1 PFV         0.0538
     58 H16        -4.8449   -0.5252  -17.2173 H         1 PFV         0.0538
     59 H17        -4.1444   -3.2172  -18.5005 H         1 PFV         0.0580
     60 H18        -3.8309   -2.3608  -15.6530 H         1 PFV         0.1647
     61 H19        -6.5973   -3.0573  -18.1133 H         1 PFV         0.0810
     62 H20        -5.7377   -5.3304  -17.6082 H         1 PFV         0.1374
     63 H21        -6.0450   -2.4642  -15.2295 H         1 PFV         0.1876
     64 H22       -11.6515   -1.8604  -11.2188 H         1 PFV         0.1863
     65 H23       -12.3381   -3.4453  -11.6656 H         1 PFV         0.1863
     66 H24        -9.2876   -3.7633  -16.0227 H         1 PFV         0.0635
@<TRIPOS>BOND
     1    1   10 2  
     2    1   11 am 
     3   20    1 am 
     4   11    2 1  
     5    2   12 1  
     6    3    4 1  
     7   32    3 1  
     8    3   34 2  
     9    4   38 1  
    10    4   42 2  
    11    5    7 1  
    12   34    5 1  
    13    7    6 1  
    14    7    8 1  
    15    7   35 1  
    16   12    9 2  
    17    9   18 1  
    18   12   13 1  
    19   13   14 1  
    20   13   15 1  
    21   15   16 2  
    22   16   17 1  
    23   18   16 1  
    24   18   19 2  
    25   21   20 1  
    26   22   21 1  
    27   22   23 1  
    28   28   22 1  
    29   23   24 am 
    30   24   25 ar 
    31   24   26 ar 
    32   24   27 ar 
    33   28   29 1  
    34   31   28 1  
    35   29   30 2  
    36   31   32 am 
    37   32   33 2  
    38   35   36 ar 
    39   35   37 ar 
    40   38   39 2  
    41   39   40 1  
    42   39   41 1  
    43   41   42 1  
    44    2   43 1  
    45    2   44 1  
    46    6   45 1  
    47    6   46 1  
    48    6   47 1  
    49    8   48 1  
    50    8   49 1  
    51    8   50 1  
    52    9   51 1  
    53   11   52 1  
    54   14   53 1  
    55   15   54 1  
    56   17   55 1  
    57   20   56 1  
    58   21   57 1  
    59   21   58 1  
    60   22   59 1  
    61   23   60 1  
    62   28   61 1  
    63   29   62 1  
    64   31   63 1  
    65   40   64 1  
    66   40   65 1  
    67   42   66 1  
@<TRIPOS>SUBSTRUCTURE
     1 PFV         1

