### 
### Created by X-TOOL on Mon Sep 10 21:13:12 2018
### 

@<TRIPOS>MOLECULE
4l0s_ligand
   28    30     1     0     0
SMALL
GAST_HUCK


@<TRIPOS>ATOM
      1 CAC         7.5860   38.3260   12.9660 C.2       1 1UZ         0.0171
      2 CAB         7.5270   38.0310   14.3170 C.2       1 1UZ         0.1168
      3 OAA         8.2970   38.6240   15.1070 O.2       1 1UZ        -0.4121
      4 CAK         6.6730   36.9710   14.7620 C.ar      1 1UZ         0.0607
      5 CAJ         6.5090   36.6600   16.0930 C.ar      1 1UZ        -0.0505
      6 CAI         5.6470   35.6060   16.4810 C.ar      1 1UZ        -0.0656
      7 CAH         5.0010   34.8110   15.4840 C.ar      1 1UZ        -0.0640
      8 CAG         5.1600   35.1510   14.1240 C.ar      1 1UZ        -0.0194
      9 CAF         5.9900   36.2080   13.7830 C.ar      1 1UZ         0.1453
     10 OAE         6.1200   36.5540   12.4620 O.3       1 1UZ        -0.2345
     11 CAD         6.8120   37.6350   12.0390 C.2       1 1UZ         0.1501
     12 CAL         6.7760   37.8290   10.6410 C.ar      1 1UZ         0.0381
     13 CAM         6.0070   36.9520    9.8340 C.ar      1 1UZ        -0.0352
     14 CAN         5.9750   37.1240    8.4580 C.ar      1 1UZ        -0.0238
     15 CAO         6.6750   38.1660    7.8500 C.ar      1 1UZ         0.0972
     16 CAR         6.6450   38.3150    6.4840 C.1       1 1UZ         0.1011
     17 NAS         6.6240   38.4270    5.4480 N.1       1 1UZ        -0.3284
     18 CAP         7.4180   39.0460    8.6350 C.ar      1 1UZ        -0.0238
     19 CAQ         7.4470   38.8830   10.0100 C.ar      1 1UZ        -0.0352
     20 H1          8.2522   39.1155   12.6214 H         1 1UZ         0.0467
     21 H2          7.0429   37.2253   16.8483 H         1 1UZ         0.0640
     22 H3          5.4772   35.4023   17.5321 H         1 1UZ         0.0551
     23 H4          4.3965   33.9576   15.7693 H         1 1UZ         0.0628
     24 H5          4.6393   34.5924   13.3546 H         1 1UZ         0.0575
     25 H6          5.4441   36.1471   10.2927 H         1 1UZ         0.0678
     26 H7          5.3981   36.4393    7.8469 H         1 1UZ         0.0721
     27 H8          7.9710   39.8548    8.1711 H         1 1UZ         0.0721
     28 H9          8.0041   39.5904   10.6136 H         1 1UZ         0.0678
@<TRIPOS>BOND
     1    1    2 1  
     2    1   11 2  
     3    2    3 2  
     4    2    4 1  
     5    4    5 ar 
     6    4    9 ar 
     7    5    6 ar 
     8    6    7 ar 
     9    7    8 ar 
    10    8    9 ar 
    11    9   10 1  
    12   10   11 1  
    13   11   12 1  
    14   12   13 ar 
    15   12   19 ar 
    16   13   14 ar 
    17   14   15 ar 
    18   15   16 1  
    19   15   18 ar 
    20   16   17 3  
    21   18   19 ar 
    22    1   20 1  
    23    5   21 1  
    24    6   22 1  
    25    7   23 1  
    26    8   24 1  
    27   13   25 1  
    28   14   26 1  
    29   18   27 1  
    30   19   28 1  
@<TRIPOS>SUBSTRUCTURE
     1 1UZ         1

