### 
### Created by X-TOOL on Mon Sep 10 21:13:13 2018
### 

@<TRIPOS>MOLECULE
4l0t_ligand
   29    31     1     0     0
SMALL
GAST_HUCK


@<TRIPOS>ATOM
      1 CAC         7.6070   38.2660   13.0280 C.2       1 1V0         0.2418
      2 CAE         7.5530   37.9680   14.3940 C.2       1 1V0         0.3396
      3 OAL         8.3480   38.5420   15.1500 O.2       1 1V0        -0.2271
      4 CAF         6.6920   36.9240   14.8260 C.ar      1 1V0         0.1446
      5 CAQ         6.5550   36.5910   16.1600 C.ar      1 1V0        -0.0212
      6 CAS         5.7000   35.5450   16.5120 C.ar      1 1V0        -0.0414
      7 CAT         4.9800   34.7770   15.5660 C.ar      1 1V0        -0.0385
      8 CAR         5.1000   35.1260   14.2180 C.ar      1 1V0         0.0163
      9 CAG         5.9500   36.1850   13.8740 C.ar      1 1V0         0.2257
     10 OAD         6.0390   36.5170   12.5650 O.3       1 1V0        -0.1120
     11 CAA         6.8050   37.5490   12.1350 C.2       1 1V0         0.3655
     12 CAI         6.7480   37.7590   10.7280 C.ar      1 1V0         0.1533
     13 CAO         7.4500   38.7910   10.0780 C.ar      1 1V0         0.0138
     14 CAM         7.3330   38.9760    8.7060 C.ar      1 1V0         0.0155
     15 CAH         6.5400   38.1070    7.9630 C.ar      1 1V0         0.1262
     16 NAB         6.4430   38.2300    6.6450 N.2       1 1V0        -0.1849
     17 OAK         7.5600   38.4710    5.8970 O.2       1 1V0        -0.4727
     18 OAJ         5.2990   38.0270    6.0850 O.2       1 1V0        -0.4727
     19 CAN         5.8580   37.0640    8.5960 C.ar      1 1V0         0.0155
     20 CAP         5.9580   36.8920    9.9630 C.ar      1 1V0         0.0138
     21 H1          8.2686   39.0503   12.6632 H         1 1V0         0.2548
     22 H2          7.1031   37.1337   16.9217 H         1 1V0         0.0724
     23 H3          5.5816   35.3090   17.5634 H         1 1V0         0.0752
     24 H4          4.3566   33.9463   15.8764 H         1 1V0         0.0696
     25 H5          4.5475   34.5890   13.4555 H         1 1V0         0.0760
     26 H6          8.0896   39.4494   10.6546 H         1 1V0         0.0944
     27 H7          7.8554   39.7910    8.2182 H         1 1V0         0.0811
     28 H8          5.2471   36.3862    8.0108 H         1 1V0         0.0811
     29 H9          5.4226   36.0824   10.4456 H         1 1V0         0.0944
@<TRIPOS>BOND
     1    1    2 1  
     2    1   11 2  
     3    2    3 2  
     4    2    4 1  
     5    4    5 ar 
     6    4    9 ar 
     7    5    6 ar 
     8    6    7 ar 
     9    7    8 ar 
    10    8    9 ar 
    11    9   10 1  
    12   10   11 1  
    13   11   12 1  
    14   12   13 ar 
    15   12   20 ar 
    16   13   14 ar 
    17   14   15 ar 
    18   15   16 1  
    19   15   19 ar 
    20   16   17 2  
    21   16   18 2  
    22   19   20 ar 
    23    1   21 1  
    24    5   22 1  
    25    6   23 1  
    26    7   24 1  
    27    8   25 1  
    28   13   26 1  
    29   14   27 1  
    30   19   28 1  
    31   20   29 1  
@<TRIPOS>SUBSTRUCTURE
     1 1V0         1

