### 
### Created by X-TOOL on Mon Sep 10 21:13:13 2018
### 

@<TRIPOS>MOLECULE
4l0v_ligand
   27    29     1     0     0
SMALL
GAST_HUCK


@<TRIPOS>ATOM
      1 CAB        -7.3710  -38.0050   12.9100 C.2       1 1V1         0.0123
      2 CAD        -7.3570  -37.7030   14.2630 C.2       1 1V1         0.1132
      3 OAH        -8.1600  -38.2750   14.9950 O.2       1 1V1        -0.4145
      4 CAE        -6.5050  -36.6920   14.7170 C.ar      1 1V1         0.0599
      5 CAO        -6.3640  -36.4240   16.0480 C.ar      1 1V1        -0.0506
      6 CAQ        -5.5170  -35.3710   16.4470 C.ar      1 1V1        -0.0656
      7 CAR        -4.8080  -34.6040   15.5070 C.ar      1 1V1        -0.0640
      8 CAP        -4.9580  -34.8980   14.1400 C.ar      1 1V1        -0.0194
      9 CAF        -5.8070  -35.9300   13.7780 C.ar      1 1V1         0.1452
     10 OAC        -5.8910  -36.2240   12.4520 O.3       1 1V1        -0.2356
     11 CAA        -6.5900  -37.3270   12.0220 C.2       1 1V1         0.1446
     12 CAG        -6.5800  -37.5590   10.6240 C.ar      1 1V1         0.0309
     13 CAI        -5.8560  -36.6710    9.8080 C.ar      1 1V1        -0.0444
     14 CAM        -5.8380  -36.8390    8.4230 C.ar      1 1V1        -0.0430
     15 CAK        -6.5060  -37.9140    7.8450 C.ar      1 1V1         0.0445
     16 CL1        -6.4610  -38.1020    6.1170 Cl        1 1V1        -0.0668
     17 CAL        -7.2290  -38.8080    8.6320 C.ar      1 1V1        -0.0430
     18 CAJ        -7.2720  -38.6270   10.0190 C.ar      1 1V1        -0.0444
     19 H1         -8.0201  -38.8013   12.5487 H         1 1V1         0.0427
     20 H2         -6.8957  -37.0125   16.7870 H         1 1V1         0.0640
     21 H3         -5.4100  -35.1477   17.5023 H         1 1V1         0.0551
     22 H4         -4.1568  -33.7998   15.8299 H         1 1V1         0.0628
     23 H5         -4.4219  -34.3304   13.3880 H         1 1V1         0.0575
     24 H6         -5.3085  -35.8508   10.2581 H         1 1V1         0.0661
     25 H7         -5.3040  -36.1326    7.7978 H         1 1V1         0.0633
     26 H8         -7.7544  -39.6378    8.1732 H         1 1V1         0.0633
     27 H9         -7.8425  -39.3143   10.6332 H         1 1V1         0.0661
@<TRIPOS>BOND
     1    1    2 1  
     2    1   11 2  
     3    2    3 2  
     4    2    4 1  
     5    4    5 ar 
     6    4    9 ar 
     7    5    6 ar 
     8    6    7 ar 
     9    7    8 ar 
    10    8    9 ar 
    11    9   10 1  
    12   10   11 1  
    13   11   12 1  
    14   12   13 ar 
    15   12   18 ar 
    16   13   14 ar 
    17   14   15 ar 
    18   15   16 1  
    19   15   17 ar 
    20   17   18 ar 
    21    1   19 1  
    22    5   20 1  
    23    6   21 1  
    24    7   22 1  
    25    8   23 1  
    26   13   24 1  
    27   14   25 1  
    28   17   26 1  
    29   18   27 1  
@<TRIPOS>SUBSTRUCTURE
     1 1V1         1

