### 
### Created by X-TOOL on Mon Sep 10 21:13:13 2018
### 

@<TRIPOS>MOLECULE
4l10_ligand
   31    33     1     0     0
SMALL
GAST_HUCK


@<TRIPOS>ATOM
      1 CAQ        -5.8480  -39.4090    6.0090 C.3       1 A63         0.0611
      2 OAO        -6.3090  -38.1470    6.4510 O.3       1 A63        -0.3168
      3 CAK        -6.4000  -38.0060    7.8320 C.ar      1 A63         0.0975
      4 CAM        -7.0690  -38.9000    8.6520 C.ar      1 A63        -0.0261
      5 CAI        -7.1670  -38.7000   10.0410 C.ar      1 A63        -0.0518
      6 CAL        -5.8110  -36.8950    8.4220 C.ar      1 A63        -0.0261
      7 CAJ        -5.8950  -36.6850    9.7990 C.ar      1 A63        -0.0518
      8 CAG        -6.5650  -37.5850   10.6270 C.ar      1 A63         0.0212
      9 CAA        -6.6350  -37.3360   12.0050 C.2       1 A63         0.1370
     10 OAC        -5.9000  -36.2730   12.4170 O.3       1 A63        -0.2374
     11 CAF        -5.8410  -35.9350   13.7380 C.ar      1 A63         0.1449
     12 CAP        -4.9880  -34.9190   14.1100 C.ar      1 A63        -0.0195
     13 CAS        -4.8470  -34.6160   15.4710 C.ar      1 A63        -0.0641
     14 CAR        -5.5660  -35.3610   16.4100 C.ar      1 A63        -0.0657
     15 CAN        -6.3920  -36.4330   16.0030 C.ar      1 A63        -0.0508
     16 CAE        -6.5360  -36.7160   14.6540 C.ar      1 A63         0.0588
     17 CAD        -7.3810  -37.7440   14.2150 C.2       1 A63         0.1088
     18 OAH        -8.2020  -38.2880   14.9460 O.2       1 A63        -0.4175
     19 CAB        -7.4300  -38.0650   12.8620 C.2       1 A63         0.0064
     20 H1         -5.8110  -39.4214    4.9097 H         1 A63         0.0581
     21 H2         -6.5333  -40.1938    6.3616 H         1 A63         0.0581
     22 H3         -4.8411  -39.5933    6.4118 H         1 A63         0.0581
     23 H4         -7.5292  -39.7771    8.2115 H         1 A63         0.0561
     24 H5         -7.7088  -39.4102   10.6551 H         1 A63         0.0641
     25 H6         -5.2786  -36.1810    7.8041 H         1 A63         0.0561
     26 H7         -5.4311  -35.8065   10.2328 H         1 A63         0.0641
     27 H8         -4.4348  -34.3629   13.3619 H         1 A63         0.0575
     28 H9         -4.1898  -33.8154   15.7909 H         1 A63         0.0628
     29 H10        -5.4891  -35.1136   17.4626 H         1 A63         0.0550
     30 H11        -6.9109  -37.0315   16.7430 H         1 A63         0.0640
     31 H12        -8.0731  -38.8631   12.4941 H         1 A63         0.0379
@<TRIPOS>BOND
     1    1    2 1  
     2    2    3 1  
     3    3    4 ar 
     4    3    6 ar 
     5    4    5 ar 
     6    5    8 ar 
     7    6    7 ar 
     8    7    8 ar 
     9    8    9 1  
    10    9   10 1  
    11    9   19 2  
    12   10   11 1  
    13   11   12 ar 
    14   11   16 ar 
    15   12   13 ar 
    16   13   14 ar 
    17   14   15 ar 
    18   15   16 ar 
    19   16   17 1  
    20   17   18 2  
    21   17   19 1  
    22    1   20 1  
    23    1   21 1  
    24    1   22 1  
    25    4   23 1  
    26    5   24 1  
    27    6   25 1  
    28    7   26 1  
    29   12   27 1  
    30   13   28 1  
    31   14   29 1  
    32   15   30 1  
    33   19   31 1  
@<TRIPOS>SUBSTRUCTURE
     1 A63         1

