### 
### Created by X-TOOL on Mon Sep 10 21:13:16 2018
### 

@<TRIPOS>MOLECULE
4l19_ligand
   35    37     1     0     0
SMALL
GAST_HUCK


@<TRIPOS>ATOM
      1 O17       -25.6230  -15.0880   11.4030 O.2       1 1UA        -0.4174
      2 C6        -24.8320  -14.4660   12.1030 C.2       1 1UA         0.2019
      3 C5        -25.1720  -14.0450   13.3180 C.2       1 1UA         0.0150
      4 C4        -24.2950  -13.3630   14.0710 C.2       1 1UA        -0.0095
      5 C2        -24.8700  -13.0310   15.2930 C.3       1 1UA        -0.0140
      6 C3        -26.3740  -14.2030   13.9970 C.3       1 1UA        -0.0281
      7 C1        -26.3410  -13.1490   15.0550 C.3       1 1UA        -0.0382
      8 N19       -23.5650  -14.2000   11.6130 N.am      1 1UA        -0.1914
      9 C7        -22.6770  -13.4910   12.4010 C.2       1 1UA         0.2118
     10 N18       -23.0620  -13.0920   13.6130 N.2       1 1UA        -0.2949
     11 S16       -21.0900  -13.1650   11.7650 S.3       1 1UA        -0.0114
     12 C8        -20.5860  -11.5770   12.5180 C.3       1 1UA         0.0493
     13 C9        -19.4110  -11.0710   11.9490 C.ar      1 1UA        -0.0364
     14 C11       -19.4690  -10.2760   10.8140 C.ar      1 1UA        -0.0658
     15 C13       -18.3070   -9.7720   10.2460 C.ar      1 1UA        -0.0671
     16 C14       -17.0760  -10.0660   10.8130 C.ar      1 1UA        -0.0528
     17 C15       -15.9100   -9.5650   10.2500 C.3       1 1UA        -0.0343
     18 C12       -17.0140  -10.8640   11.9480 C.ar      1 1UA        -0.0671
     19 C10       -18.1780  -11.3640   12.5140 C.ar      1 1UA        -0.0658
     20 H         -24.6036  -12.0038   15.5825 H         1 1UA         0.0443
     21 H         -24.5455  -13.7292   16.0786 H         1 1UA         0.0443
     22 H         -26.4388  -15.2047   14.4468 H         1 1UA         0.0347
     23 H         -27.2272  -14.0491   13.3200 H         1 1UA         0.0347
     24 H         -26.7694  -12.2019   14.6953 H         1 1UA         0.0303
     25 H         -26.8727  -13.4707   15.9626 H         1 1UA         0.0303
     26 H         -23.2960  -14.5157   10.7031 H         1 1UA         0.2558
     27 H         -20.4200  -11.7322   13.5943 H         1 1UA         0.0563
     28 H         -21.3936  -10.8443   12.3734 H         1 1UA         0.0563
     29 H         -20.4294  -10.0464   10.3669 H         1 1UA         0.0540
     30 H         -18.3617   -9.1494    9.3603 H         1 1UA         0.0540
     31 H         -15.0440   -9.9050   10.8369 H         1 1UA         0.0378
     32 H         -15.9450   -8.4656   10.2515 H         1 1UA         0.0378
     33 H         -15.8171   -9.9275    9.2156 H         1 1UA         0.0378
     34 H         -16.0534  -11.0969   12.3930 H         1 1UA         0.0540
     35 H         -18.1239  -11.9855   13.4005 H         1 1UA         0.0540
@<TRIPOS>BOND
     1    1    2 2  
     2    2    3 1  
     3    2    8 am 
     4    3    4 2  
     5    3    6 1  
     6    4    5 1  
     7    4   10 1  
     8    5    7 1  
     9    6    7 1  
    10    8    9 1  
    11    9   10 2  
    12    9   11 1  
    13   11   12 1  
    14   12   13 1  
    15   13   14 ar 
    16   13   19 ar 
    17   14   15 ar 
    18   15   16 ar 
    19   16   17 1  
    20   16   18 ar 
    21   18   19 ar 
    22    5   20 1  
    23    5   21 1  
    24    6   22 1  
    25    6   23 1  
    26    7   24 1  
    27    7   25 1  
    28    8   26 1  
    29   12   27 1  
    30   12   28 1  
    31   14   29 1  
    32   15   30 1  
    33   17   31 1  
    34   17   32 1  
    35   17   33 1  
    36   18   34 1  
    37   19   35 1  
@<TRIPOS>SUBSTRUCTURE
     1 1UA         1

