### 
### Created by X-TOOL on Mon Sep 10 21:13:19 2018
### 

@<TRIPOS>MOLECULE
4l1a_ligand
   94    97     1     0     0
SMALL
GAST_HUCK


@<TRIPOS>ATOM
      1 C1        -13.0920   19.5310    0.3810 C.3       1 AB1         0.0330
      2 C2        -11.3300   17.6950    0.1140 C.3       1 AB1         0.0388
      3 N1        -10.9930   17.9610    1.5200 N.am      1 AB1        -0.2377
      4 C3        -11.3660   19.1050    2.1200 C.2       1 AB1         0.2622
      5 N2        -12.5190   19.6420    1.7150 N.am      1 AB1        -0.2728
      6 C4         -5.4600   10.8830    1.2800 C.ar      1 AB1        -0.0408
      7 C5         -4.6410   10.1320    2.1280 C.ar      1 AB1        -0.0603
      8 C6         -5.0110    8.8450    2.5030 C.ar      1 AB1        -0.0686
      9 C7         -6.2110    8.3200    2.0320 C.ar      1 AB1        -0.0687
     10 C8         -7.0390    9.0650    1.1920 C.ar      1 AB1        -0.0686
     11 C9         -6.6660   10.3520    0.8170 C.ar      1 AB1        -0.0603
     12 O1        -10.7040   19.6600    2.9650 O.2       1 AB1        -0.4005
     13 C10       -10.2100   16.8840    2.1830 C.3       1 AB1         0.1362
     14 C11        -9.5200   16.0320    1.1490 C.2       1 AB1         0.2023
     15 N3         -8.4210   16.5270    0.5870 N.am      1 AB1        -0.2800
     16 C12        -7.7980   15.7400   -0.4630 C.3       1 AB1         0.0540
     17 C13       -11.0930   15.9620    3.0610 C.3       1 AB1        -0.0063
     18 C14       -10.9900   16.2770    4.5550 C.3       1 AB1        -0.0584
     19 C15       -12.5620   15.8500    2.6490 C.3       1 AB1        -0.0584
     20 O2         -9.9660   14.9330    0.8310 O.2       1 AB1        -0.3945
     21 C16       -10.0850   15.7530   -4.7850 C.ar      1 AB1        -0.0686
     22 C17       -10.9160   14.7320   -4.3330 C.ar      1 AB1        -0.0687
     23 C18       -10.8880   14.3070   -3.0100 C.ar      1 AB1        -0.0686
     24 C19       -10.0030   14.9190   -2.1300 C.ar      1 AB1        -0.0603
     25 C20        -9.1590   15.9450   -2.5720 C.ar      1 AB1        -0.0408
     26 C21        -9.2040   16.3640   -3.8990 C.ar      1 AB1        -0.0603
     27 C22        -8.1880   16.6280   -1.6400 C.3       1 AB1         0.0040
     28 C23        -6.2810   15.7040   -0.3230 C.3       1 AB1         0.0004
     29 C24        -5.7680   14.5350    0.5170 C.3       1 AB1         0.0821
     30 C25        -5.8510   13.1050   -0.0240 C.3       1 AB1         0.0774
     31 N4         -5.0530   12.9910   -1.2350 N.am      1 AB1        -0.2772
     32 C26        -5.1790   11.9510   -2.0660 C.2       1 AB1         0.2068
     33 C27        -4.2630   11.9450   -3.2530 C.3       1 AB1         0.1556
     34 O3         -2.9580   11.5290   -2.8220 O.3       1 AB1        -0.3054
     35 C28        -2.4710   10.2780   -3.0940 C.ar      1 AB1         0.0966
     36 O4         -4.3890   14.7870    0.7970 O.3       1 AB1        -0.3893
     37 C29        -4.9830   12.2700    0.9190 C.3       1 AB1         0.0064
     38 O5         -5.9780   11.0330   -1.9300 O.2       1 AB1        -0.3941
     39 C30        -2.1620    9.9220   -4.4040 C.ar      1 AB1        -0.0230
     40 C31        -1.6610    8.6470   -4.6840 C.ar      1 AB1        -0.0759
     41 C32        -1.4770    7.7200   -3.6580 C.ar      1 AB1        -0.0862
     42 C33        -1.7890    8.0770   -2.3480 C.ar      1 AB1        -0.0759
     43 C34        -2.2800    9.3500   -2.0670 C.ar      1 AB1        -0.0230
     44 C35        -2.5980    9.6890   -0.6390 C.3       1 AB1        -0.0348
     45 C36        -2.3650   10.9000   -5.5300 C.3       1 AB1        -0.0348
     46 C37       -12.7970   18.0990   -0.0760 C.3       1 AB1        -0.0125
     47 H         -12.6224   20.2559   -0.3002 H         1 AB1         0.0517
     48 H         -14.1772   19.7079    0.4132 H         1 AB1         0.0517
     49 H         -11.1998   16.6261   -0.1106 H         1 AB1         0.0522
     50 H         -10.6848   18.2902   -0.5489 H         1 AB1         0.0522
     51 H         -13.0366   20.1687    2.3894 H         1 AB1         0.1845
     52 H          -3.7129   10.5549    2.4951 H         1 AB1         0.0557
     53 H          -4.3730    8.2581    3.1538 H         1 AB1         0.0599
     54 H          -6.5063    7.3181    2.3220 H         1 AB1         0.0559
     55 H          -7.9703    8.6425    0.8325 H         1 AB1         0.0599
     56 H          -7.3074   10.9389    0.1695 H         1 AB1         0.0557
     57 H          -9.4509   17.3560    2.8240 H         1 AB1         0.0802
     58 H          -8.0392   17.4051    0.8755 H         1 AB1         0.1856
     59 H          -8.2036   14.7199   -0.5322 H         1 AB1         0.0579
     60 H         -10.6713   14.9545    2.9303 H         1 AB1         0.0342
     61 H         -11.6377   15.5905    5.1200 H         1 AB1         0.0234
     62 H         -11.3103   17.3140    4.7341 H         1 AB1         0.0234
     63 H          -9.9480   16.1529    4.8849 H         1 AB1         0.0234
     64 H         -12.6252   15.6236    1.5744 H         1 AB1         0.0234
     65 H         -13.0739   16.8018    2.8539 H         1 AB1         0.0234
     66 H         -13.0432   15.0440    3.2224 H         1 AB1         0.0234
     67 H         -10.1242   16.0699   -5.8209 H         1 AB1         0.0599
     68 H         -11.5998   14.2581   -5.0279 H         1 AB1         0.0559
     69 H         -11.5439   13.5133   -2.6709 H         1 AB1         0.0599
     70 H          -9.9660   14.5998   -1.0947 H         1 AB1         0.0557
     71 H          -8.5554   17.1628   -4.2401 H         1 AB1         0.0557
     72 H          -7.2799   16.8886   -2.2034 H         1 AB1         0.0448
     73 H          -8.6549   17.5454   -1.2522 H         1 AB1         0.0448
     74 H          -5.9538   16.6414    0.1505 H         1 AB1         0.0315
     75 H          -5.8414   15.6281   -1.3284 H         1 AB1         0.0315
     76 H          -6.3386   14.5504    1.4573 H         1 AB1         0.0619
     77 H          -6.8866   12.7517   -0.1365 H         1 AB1         0.0604
     78 H          -4.3924   13.7098   -1.4518 H         1 AB1         0.1857
     79 H          -4.2066   12.9560   -3.6828 H         1 AB1         0.0853
     80 H          -4.6435   11.2449   -4.0113 H         1 AB1         0.0853
     81 H          -3.8832   14.6970   -0.0021 H         1 AB1         0.2099
     82 H          -3.9954   12.1636    0.4464 H         1 AB1         0.0449
     83 H          -4.8816   12.8355    1.8570 H         1 AB1         0.0449
     84 H          -1.4141    8.3773   -5.7045 H         1 AB1         0.0471
     85 H          -1.0944    6.7300   -3.8782 H         1 AB1         0.0489
     86 H          -1.6493    7.3622   -1.5451 H         1 AB1         0.0471
     87 H          -2.9726   10.7217   -0.5820 H         1 AB1         0.0366
     88 H          -1.6879    9.5949   -0.0284 H         1 AB1         0.0366
     89 H          -3.3664    8.9988   -0.2606 H         1 AB1         0.0366
     90 H          -2.7622   11.8440   -5.1286 H         1 AB1         0.0366
     91 H          -3.0781   10.4812   -6.2554 H         1 AB1         0.0366
     92 H          -1.4032   11.0896   -6.0289 H         1 AB1         0.0366
     93 H         -13.0476   18.0140   -1.1437 H         1 AB1         0.0304
     94 H         -13.4275   17.4097    0.5047 H         1 AB1         0.0304
@<TRIPOS>BOND
     1    5    1 1  
     2   46    1 1  
     3    3    2 1  
     4    2   46 1  
     5    3    4 am 
     6   13    3 1  
     7    4    5 am 
     8    4   12 2  
     9    6    7 ar 
    10    6   11 ar 
    11   37    6 1  
    12    7    8 ar 
    13    8    9 ar 
    14   10    9 ar 
    15   11   10 ar 
    16   14   13 1  
    17   13   17 1  
    18   15   14 am 
    19   14   20 2  
    20   16   15 1  
    21   16   27 1  
    22   28   16 1  
    23   17   18 1  
    24   17   19 1  
    25   21   22 ar 
    26   26   21 ar 
    27   23   22 ar 
    28   24   23 ar 
    29   25   24 ar 
    30   25   26 ar 
    31   27   25 1  
    32   29   28 1  
    33   30   29 1  
    34   29   36 1  
    35   30   31 1  
    36   30   37 1  
    37   31   32 am 
    38   32   33 1  
    39   32   38 2  
    40   33   34 1  
    41   34   35 1  
    42   35   39 ar 
    43   35   43 ar 
    44   39   40 ar 
    45   39   45 1  
    46   40   41 ar 
    47   41   42 ar 
    48   42   43 ar 
    49   43   44 1  
    50    1   47 1  
    51    1   48 1  
    52    2   49 1  
    53    2   50 1  
    54    5   51 1  
    55    7   52 1  
    56    8   53 1  
    57    9   54 1  
    58   10   55 1  
    59   11   56 1  
    60   13   57 1  
    61   15   58 1  
    62   16   59 1  
    63   17   60 1  
    64   18   61 1  
    65   18   62 1  
    66   18   63 1  
    67   19   64 1  
    68   19   65 1  
    69   19   66 1  
    70   21   67 1  
    71   22   68 1  
    72   23   69 1  
    73   24   70 1  
    74   26   71 1  
    75   27   72 1  
    76   27   73 1  
    77   28   74 1  
    78   28   75 1  
    79   29   76 1  
    80   30   77 1  
    81   31   78 1  
    82   33   79 1  
    83   33   80 1  
    84   36   81 1  
    85   37   82 1  
    86   37   83 1  
    87   40   84 1  
    88   41   85 1  
    89   42   86 1  
    90   44   87 1  
    91   44   88 1  
    92   44   89 1  
    93   45   90 1  
    94   45   91 1  
    95   45   92 1  
    96   46   93 1  
    97   46   94 1  
@<TRIPOS>SUBSTRUCTURE
     1 AB1         1

