### 
### Created by X-TOOL on Mon Sep 10 21:13:19 2018
### 

@<TRIPOS>MOLECULE
4l23_ligand
   42    46     1     0     0
SMALL
GAST_HUCK


@<TRIPOS>ATOM
      1 N01        35.2160   48.7030   43.9310 N.ar      1 X6K        -0.2670
      2 C02        36.1900   49.1380   43.1080 C.ar      1 X6K         0.0030
      3 C03        36.2790   48.8060   41.7450 C.ar      1 X6K        -0.0421
      4 C04        35.3470   47.9690   41.1260 C.ar      1 X6K        -0.0405
      5 C05        34.3520   47.5210   41.9750 C.ar      1 X6K         0.0572
      6 C06        34.2820   47.8910   43.4020 C.ar      1 X6K         0.2036
      7 O07        33.2250   47.3270   44.0080 O.3       1 X6K        -0.2243
      8 C08        32.5490   46.5860   43.1060 C.ar      1 X6K         0.1996
      9 C09        33.1850   46.6450   41.7820 C.ar      1 X6K         0.0875
     10 N10        32.6810   45.9770   40.7210 N.ar      1 X6K        -0.2897
     11 C11        31.3150   45.7740   43.2540 C.ar      1 X6K         0.1687
     12 N12        30.6330   45.6180   44.4880 N.pl3     1 X6K        -0.2826
     13 C13        29.2840   45.0540   44.3740 C.3       1 X6K         0.0549
     14 C14        28.9610   44.5000   45.7630 C.3       1 X6K         0.0681
     15 O15        29.0970   45.5070   46.7810 O.3       1 X6K        -0.3757
     16 C16        30.2880   46.3120   46.7300 C.3       1 X6K         0.0681
     17 C17        30.5560   46.8240   45.3180 C.3       1 X6K         0.0549
     18 N18        30.9120   45.1370   42.1210 N.ar      1 X6K        -0.2596
     19 C19        31.5430   45.2350   40.9030 C.ar      1 X6K         0.0919
     20 C20        30.9510   44.4620   39.7640 C.ar      1 X6K         0.0014
     21 C21        31.1910   44.7810   38.4340 C.ar      1 X6K        -0.0598
     22 C22        30.6410   44.0300   37.4060 C.ar      1 X6K        -0.0671
     23 C23        29.8420   42.9350   37.7090 C.ar      1 X6K        -0.0309
     24 C24        29.6050   42.6040   39.0310 C.ar      1 X6K         0.0905
     25 O25        28.8270   41.5300   39.3310 O.3       1 X6K        -0.3327
     26 C26        30.1590   43.3570   40.0500 C.ar      1 X6K        -0.0209
     27 H          36.9538   49.7854   43.5235 H         1 X6K         0.0808
     28 H          37.0945   49.2112   41.1569 H         1 X6K         0.0627
     29 H          35.3992   47.6964   40.0781 H         1 X6K         0.0733
     30 H          29.2645   44.2496   43.6240 H         1 X6K         0.0547
     31 H          28.5621   45.8349   44.0930 H         1 X6K         0.0547
     32 H          29.6501   43.6721   45.9860 H         1 X6K         0.0580
     33 H          27.9262   44.1268   45.7664 H         1 X6K         0.0580
     34 H          31.1443   45.7048   47.0587 H         1 X6K         0.0580
     35 H          30.1675   47.1719   47.4052 H         1 X6K         0.0580
     36 H          29.7360   47.4747   44.9801 H         1 X6K         0.0547
     37 H          31.5043   47.3802   45.2815 H         1 X6K         0.0547
     38 H          31.8190   45.6316   38.1952 H         1 X6K         0.0554
     39 H          30.8334   44.2958   36.3728 H         1 X6K         0.0596
     40 H          29.4060   42.3424   36.9129 H         1 X6K         0.0563
     41 H          29.2161   40.7456   38.9622 H         1 X6K         0.2480
     42 H          29.9735   43.0824   41.0821 H         1 X6K         0.0567
@<TRIPOS>BOND
     1    1    2 ar 
     2    1    6 ar 
     3    2    3 ar 
     4    3    4 ar 
     5    4    5 ar 
     6    5    6 ar 
     7    5    9 1  
     8    6    7 1  
     9    7    8 1  
    10    8    9 ar 
    11    8   11 ar 
    12    9   10 ar 
    13   10   19 ar 
    14   11   12 1  
    15   11   18 ar 
    16   12   13 1  
    17   12   17 1  
    18   13   14 1  
    19   14   15 1  
    20   15   16 1  
    21   16   17 1  
    22   18   19 ar 
    23   19   20 1  
    24   20   21 ar 
    25   20   26 ar 
    26   21   22 ar 
    27   22   23 ar 
    28   23   24 ar 
    29   24   25 1  
    30   24   26 ar 
    31    2   27 1  
    32    3   28 1  
    33    4   29 1  
    34   13   30 1  
    35   13   31 1  
    36   14   32 1  
    37   14   33 1  
    38   16   34 1  
    39   16   35 1  
    40   17   36 1  
    41   17   37 1  
    42   21   38 1  
    43   22   39 1  
    44   23   40 1  
    45   25   41 1  
    46   26   42 1  
@<TRIPOS>SUBSTRUCTURE
     1 X6K         1

