### 
### Created by X-TOOL on Mon Sep 10 21:13:13 2018
### 

@<TRIPOS>MOLECULE
4l2f_ligand
   27    29     1     0     0
SMALL
GAST_HUCK


@<TRIPOS>ATOM
      1 CAB        -7.3470  -38.2340   12.9880 C.2       1 1V3         0.0124
      2 CAD        -7.3300  -37.7730   14.3070 C.2       1 1V3         0.1133
      3 OAI        -7.9370  -38.3330   15.2210 O.2       1 1V3        -0.4145
      4 CAC        -6.4680  -36.7310   14.5790 C.ar      1 1V3         0.0606
      5 CAG        -6.1590  -36.4500   15.9000 C.ar      1 1V3        -0.0366
      6 CAK        -5.2170  -35.4180   16.1360 C.ar      1 1V3         0.0358
      7 CL1        -4.8210  -35.0180   17.6280 Cl        1 1V3        -0.0781
      8 CAL        -4.5790  -34.6830   15.1200 C.ar      1 1V3        -0.0500
      9 CAJ        -4.8590  -34.9990   13.7860 C.ar      1 1V3        -0.0187
     10 CAF        -5.7710  -36.0200   13.5410 C.ar      1 1V3         0.1456
     11 OAE        -6.0000  -36.3390   12.2370 O.3       1 1V3        -0.2353
     12 CAA        -6.6820  -37.5180   11.9570 C.2       1 1V3         0.1448
     13 CAH        -6.6310  -37.8870   10.5780 C.ar      1 1V3         0.0310
     14 CAN        -7.4360  -38.8900   10.0030 C.ar      1 1V3        -0.0448
     15 CAP        -7.3000  -39.2370    8.6560 C.ar      1 1V3        -0.0569
     16 CAR        -6.3900  -38.5790    7.8260 C.ar      1 1V3        -0.0581
     17 CAQ        -5.5850  -37.5730    8.3680 C.ar      1 1V3        -0.0569
     18 CAO        -5.6950  -37.2420    9.7350 C.ar      1 1V3        -0.0448
     19 H1         -7.8771  -39.1543   12.7473 H         1 1V3         0.0427
     20 H2         -6.6175  -36.9954   16.7169 H         1 1V3         0.0647
     21 H3         -3.8845  -33.8878   15.3658 H         1 1V3         0.0634
     22 H4         -4.3815  -34.4664   12.9715 H         1 1V3         0.0576
     23 H5         -8.1717  -39.4001   10.6143 H         1 1V3         0.0662
     24 H6         -7.9129  -40.0324    8.2476 H         1 1V3         0.0628
     25 H7         -6.3092  -38.8442    6.7780 H         1 1V3         0.0648
     26 H8         -4.8764  -37.0473    7.7382 H         1 1V3         0.0628
     27 H9         -5.0483  -36.4767   10.1488 H         1 1V3         0.0662
@<TRIPOS>BOND
     1    1    2 1  
     2    1   12 2  
     3    2    3 2  
     4    2    4 1  
     5    4    5 ar 
     6    4   10 ar 
     7    5    6 ar 
     8    6    7 1  
     9    6    8 ar 
    10    8    9 ar 
    11    9   10 ar 
    12   10   11 1  
    13   11   12 1  
    14   12   13 1  
    15   13   14 ar 
    16   13   18 ar 
    17   14   15 ar 
    18   15   16 ar 
    19   16   17 ar 
    20   17   18 ar 
    21    1   19 1  
    22    5   20 1  
    23    8   21 1  
    24    9   22 1  
    25   14   23 1  
    26   15   24 1  
    27   16   25 1  
    28   17   26 1  
    29   18   27 1  
@<TRIPOS>SUBSTRUCTURE
     1 1V3         1

