### 
### Created by X-TOOL on Mon Sep 10 21:13:14 2018
### 

@<TRIPOS>MOLECULE
4l2g_ligand
   27    29     1     0     0
SMALL
GAST_HUCK


@<TRIPOS>ATOM
      1 CAB       -38.7910  -10.7790   13.0260 C.2       1 1V4         0.0119
      2 CAD       -38.8120  -11.1060   14.3790 C.2       1 1V4         0.1121
      3 OAI       -38.0850  -10.4530   15.1650 O.2       1 1V4        -0.4148
      4 CAC       -39.6920  -12.1350   14.7930 C.ar      1 1V4         0.0582
      5 CAG       -39.8850  -12.4420   16.1190 C.ar      1 1V4        -0.0172
      6 CAK       -40.7760  -13.4640   16.5060 C.ar      1 1V4         0.1276
      7 F1        -40.9720  -13.7340   17.8100 F         1 1V4        -0.1901
      8 CAL       -41.5050  -14.2000   15.5740 C.ar      1 1V4        -0.0300
      9 CAJ       -41.3060  -13.8760   14.2330 C.ar      1 1V4        -0.0206
     10 CAF       -40.4260  -12.8590   13.8630 C.ar      1 1V4         0.1416
     11 OAE       -40.3220  -12.5580   12.5480 O.3       1 1V4        -0.2379
     12 CAA       -39.5710  -11.4860   12.1150 C.2       1 1V4         0.1437
     13 CAH       -39.6480  -11.2190   10.7230 C.ar      1 1V4         0.0308
     14 CAN       -40.4650  -12.0270    9.9170 C.ar      1 1V4        -0.0448
     15 CAP       -40.5760  -11.7750    8.5450 C.ar      1 1V4        -0.0569
     16 CAR       -39.9030  -10.7140    7.9420 C.ar      1 1V4        -0.0581
     17 CAQ       -39.0990   -9.9170    8.7350 C.ar      1 1V4        -0.0569
     18 CAO       -38.9740  -10.1720   10.0970 C.ar      1 1V4        -0.0448
     19 H1        -38.1592   -9.9634   12.6773 H         1 1V4         0.0424
     20 H2        -39.3438  -11.8898   16.8788 H         1 1V4         0.0625
     21 H3        -42.1908  -14.9833   15.8760 H         1 1V4         0.0619
     22 H4        -41.8431  -14.4225   13.4663 H         1 1V4         0.0567
     23 H5        -41.0130  -12.8508   10.3598 H         1 1V4         0.0662
     24 H6        -41.2000  -12.4201    7.9371 H         1 1V4         0.0628
     25 H7        -40.0072  -10.5192    6.8807 H         1 1V4         0.0648
     26 H8        -38.5614   -9.0864    8.2921 H         1 1V4         0.0628
     27 H9        -38.3301   -9.5343   10.6918 H         1 1V4         0.0662
@<TRIPOS>BOND
     1    1    2 1  
     2    1   12 2  
     3    2    3 2  
     4    2    4 1  
     5    4    5 ar 
     6    4   10 ar 
     7    5    6 ar 
     8    6    7 1  
     9    6    8 ar 
    10    8    9 ar 
    11    9   10 ar 
    12   10   11 1  
    13   11   12 1  
    14   12   13 1  
    15   13   14 ar 
    16   13   18 ar 
    17   14   15 ar 
    18   15   16 ar 
    19   16   17 ar 
    20   17   18 ar 
    21    1   19 1  
    22    5   20 1  
    23    8   21 1  
    24    9   22 1  
    25   14   23 1  
    26   15   24 1  
    27   16   25 1  
    28   17   26 1  
    29   18   27 1  
@<TRIPOS>SUBSTRUCTURE
     1 1V4         1

