### 
### Created by X-TOOL on Mon Sep 10 21:13:13 2018
### 

@<TRIPOS>MOLECULE
4l2k_ligand
   30    33     1     0     0
SMALL
GAST_HUCK


@<TRIPOS>ATOM
      1 CAI        -7.5080  -38.5070    9.8510 C.ar      1 1V8        -0.0235
      2 CAH        -7.3770  -38.6060    8.5130 C.ar      1 1V8         0.1296
      3 OAK        -8.0880  -39.3820    7.6380 O.3       1 1V8        -0.2893
      4 CAM        -7.8410  -38.6440    6.3460 C.3       1 1V8         0.1886
      5 OAL        -6.4930  -38.0980    6.4830 O.3       1 1V8        -0.2859
      6 CAJ        -6.4500  -37.8700    7.8320 C.ar      1 1V8         0.1306
      7 CAP        -5.6580  -37.0220    8.4820 C.ar      1 1V8        -0.0334
      8 CAO        -5.7390  -36.8920    9.8640 C.ar      1 1V8        -0.0625
      9 CAG        -6.6760  -37.6440   10.5920 C.ar      1 1V8         0.0120
     10 CAA        -6.7420  -37.4680   12.0010 C.2       1 1V8         0.1342
     11 OAC        -5.9630  -36.4410   12.4960 O.3       1 1V8        -0.2377
     12 CAF        -5.8730  -36.2150   13.8240 C.ar      1 1V8         0.1448
     13 CAR        -4.9900  -35.2410   14.2660 C.ar      1 1V8        -0.0195
     14 CAT        -4.8550  -35.0030   15.6320 C.ar      1 1V8        -0.0641
     15 CAS        -5.6250  -35.7750   16.5130 C.ar      1 1V8        -0.0657
     16 CAQ        -6.5220  -36.7400   16.0590 C.ar      1 1V8        -0.0508
     17 CAE        -6.6800  -36.9560   14.7000 C.ar      1 1V8         0.0588
     18 CAD        -7.5580  -37.9330   14.2100 C.2       1 1V8         0.1088
     19 OAN        -8.3510  -38.5400   14.9420 O.2       1 1V8        -0.4175
     20 CAB        -7.5650  -38.1930   12.8480 C.2       1 1V8         0.0062
     21 H1         -8.2605  -39.0968   10.3618 H         1 1V8         0.0551
     22 H2         -8.5754  -37.8357    6.2144 H         1 1V8         0.0977
     23 H3         -7.8956  -39.3321    5.4896 H         1 1V8         0.0977
     24 H4         -4.9416  -36.4258    7.9284 H         1 1V8         0.0531
     25 H5         -5.0765  -36.2077   10.3817 H         1 1V8         0.0554
     26 H6         -4.4083  -34.6683   13.5527 H         1 1V8         0.0575
     27 H7         -4.1753  -34.2441   16.0023 H         1 1V8         0.0628
     28 H8         -5.5194  -35.6165   17.5801 H         1 1V8         0.0550
     29 H9         -7.0967  -37.3222   16.7702 H         1 1V8         0.0640
     30 H10        -8.2168  -38.9664   12.4442 H         1 1V8         0.0380
@<TRIPOS>BOND
     1    1    2 ar 
     2    1    9 ar 
     3    2    3 1  
     4    2    6 ar 
     5    3    4 1  
     6    4    5 1  
     7    5    6 1  
     8    6    7 ar 
     9    7    8 ar 
    10    8    9 ar 
    11    9   10 1  
    12   10   11 1  
    13   10   20 2  
    14   11   12 1  
    15   12   13 ar 
    16   12   17 ar 
    17   13   14 ar 
    18   14   15 ar 
    19   15   16 ar 
    20   16   17 ar 
    21   17   18 1  
    22   18   19 2  
    23   18   20 1  
    24    1   21 1  
    25    4   22 1  
    26    4   23 1  
    27    7   24 1  
    28    8   25 1  
    29   13   26 1  
    30   14   27 1  
    31   15   28 1  
    32   16   29 1  
    33   20   30 1  
@<TRIPOS>SUBSTRUCTURE
     1 1V8         1

