### 
### Created by X-TOOL on Mon Sep 10 21:13:16 2018
### 

@<TRIPOS>MOLECULE
4l2l_ligand
   33    35     1     0     0
SMALL
GAST_HUCK


@<TRIPOS>ATOM
      1 CAE        15.9010  -11.9760   14.8680 C.ar      1 1V6        -0.0584
      2 CAC        15.9910  -10.7760   14.1970 C.ar      1 1V6        -0.0682
      3 CAB        15.2980   -9.6600   14.5890 C.ar      1 1V6        -0.0685
      4 CAD        14.5480   -9.7470   15.7740 C.ar      1 1V6        -0.0682
      5 CAF        14.5300  -10.9170   16.5010 C.ar      1 1V6        -0.0584
      6 CAO        15.0890  -12.0780   16.0010 C.ar      1 1V6        -0.0321
      7 CAL        15.0220  -13.2770   16.8040 C.3       1 1V6         0.0132
      8 CAP        13.7750  -14.0290   16.8790 C.ar      1 1V6        -0.0337
      9 CAH        13.2980  -14.5220   18.0860 C.ar      1 1V6        -0.0601
     10 CAJ        12.1080  -15.2290   18.2380 C.ar      1 1V6        -0.0640
     11 CAG        12.9300  -14.2140   15.8040 C.ar      1 1V6        -0.0601
     12 CAI        11.7160  -14.9080   15.9670 C.ar      1 1V6        -0.0640
     13 CAQ        11.2840  -15.4920   17.1620 C.ar      1 1V6        -0.0318
     14 CAS        10.0580  -16.1310   17.3480 C.2       1 1V6        -0.0005
     15 NAM         9.3920  -16.8220   16.4270 N.2       1 1V6        -0.3154
     16 CAR         8.2080  -17.4000   16.8190 C.2       1 1V6         0.1779
     17 NAA         7.3220  -18.0920   16.1070 N.pl3     1 1V6        -0.2980
     18 SAN         7.7840  -17.0110   18.3900 S.3       1 1V6         0.0151
     19 CAK         9.3820  -16.0810   18.4940 C.2       1 1V6         0.0066
     20 H          16.4579  -12.8378   14.5185 H         1 1V6         0.0561
     21 H          16.6338  -10.7119   13.3265 H         1 1V6         0.0600
     22 H          15.3275   -8.7458   14.0073 H         1 1V6         0.0561
     23 H          13.9809   -8.8895   16.1177 H         1 1V6         0.0600
     24 H          14.0694  -10.9273   17.4822 H         1 1V6         0.0561
     25 H          15.2813  -12.9865   17.8328 H         1 1V6         0.0581
     26 H          15.7862  -13.9652   16.4136 H         1 1V6         0.0581
     27 H          13.8945  -14.3439   18.9734 H         1 1V6         0.0557
     28 H          11.8224  -15.5806   19.2228 H         1 1V6         0.0582
     29 H          13.2020  -13.8234   14.8301 H         1 1V6         0.0557
     30 H          11.0682  -14.9962   15.1023 H         1 1V6         0.0582
     31 H           7.5360  -18.3559   15.1347 H         1 1V6         0.1863
     32 H           6.4222  -18.3637   16.5282 H         1 1V6         0.1863
     33 H           9.7269  -15.5570   19.3842 H         1 1V6         0.0638
@<TRIPOS>BOND
     1    1    2 ar 
     2    1    6 ar 
     3    2    3 ar 
     4    3    4 ar 
     5    4    5 ar 
     6    5    6 ar 
     7    6    7 1  
     8    7    8 1  
     9    8    9 ar 
    10    8   11 ar 
    11    9   10 ar 
    12   10   13 ar 
    13   11   12 ar 
    14   12   13 ar 
    15   13   14 1  
    16   14   15 1  
    17   14   19 2  
    18   15   16 2  
    19   16   17 1  
    20   16   18 1  
    21   18   19 1  
    22    1   20 1  
    23    2   21 1  
    24    3   22 1  
    25    4   23 1  
    26    5   24 1  
    27    7   25 1  
    28    7   26 1  
    29    9   27 1  
    30   10   28 1  
    31   11   29 1  
    32   12   30 1  
    33   17   31 1  
    34   17   32 1  
    35   19   33 1  
@<TRIPOS>SUBSTRUCTURE
     1 1V6         1

