### 
### Created by X-TOOL on Mon Sep 10 21:13:13 2018
### 

@<TRIPOS>MOLECULE
4l31_ligand
   33    35     1     0     0
SMALL
GAST_HUCK


@<TRIPOS>ATOM
      1 CAA        -5.9410  -11.7920   -4.7240 C.3       1 F08         0.0647
      2 OAB        -5.2190  -11.3490   -5.9010 O.3       1 F08        -0.2806
      3 CAC        -5.9410  -10.4360   -6.6100 C.2       1 F08         0.2648
      4 OAD        -6.2770   -9.3570   -6.1020 O.2       1 F08        -0.3558
      5 CAE        -6.1680  -10.7270   -7.9860 C.ar      1 F08         0.0648
      6 CAJ        -7.1150  -10.0280   -8.7650 C.ar      1 F08        -0.0367
      7 CAI        -7.3240  -10.3220  -10.1240 C.ar      1 F08        -0.0398
      8 CAF        -5.4560  -11.7440   -8.6280 C.ar      1 F08        -0.0367
      9 CAG        -5.6180  -12.0380   -9.9880 C.ar      1 F08        -0.0398
     10 CAH        -6.5580  -11.3410  -10.7790 C.ar      1 F08         0.0346
     11 CAK        -6.6710  -11.6820  -12.1680 C.2       1 F08         0.1473
     12 OAU        -5.9160  -12.7940  -12.5820 O.3       1 F08        -0.2351
     13 CAT        -5.7660  -13.0210  -13.9340 C.ar      1 F08         0.1453
     14 CAS        -4.8690  -14.0190  -14.3520 C.ar      1 F08        -0.0194
     15 CAR        -4.6780  -14.2450  -15.7260 C.ar      1 F08        -0.0640
     16 CAQ        -5.4050  -13.4490  -16.6290 C.ar      1 F08        -0.0656
     17 CAP        -6.3190  -12.4770  -16.1990 C.ar      1 F08        -0.0506
     18 CAO        -6.5370  -12.2660  -14.8630 C.ar      1 F08         0.0603
     19 CAM        -7.4070  -11.2580  -14.4580 C.2       1 F08         0.1150
     20 OAN        -8.1290  -10.6530  -15.2660 O.2       1 F08        -0.4133
     21 CAL        -7.3670  -10.8980  -13.1110 C.2       1 F08         0.0146
     22 H1         -5.3327  -12.5262   -4.1754 H         1 F08         0.0575
     23 H2         -6.8899  -12.2571   -5.0293 H         1 F08         0.0575
     24 H3         -6.1480  -10.9288   -4.0743 H         1 F08         0.0575
     25 H4         -7.6987   -9.2408   -8.3016 H         1 F08         0.0678
     26 H5         -8.0727   -9.7719  -10.6825 H         1 F08         0.0670
     27 H6         -4.7497  -12.3290   -8.0501 H         1 F08         0.0678
     28 H7         -5.0115  -12.8138  -10.4412 H         1 F08         0.0670
     29 H8         -4.3290  -14.6095  -13.6208 H         1 F08         0.0575
     30 H9         -3.9929  -15.0077  -16.0780 H         1 F08         0.0628
     31 H10        -5.2536  -13.5918  -17.6928 H         1 F08         0.0551
     32 H11        -6.8585  -11.8866  -16.9307 H         1 F08         0.0640
     33 H12        -7.8818   -9.9965  -12.7822 H         1 F08         0.0447
@<TRIPOS>BOND
     1    1    2 1  
     2    2    3 1  
     3    3    4 2  
     4    3    5 1  
     5    5    6 ar 
     6    5    8 ar 
     7    6    7 ar 
     8    7   10 ar 
     9    8    9 ar 
    10    9   10 ar 
    11   10   11 1  
    12   11   12 1  
    13   11   21 2  
    14   12   13 1  
    15   13   14 ar 
    16   13   18 ar 
    17   14   15 ar 
    18   15   16 ar 
    19   16   17 ar 
    20   17   18 ar 
    21   18   19 1  
    22   19   20 2  
    23   19   21 1  
    24    1   22 1  
    25    1   23 1  
    26    1   24 1  
    27    6   25 1  
    28    7   26 1  
    29    8   27 1  
    30    9   28 1  
    31   14   29 1  
    32   15   30 1  
    33   16   31 1  
    34   17   32 1  
    35   21   33 1  
@<TRIPOS>SUBSTRUCTURE
     1 F08         1

