### 
### Created by X-TOOL on Mon Sep 10 21:13:13 2018
### 

@<TRIPOS>MOLECULE
4l32_ligand
   47    50     1     0     0
SMALL
GAST_HUCK


@<TRIPOS>ATOM
      1 CAD         4.7170  -38.0360   -5.9560 C.3       1 1VF         0.0735
      2 CAC         4.4470  -39.3470   -5.1860 C.3       1 1VF        -0.0113
      3 NAB         4.2100  -39.0400   -3.7620 N.4       1 1VF         0.2359
      4 CAA         3.8670  -40.2800   -2.9970 C.3       1 1VF        -0.0429
      5 CAG         5.6030  -38.7470   -3.3150 C.3       1 1VF        -0.0113
      6 CAF         6.1710  -37.5630   -4.0010 C.3       1 1VF         0.0735
      7 NAE         6.0720  -37.7300   -5.5060 N.am      1 1VF        -0.2619
      8 CAH         7.1420  -37.6650   -6.3290 C.2       1 1VF         0.2095
      9 OAI         8.2730  -37.4440   -5.8850 O.2       1 1VF        -0.3835
     10 CAJ         7.0390  -37.6490   -7.7330 C.ar      1 1VF         0.0528
     11 CAO         7.9030  -38.3910   -8.5210 C.ar      1 1VF        -0.0380
     12 CAN         7.8560  -38.3110   -9.9080 C.ar      1 1VF        -0.0401
     13 CAK         6.1570  -36.7680   -8.3750 C.ar      1 1VF        -0.0380
     14 CAL         6.1080  -36.6780   -9.7800 C.ar      1 1VF        -0.0401
     15 CAM         6.9530  -37.4700  -10.5610 C.ar      1 1VF         0.0344
     16 CAP         6.9160  -37.3540  -11.9670 C.2       1 1VF         0.1472
     17 OAZ         6.1490  -36.3210  -12.4080 O.3       1 1VF        -0.2351
     18 CAY         6.0440  -36.0580  -13.7630 C.ar      1 1VF         0.1453
     19 CAX         5.1840  -35.0420  -14.1840 C.ar      1 1VF        -0.0194
     20 CAW         5.0080  -34.7880  -15.5450 C.ar      1 1VF        -0.0640
     21 CAV         5.6980  -35.5430  -16.4790 C.ar      1 1VF        -0.0656
     22 CAU         6.5810  -36.5560  -16.0460 C.ar      1 1VF        -0.0506
     23 CAT         6.7470  -36.8290  -14.6710 C.ar      1 1VF         0.0603
     24 CAR         7.6180  -37.8330  -14.2290 C.2       1 1VF         0.1149
     25 OAS         8.3630  -38.4510  -15.0170 O.2       1 1VF        -0.4134
     26 CAQ         7.7060  -38.0730  -12.8650 C.2       1 1VF         0.0145
     27 H1          4.0074  -37.2453   -5.6710 H         1 1VF         0.0575
     28 H2          4.6768  -38.1899   -7.0444 H         1 1VF         0.0575
     29 H3          5.3181  -40.0124   -5.2777 H         1 1VF         0.0834
     30 H4          3.5602  -39.8436   -5.6067 H         1 1VF         0.0834
     31 H5          3.5478  -38.2938   -3.6177 H         1 1VF         0.2032
     32 H6          3.6957  -40.0237   -1.9411 H         1 1VF         0.0778
     33 H7          4.6976  -40.9975   -3.0700 H         1 1VF         0.0778
     34 H8          2.9557  -40.7300   -3.4176 H         1 1VF         0.0778
     35 H9          6.2361  -39.6200   -3.5317 H         1 1VF         0.0834
     36 H10         5.5957  -38.5593   -2.2312 H         1 1VF         0.0834
     37 H11         7.2277  -37.4510   -3.7169 H         1 1VF         0.0575
     38 H12         5.6126  -36.6651   -3.6979 H         1 1VF         0.0575
     39 H13         8.6275  -39.0446   -8.0487 H         1 1VF         0.0676
     40 H14         8.5365  -38.9158  -10.4964 H         1 1VF         0.0669
     41 H15         5.5005  -36.1445   -7.7790 H         1 1VF         0.0676
     42 H16         5.4143  -35.9939  -10.2552 H         1 1VF         0.0669
     43 H17         4.6507  -34.4479  -13.4507 H         1 1VF         0.0575
     44 H18         4.3343  -34.0033  -15.8697 H         1 1VF         0.0628
     45 H19         5.5606  -35.3569  -17.5380 H         1 1VF         0.0551
     46 H20         7.1377  -37.1305  -16.7775 H         1 1VF         0.0640
     47 H21         8.3967  -38.8281  -12.4926 H         1 1VF         0.0446
@<TRIPOS>BOND
     1    1    2 1  
     2    1    7 1  
     3    2    3 1  
     4    3    4 1  
     5    3    5 1  
     6    5    6 1  
     7    6    7 1  
     8    7    8 am 
     9    8    9 2  
    10    8   10 1  
    11   10   11 ar 
    12   10   13 ar 
    13   11   12 ar 
    14   12   15 ar 
    15   13   14 ar 
    16   14   15 ar 
    17   15   16 1  
    18   16   17 1  
    19   16   26 2  
    20   17   18 1  
    21   18   19 ar 
    22   18   23 ar 
    23   19   20 ar 
    24   20   21 ar 
    25   21   22 ar 
    26   22   23 ar 
    27   23   24 1  
    28   24   25 2  
    29   24   26 1  
    30    1   27 1  
    31    1   28 1  
    32    2   29 1  
    33    2   30 1  
    34    3   31 1  
    35    4   32 1  
    36    4   33 1  
    37    4   34 1  
    38    5   35 1  
    39    5   36 1  
    40    6   37 1  
    41    6   38 1  
    42   11   39 1  
    43   12   40 1  
    44   13   41 1  
    45   14   42 1  
    46   19   43 1  
    47   20   44 1  
    48   21   45 1  
    49   22   46 1  
    50   26   47 1  
@<TRIPOS>SUBSTRUCTURE
     1 1VF         1

