### 
### Created by X-TOOL on Mon Sep 10 21:13:14 2018
### 

@<TRIPOS>MOLECULE
4l33_ligand
   34    36     1     0     0
SMALL
GAST_HUCK


@<TRIPOS>ATOM
      1 NAB       -43.0750  -12.2890    4.3200 N.1       1 F70        -0.3007
      2 CAC       -42.1600  -11.6590    4.3390 C.1       1 F70         0.1234
      3 CAD       -40.9360  -10.8350    4.5170 C.3       1 F70         0.1973
      4 OAE       -40.4300  -11.3980    5.7380 O.3       1 F70        -0.2491
      5 CAF       -39.4080  -10.8030    6.3720 C.2       1 F70         0.2670
      6 OAG       -38.4830  -10.2640    5.7370 O.2       1 F70        -0.3557
      7 CAH       -39.3830  -11.0060    7.7920 C.ar      1 F70         0.0648
      8 CAK       -38.5970  -10.2150    8.6120 C.ar      1 F70        -0.0367
      9 CAL       -38.5310  -10.4380    9.9950 C.ar      1 F70        -0.0398
     10 CAI       -40.1020  -12.0460    8.4140 C.ar      1 F70        -0.0367
     11 CAJ       -40.0510  -12.2760    9.7990 C.ar      1 F70        -0.0398
     12 CAM       -39.2590  -11.4660   10.6330 C.ar      1 F70         0.0346
     13 CAN       -39.2190  -11.6790   12.0460 C.2       1 F70         0.1473
     14 OAO       -39.9430  -12.7250   12.5170 O.3       1 F70        -0.2351
     15 CAP       -40.0480  -13.0180   13.8340 C.ar      1 F70         0.1453
     16 CAQ       -40.9080  -14.0460   14.2190 C.ar      1 F70        -0.0194
     17 CAR       -41.0620  -14.3430   15.5780 C.ar      1 F70        -0.0640
     18 CAS       -40.3130  -13.5750   16.4980 C.ar      1 F70        -0.0656
     19 CAT       -39.4670  -12.5480   16.1030 C.ar      1 F70        -0.0506
     20 CAU       -39.3040  -12.2790   14.7490 C.ar      1 F70         0.0603
     21 CAV       -38.4490  -11.2510   14.2810 C.2       1 F70         0.1150
     22 OAW       -37.6550  -10.6450   15.0080 O.2       1 F70        -0.4133
     23 CAX       -38.4250  -10.9690   12.9270 C.2       1 F70         0.0146
     24 H1        -41.1756   -9.7673    4.6287 H         1 F70         0.0916
     25 H2        -40.2304  -10.9673    3.6836 H         1 F70         0.0916
     26 H3        -38.0208   -9.4068    8.1764 H         1 F70         0.0678
     27 H4        -37.8971   -9.7970   10.5970 H         1 F70         0.0670
     28 H5        -40.7180  -12.6934    7.8004 H         1 F70         0.0678
     29 H6        -40.6281  -13.0863   10.2296 H         1 F70         0.0670
     30 H7        -41.4531  -14.6108   13.4714 H         1 F70         0.0575
     31 H8        -41.7287  -15.1301   15.9113 H         1 F70         0.0628
     32 H9        -40.4029  -13.7970   17.5552 H         1 F70         0.0551
     33 H10       -38.9377  -11.9604   16.8444 H         1 F70         0.0640
     34 H11       -37.7746  -10.1803   12.5516 H         1 F70         0.0447
@<TRIPOS>BOND
     1    1    2 3  
     2    2    3 1  
     3    3    4 1  
     4    4    5 1  
     5    5    6 2  
     6    5    7 1  
     7    7    8 ar 
     8    7   10 ar 
     9    8    9 ar 
    10    9   12 ar 
    11   10   11 ar 
    12   11   12 ar 
    13   12   13 1  
    14   13   14 1  
    15   13   23 2  
    16   14   15 1  
    17   15   16 ar 
    18   15   20 ar 
    19   16   17 ar 
    20   17   18 ar 
    21   18   19 ar 
    22   19   20 ar 
    23   20   21 1  
    24   21   22 2  
    25   21   23 1  
    26    3   24 1  
    27    3   25 1  
    28    8   26 1  
    29    9   27 1  
    30   10   28 1  
    31   11   29 1  
    32   16   30 1  
    33   17   31 1  
    34   18   32 1  
    35   19   33 1  
    36   23   34 1  
@<TRIPOS>SUBSTRUCTURE
     1 F70         1

