### 
### Created by X-TOOL on Mon Sep 10 21:13:13 2018
### 

@<TRIPOS>MOLECULE
4l34_ligand
   32    35     1     0     0
SMALL
GAST_HUCK


@<TRIPOS>ATOM
      1 CAC         7.6310   38.2080   12.7630 C.2       1 1VG         0.0142
      2 CAB         7.5280   37.9310   14.1150 C.2       1 1VG         0.1147
      3 OAA         8.3070   38.4990   14.9150 O.2       1 1VG        -0.4135
      4 CAK         6.6660   36.8970   14.5200 C.ar      1 1VG         0.0602
      5 CAJ         6.4770   36.6160   15.8550 C.ar      1 1VG        -0.0506
      6 CAI         5.6210   35.5670   16.2230 C.ar      1 1VG        -0.0656
      7 CAH         4.9460   34.8120   15.2470 C.ar      1 1VG        -0.0640
      8 CAG         5.0990   35.1150   13.8920 C.ar      1 1VG        -0.0194
      9 CAF         5.9620   36.1600   13.5610 C.ar      1 1VG         0.1451
     10 OAE         6.1210   36.4810   12.2460 O.3       1 1VG        -0.2354
     11 CAD         6.8010   37.5760   11.8510 C.2       1 1VG         0.1466
     12 CAL         6.8510   37.7250   10.4620 C.ar      1 1VG         0.0336
     13 CAQ         7.7000   38.6400    9.8520 C.ar      1 1VG        -0.0409
     14 CAP         7.7680   38.7100    8.4650 C.ar      1 1VG        -0.0401
     15 CAM         6.0660   36.8750    9.6560 C.ar      1 1VG        -0.0409
     16 CAN         6.1320   36.9550    8.2660 C.ar      1 1VG        -0.0401
     17 CAO         6.9590   37.9040    7.6740 C.ar      1 1VG         0.0430
     18 CAR         7.1020   37.8900    6.3670 C.2       1 1VG         0.1877
     19 NAV         8.3000   37.5870    5.8370 N.2       1 1VG        -0.2057
     20 NAU         8.1750   37.5640    4.7330 N.2       1 1VG        -0.1372
     21 NAT         6.8470   37.7920    4.4290 N.2       1 1VG        -0.0628
     22 NAS         6.2140   37.9690    5.4040 N.pl3     1 1VG        -0.1502
     23 H1          8.3696   38.9278   12.4134 H         1 1VG         0.0444
     24 H2          6.9848   37.1998   16.6142 H         1 1VG         0.0640
     25 H3          5.4781   35.3356   17.2723 H         1 1VG         0.0551
     26 H4          4.3044   33.9916   15.5475 H         1 1VG         0.0628
     27 H5          4.5678   34.5598   13.1274 H         1 1VG         0.0575
     28 H6          8.3101   39.3000   10.4580 H         1 1VG         0.0667
     29 H7          8.4595   39.4007    7.9960 H         1 1VG         0.0668
     30 H8          5.4052   36.1528   10.1216 H         1 1VG         0.0667
     31 H9          5.5437   36.2832    7.6514 H         1 1VG         0.0668
     32 H10         5.2022   38.1445    5.4834 H         1 1VG         0.2708
@<TRIPOS>BOND
     1    1    2 1  
     2    1   11 2  
     3    2    3 2  
     4    2    4 1  
     5    4    5 ar 
     6    4    9 ar 
     7    5    6 ar 
     8    6    7 ar 
     9    7    8 ar 
    10    8    9 ar 
    11    9   10 1  
    12   10   11 1  
    13   11   12 1  
    14   12   13 ar 
    15   12   15 ar 
    16   13   14 ar 
    17   14   17 ar 
    18   15   16 ar 
    19   16   17 ar 
    20   17   18 1  
    21   18   19 2  
    22   18   22 1  
    23   19   20 1  
    24   20   21 2  
    25   21   22 1  
    26    1   23 1  
    27    5   24 1  
    28    6   25 1  
    29    7   26 1  
    30    8   27 1  
    31   13   28 1  
    32   14   29 1  
    33   15   30 1  
    34   16   31 1  
    35   22   32 1  
@<TRIPOS>SUBSTRUCTURE
     1 1VG         1

