### 
### Created by X-TOOL on Mon Sep 10 21:13:15 2018
### 

@<TRIPOS>MOLECULE
4l3p_ligand
   52    57     1     0     0
SMALL
GAST_HUCK


@<TRIPOS>ATOM
      1 N19       -12.4900  -46.6710  -14.3740 N.pl3     1 1UH        -0.3255
      2 C18       -13.5820  -47.0540  -15.1790 C.ar      1 1UH         0.1364
      3 C12       -13.4610  -48.0850  -16.0770 C.ar      1 1UH         0.1660
      4 O11       -12.4550  -48.7500  -16.2740 O.3       1 1UH        -0.2490
      5 N17       -14.8080  -46.4170  -15.0950 N.ar      1 1UH        -0.3104
      6 C16       -15.8820  -46.8030  -15.8920 C.ar      1 1UH        -0.0250
      7 C15       -15.7690  -47.8510  -16.8150 C.ar      1 1UH        -0.0331
      8 C13       -14.5150  -48.4700  -16.8690 C.ar      1 1UH        -0.0011
      9 C14       -13.9340  -49.4910  -17.5710 C.2       1 1UH        -0.0357
     10 C10       -12.6300  -49.6070  -17.1280 C.2       1 1UH         0.1251
     11 C3        -11.5590  -50.5330  -17.5750 C.ar      1 1UH         0.0312
     12 C5        -11.7390  -51.3670  -18.6830 C.ar      1 1UH        -0.0583
     13 C6        -10.7160  -52.2210  -19.1090 C.ar      1 1UH        -0.0703
     14 C4         -9.4920  -52.2460  -18.4420 C.ar      1 1UH        -0.0660
     15 C1        -10.3210  -50.5610  -16.9290 C.ar      1 1UH         0.0507
     16 S9         -9.8020  -49.7240  -15.6470 S.3       1 1UH        -0.0354
     17 C8         -8.3380  -50.3570  -15.5630 C.2       1 1UH        -0.0027
     18 C7         -8.1710  -51.2880  -16.5610 C.2       1 1UH        -0.0608
     19 C2         -9.3070  -51.4120  -17.3520 C.ar      1 1UH        -0.0238
     20 C20       -16.9620  -48.2070  -17.6470 C.2       1 1UH        -0.0058
     21 C24       -18.2440  -47.7570  -17.4550 C.2       1 1UH         0.0608
     22 N23       -19.0240  -48.2860  -18.4030 N.pl3     1 1UH        -0.2012
     23 N22       -18.3550  -49.0230  -19.1760 N.2       1 1UH        -0.2140
     24 C21       -17.0700  -49.0130  -18.7600 C.2       1 1UH         0.0043
     25 C25       -20.4710  -48.0110  -18.4850 C.3       1 1UH         0.0920
     26 C30       -20.6960  -46.6220  -19.1100 C.3       1 1UH         0.0204
     27 C29       -22.1840  -46.2490  -19.1120 C.3       1 1UH        -0.0306
     28 N28       -22.9910  -47.3080  -19.7430 N.4       1 1UH         0.2271
     29 C27       -22.7390  -48.6920  -19.2800 C.3       1 1UH        -0.0306
     30 C26       -21.2450  -49.0510  -19.2940 C.3       1 1UH         0.0204
     31 H1        -12.5915  -45.8959  -13.7033 H         1 1UH         0.1744
     32 H2        -11.5906  -47.1662  -14.4565 H         1 1UH         0.1744
     33 H3        -16.8272  -46.2809  -15.7964 H         1 1UH         0.0609
     34 H4        -14.4112  -50.0999  -18.3375 H         1 1UH         0.0382
     35 H5        -12.6818  -51.3516  -19.2178 H         1 1UH         0.0578
     36 H6        -10.8762  -52.8680  -19.9639 H         1 1UH         0.0560
     37 H7         -8.6985  -52.9071  -18.7710 H         1 1UH         0.0575
     38 H8         -7.5835  -50.0906  -14.8243 H         1 1UH         0.0795
     39 H9         -7.2571  -51.8602  -16.7135 H         1 1UH         0.0422
     40 H10       -18.5706  -47.0831  -16.6643 H         1 1UH         0.1010
     41 H11       -16.2502  -49.5551  -19.2290 H         1 1UH         0.0668
     42 H12       -20.8732  -48.0086  -17.4612 H         1 1UH         0.0682
     43 H13       -20.3269  -46.6307  -20.1462 H         1 1UH         0.0349
     44 H14       -20.1390  -45.8725  -18.5287 H         1 1UH         0.0349
     45 H15       -22.3195  -45.3116  -19.6713 H         1 1UH         0.0815
     46 H16       -22.5216  -46.1091  -18.0745 H         1 1UH         0.0815
     47 H17       -22.8132  -47.2793  -20.7348 H         1 1UH         0.2013
     48 H18       -23.9616  -47.0985  -19.5694 H         1 1UH         0.2013
     49 H19       -23.2760  -49.3888  -19.9404 H         1 1UH         0.0815
     50 H20       -23.1175  -48.7953  -18.2524 H         1 1UH         0.0815
     51 H21       -21.1015  -50.0459  -18.8473 H         1 1UH         0.0349
     52 H22       -20.8780  -49.0582  -20.3310 H         1 1UH         0.0349
@<TRIPOS>BOND
     1    1    2 1  
     2    2    3 ar 
     3    2    5 ar 
     4    3    4 1  
     5    3    8 ar 
     6    4   10 1  
     7    5    6 ar 
     8    6    7 ar 
     9    7    8 ar 
    10    7   20 1  
    11    8    9 1  
    12    9   10 2  
    13   10   11 1  
    14   11   12 ar 
    15   11   15 ar 
    16   12   13 ar 
    17   13   14 ar 
    18   14   19 ar 
    19   15   16 1  
    20   15   19 ar 
    21   16   17 1  
    22   17   18 2  
    23   18   19 1  
    24   20   21 2  
    25   20   24 1  
    26   21   22 1  
    27   22   23 1  
    28   22   25 1  
    29   23   24 2  
    30   25   26 1  
    31   25   30 1  
    32   26   27 1  
    33   27   28 1  
    34   28   29 1  
    35   29   30 1  
    36    1   31 1  
    37    1   32 1  
    38    6   33 1  
    39    9   34 1  
    40   12   35 1  
    41   13   36 1  
    42   14   37 1  
    43   17   38 1  
    44   18   39 1  
    45   21   40 1  
    46   24   41 1  
    47   25   42 1  
    48   26   43 1  
    49   26   44 1  
    50   27   45 1  
    51   27   46 1  
    52   28   47 1  
    53   28   48 1  
    54   29   49 1  
    55   29   50 1  
    56   30   51 1  
    57   30   52 1  
@<TRIPOS>SUBSTRUCTURE
     1 1UH         1

