### 
### Created by X-TOOL on Mon Sep 10 21:13:19 2018
### 

@<TRIPOS>MOLECULE
4l4m_ligand
   45    48     1     0     0
SMALL
GAST_HUCK


@<TRIPOS>ATOM
      1 C4         14.8530    7.7070   -1.0220 C.ar      1 1XD        -0.0433
      2 C5         15.4860    8.6620   -0.2570 C.ar      1 1XD        -0.0566
      3 C6         15.8730    8.3800    1.0370 C.ar      1 1XD        -0.0209
      4 C7         16.5720    9.4460    1.8360 C.3       1 1XD         0.0640
      5 C13        15.3760    9.5740    7.3520 C.2       1 1XD         0.0827
      6 C15        13.8270   10.4590    9.1030 C.2       1 1XD         0.0537
      7 C24        15.3610    4.7650   -3.6840 C.ar      1 1XD        -0.0071
      8 C26        17.3570    3.4310   -3.6320 C.ar      1 1XD         0.0052
      9 C28        16.0850    3.7730   -1.6290 C.ar      1 1XD        -0.0071
     10 C1         15.6400    7.1290    1.5680 C.ar      1 1XD        -0.0566
     11 C2         15.0050    6.1680    0.8020 C.ar      1 1XD        -0.0433
     12 C3         14.6060    6.4640   -0.4870 C.ar      1 1XD         0.0864
     13 N8         16.1930    9.5060    3.2500 N.am      1 1XD        -0.2746
     14 C9         15.1180   10.2090    3.6690 C.2       1 1XD         0.2068
     15 O10        14.4190   10.8060    2.8690 O.2       1 1XD        -0.3834
     16 C11        14.8080   10.2470    5.1150 C.2       1 1XD         0.0501
     17 C12        15.6370    9.5500    6.0330 C.2       1 1XD        -0.0099
     18 N14        14.3070   10.2740    7.8370 N.pl3     1 1XD        -0.2067
     19 C16        12.7300   11.2500    9.0120 C.2       1 1XD        -0.0296
     20 N17        12.5350   11.5440    7.7250 N.2       1 1XD        -0.3406
     21 C18        13.4780   10.9670    6.9880 C.2       1 1XD         0.1417
     22 C19        13.7240   10.9610    5.5990 C.2       1 1XD         0.0040
     23 S20        13.8130    5.2510   -1.4800 S.o2      1 1XD         0.0204
     24 O21        13.2890    4.2640   -0.6030 O.2       1 1XD        -0.1653
     25 O22        13.0270    5.9580   -2.4310 O.2       1 1XD        -0.1653
     26 C23        15.1780    4.5390   -2.3340 C.ar      1 1XD         0.0892
     27 C25        16.4510    4.2070   -4.3360 C.ar      1 1XD         0.1325
     28 C27        17.1750    3.2140   -2.2760 C.ar      1 1XD         0.1325
     29 F29        18.0590    2.4580   -1.5840 F         1 1XD        -0.1844
     30 F30        16.6300    4.4190   -5.6600 F         1 1XD        -0.1844
     31 H          14.5517    7.9335   -2.0384 H         1 1XD         0.0618
     32 H          15.6816    9.6428   -0.6750 H         1 1XD         0.0558
     33 H          16.3433   10.4203    1.3795 H         1 1XD         0.0683
     34 H          17.6547    9.2600    1.7802 H         1 1XD         0.0683
     35 H          16.0222    9.0308    8.0399 H         1 1XD         0.1195
     36 H          14.2489   10.0462   10.0182 H         1 1XD         0.0810
     37 H          14.6545    5.3770   -4.2330 H         1 1XD         0.0588
     38 H          18.2079    2.9938   -4.1418 H         1 1XD         0.0590
     39 H          15.9439    3.6087   -0.5669 H         1 1XD         0.0588
     40 H          15.9528    6.8998    2.5803 H         1 1XD         0.0558
     41 H          14.8204    5.1822    1.2134 H         1 1XD         0.0618
     42 H          16.7448    9.0134    3.9230 H         1 1XD         0.1871
     43 H          16.4947    8.9891    5.6645 H         1 1XD         0.0572
     44 H          12.1145   11.5871    9.8448 H         1 1XD         0.0506
     45 H          13.0730   11.5082    4.9189 H         1 1XD         0.0663
@<TRIPOS>BOND
     1    1    2 ar 
     2   12    1 ar 
     3    2    3 ar 
     4    3    4 1  
     5   10    3 ar 
     6    4   13 1  
     7   17    5 2  
     8    5   18 1  
     9   18    6 1  
    10   19    6 2  
    11   26    7 ar 
    12    7   27 ar 
    13   27    8 ar 
    14   28    8 ar 
    15   26    9 ar 
    16    9   28 ar 
    17   11   10 ar 
    18   12   11 ar 
    19   23   12 1  
    20   13   14 am 
    21   14   15 2  
    22   14   16 1  
    23   16   17 1  
    24   16   22 2  
    25   21   18 1  
    26   20   19 1  
    27   21   20 2  
    28   22   21 1  
    29   23   24 2  
    30   23   25 2  
    31   23   26 1  
    32   27   30 1  
    33   28   29 1  
    34    1   31 1  
    35    2   32 1  
    36    4   33 1  
    37    4   34 1  
    38    5   35 1  
    39    6   36 1  
    40    7   37 1  
    41    8   38 1  
    42    9   39 1  
    43   10   40 1  
    44   11   41 1  
    45   13   42 1  
    46   17   43 1  
    47   19   44 1  
    48   22   45 1  
@<TRIPOS>SUBSTRUCTURE
     1 1XD         1

