### 
### Created by X-TOOL on Mon Sep 10 21:13:13 2018
### 

@<TRIPOS>MOLECULE
4l4v_ligand
   39    40     1     0     0
SMALL
GAST_HUCK


@<TRIPOS>ATOM
      1 O7        -88.9240   68.3680   95.5920 O.3       1 1VY        -0.2755
      2 C7        -90.0850   67.8550   95.0850 C.2       1 1VY         0.2674
      3 C6        -90.8350   68.7030   94.2740 C.2       1 1VY         0.1030
      4 C9        -90.4030   70.0330   94.0510 C.3       1 1VY        -0.0193
      5 N5        -91.9660   68.2340   93.7060 N.2       1 1VY        -0.2664
      6 C4A       -92.3650   66.9530   93.9090 C.2       1 1VY         0.1746
      7 C4        -93.5910   66.4900   93.4030 C.2       1 1VY         0.2465
      8 O4        -94.3580   67.2580   92.8120 O.2       1 1VY        -0.3814
      9 N3        -94.0220   65.2430   93.7170 N.am      1 1VY        -0.2017
     10 C2        -93.2350   64.4140   94.4580 C.2       1 1VY         0.2236
     11 O2        -93.5520   63.2410   94.6730 O.2       1 1VY        -0.4020
     12 N1        -92.0590   64.8580   94.9590 N.2       1 1VY        -0.2916
     13 C8A       -91.6010   66.1060   94.7220 C.2       1 1VY         0.1666
     14 N8        -90.4500   66.5710   95.2940 N.pl3     1 1VY        -0.1729
     15 C1'       -89.6910   65.7840   96.2960 C.3       1 1VY         0.0993
     16 C2'       -88.4650   65.0080   95.8550 C.3       1 1VY         0.1121
     17 O2'       -87.6330   65.8090   94.9800 O.3       1 1VY        -0.3863
     18 C3'       -88.8790   63.6780   95.2190 C.3       1 1VY         0.1116
     19 O3'       -90.1060   63.1520   95.8230 O.3       1 1VY        -0.3865
     20 C4'       -87.7150   62.6570   95.2370 C.3       1 1VY         0.1065
     21 O4'       -88.1510   61.5800   94.4560 O.3       1 1VY        -0.3869
     22 C5'       -87.4760   62.0780   96.6220 C.3       1 1VY         0.0727
     23 O5'       -86.0910   61.9780   97.0210 O.3       1 1VY        -0.3924
     24 H1        -88.1861   67.8778   95.2489 H         1 1VY         0.2689
     25 H2        -91.1182   70.5449   93.3903 H         1 1VY         0.0350
     26 H3        -89.4101   70.0216   93.5778 H         1 1VY         0.0350
     27 H4        -90.3453   70.5657   95.0116 H         1 1VY         0.0350
     28 H5        -94.9192   64.9315   93.4040 H         1 1VY         0.2240
     29 H6        -90.3921   65.0565   96.7309 H         1 1VY         0.0655
     30 H7        -89.3625   66.4876   97.0751 H         1 1VY         0.0655
     31 H8        -87.8717   64.7760   96.7517 H         1 1VY         0.0649
     32 H9        -86.8729   65.3033   94.7173 H         1 1VY         0.2100
     33 H10       -89.1070   63.8822   94.1625 H         1 1VY         0.0647
     34 H11       -90.8111   63.7767   95.7002 H         1 1VY         0.2100
     35 H12       -86.7944   63.1103   94.8408 H         1 1VY         0.0643
     36 H13       -87.4732   60.9149   94.4291 H         1 1VY         0.2100
     37 H14       -87.9102   61.0676   96.6471 H         1 1VY         0.0584
     38 H15       -87.9940   62.7180   97.3515 H         1 1VY         0.0584
     39 H16       -86.0402   61.6078   97.8944 H         1 1VY         0.2095
@<TRIPOS>BOND
     1    1    2 1  
     2    2    3 2  
     3    2   14 1  
     4    3    4 1  
     5    3    5 1  
     6    5    6 2  
     7    6    7 1  
     8    6   13 1  
     9    7    8 2  
    10    7    9 am 
    11    9   10 am 
    12   10   11 2  
    13   10   12 1  
    14   12   13 2  
    15   13   14 1  
    16   14   15 1  
    17   15   16 1  
    18   16   17 1  
    19   16   18 1  
    20   18   19 1  
    21   18   20 1  
    22   20   21 1  
    23   20   22 1  
    24   22   23 1  
    25    1   24 1  
    26    4   25 1  
    27    4   26 1  
    28    4   27 1  
    29    9   28 1  
    30   15   29 1  
    31   15   30 1  
    32   16   31 1  
    33   17   32 1  
    34   18   33 1  
    35   19   34 1  
    36   20   35 1  
    37   21   36 1  
    38   22   37 1  
    39   22   38 1  
    40   23   39 1  
@<TRIPOS>SUBSTRUCTURE
     1 1VY         1

