### 
### Created by X-TOOL on Mon Sep 10 21:13:14 2018
### 

@<TRIPOS>MOLECULE
4l52_ligand
   54    59     1     0     0
SMALL
GAST_HUCK


@<TRIPOS>ATOM
      1 O1        -23.4860  -49.9850  -21.7180 O.2       1 1UL        -0.3972
      2 C1        -23.1710  -48.9010  -21.2410 C.2       1 1UL         0.1754
      3 C23       -23.2970  -47.6570  -22.0790 C.3       1 1UL         0.0258
      4 N1        -22.7170  -48.7900  -19.9750 N.am      1 1UL        -0.2732
      5 C22       -22.2970  -47.5400  -19.3310 C.3       1 1UL         0.0368
      6 C21       -20.7770  -47.6780  -19.2010 C.3       1 1UL         0.0004
      7 C4        -20.4430  -48.8850  -18.3240 C.3       1 1UL         0.0861
      8 C3        -21.0530  -50.1550  -18.9320 C.3       1 1UL         0.0004
      9 C2        -22.5600  -49.9570  -19.0980 C.3       1 1UL         0.0368
     10 N2        -18.9790  -49.0340  -18.0900 N.pl3     1 1UL        -0.2015
     11 C7        -18.1710  -48.4020  -17.2550 C.2       1 1UL         0.0608
     12 C6        -16.9060  -48.9540  -17.4090 C.2       1 1UL        -0.0059
     13 C5        -17.0190  -49.9520  -18.3810 C.2       1 1UL         0.0043
     14 N3        -18.3020  -50.0230  -18.8100 N.2       1 1UL        -0.2140
     15 C8        -15.7730  -48.5470  -16.6950 C.ar      1 1UL        -0.0332
     16 C14       -15.8840  -47.4800  -15.7990 C.ar      1 1UL        -0.0252
     17 N4        -14.8370  -47.0280  -15.0790 N.ar      1 1UL        -0.3105
     18 C13       -13.6290  -47.5950  -15.1700 C.ar      1 1UL         0.1363
     19 N5        -12.5820  -47.1410  -14.4430 N.pl3     1 1UL        -0.3255
     20 C12       -13.4970  -48.6500  -16.0360 C.ar      1 1UL         0.1658
     21 C9        -14.5170  -49.1510  -16.7920 C.ar      1 1UL        -0.0015
     22 O2        -12.3240  -49.3860  -16.2870 O.3       1 1UL        -0.2490
     23 C11       -12.5360  -50.3010  -17.1350 C.2       1 1UL         0.1268
     24 C10       -13.8880  -50.2250  -17.5140 C.2       1 1UL        -0.0360
     25 C15       -11.5830  -51.1800  -17.6190 C.ar      1 1UL         0.0424
     26 C20       -10.3400  -51.2200  -17.0240 C.ar      1 1UL         0.0895
     27 S          -9.8850  -50.2280  -15.6310 S.3       1 1UL         0.0641
     28 N7         -8.2640  -50.9700  -15.6220 N.2       1 1UL        -0.1193
     29 N6         -8.2150  -51.9210  -16.6880 N.2       1 1UL        -0.1626
     30 C19        -9.3290  -52.0640  -17.4680 C.ar      1 1UL         0.1015
     31 C18        -9.5790  -52.8870  -18.5630 C.ar      1 1UL        -0.0355
     32 C17       -10.8250  -52.8490  -19.1970 C.ar      1 1UL        -0.0603
     33 C16       -11.8190  -51.9900  -18.7350 C.ar      1 1UL        -0.0503
     34 H1        -22.9722  -46.7852  -21.4922 H         1 1UL         0.0467
     35 H2        -24.3458  -47.5242  -22.3829 H         1 1UL         0.0467
     36 H3        -22.6651  -47.7524  -22.9743 H         1 1UL         0.0467
     37 H4        -22.7653  -47.4342  -18.3413 H         1 1UL         0.0523
     38 H5        -22.5582  -46.6725  -19.9549 H         1 1UL         0.0523
     39 H6        -20.3649  -46.7672  -18.7420 H         1 1UL         0.0316
     40 H7        -20.3357  -47.8177  -20.1989 H         1 1UL         0.0316
     41 H8        -20.9142  -48.7233  -17.3433 H         1 1UL         0.0680
     42 H9        -20.8652  -51.0094  -18.2652 H         1 1UL         0.0316
     43 H10       -20.5968  -50.3490  -19.9139 H         1 1UL         0.0316
     44 H11       -23.0144  -50.8463  -19.5591 H         1 1UL         0.0523
     45 H12       -23.0311  -49.7686  -18.1220 H         1 1UL         0.0523
     46 H13       -18.4464  -47.5984  -16.5736 H         1 1UL         0.1009
     47 H14       -16.2015  -50.5764  -18.7384 H         1 1UL         0.0668
     48 H15       -16.8474  -46.9979  -15.6783 H         1 1UL         0.0608
     49 H16       -11.6606  -47.5931  -14.5292 H         1 1UL         0.1744
     50 H17       -12.7064  -46.3433  -13.8034 H         1 1UL         0.1744
     51 H18       -14.3796  -50.8741  -18.2371 H         1 1UL         0.0378
     52 H19        -8.8075  -53.5574  -18.9242 H         1 1UL         0.0660
     53 H20       -11.0175  -53.4897  -20.0500 H         1 1UL         0.0581
     54 H21       -12.7769  -51.9489  -19.2408 H         1 1UL         0.0645
@<TRIPOS>BOND
     1    1    2 2  
     2    2    3 1  
     3    2    4 am 
     4    4    5 1  
     5    4    9 1  
     6    5    6 1  
     7    6    7 1  
     8    7    8 1  
     9    7   10 1  
    10    8    9 1  
    11   10   11 1  
    12   10   14 1  
    13   11   12 2  
    14   12   13 1  
    15   12   15 1  
    16   13   14 2  
    17   15   16 ar 
    18   15   21 ar 
    19   16   17 ar 
    20   17   18 ar 
    21   18   19 1  
    22   18   20 ar 
    23   20   21 ar 
    24   20   22 1  
    25   21   24 1  
    26   22   23 1  
    27   23   24 2  
    28   23   25 1  
    29   25   26 ar 
    30   25   33 ar 
    31   26   27 1  
    32   26   30 ar 
    33   27   28 1  
    34   28   29 2  
    35   29   30 1  
    36   30   31 ar 
    37   31   32 ar 
    38   32   33 ar 
    39    3   34 1  
    40    3   35 1  
    41    3   36 1  
    42    5   37 1  
    43    5   38 1  
    44    6   39 1  
    45    6   40 1  
    46    7   41 1  
    47    8   42 1  
    48    8   43 1  
    49    9   44 1  
    50    9   45 1  
    51   11   46 1  
    52   13   47 1  
    53   16   48 1  
    54   19   49 1  
    55   19   50 1  
    56   24   51 1  
    57   31   52 1  
    58   32   53 1  
    59   33   54 1  
@<TRIPOS>SUBSTRUCTURE
     1 1UL         1

