### 
### Created by X-TOOL on Mon Sep 10 21:13:15 2018
### 

@<TRIPOS>MOLECULE
4l53_ligand
   51    56     1     0     0
SMALL
GAST_HUCK


@<TRIPOS>ATOM
      1 O1        -24.8830  -48.2210  -19.3900 O.3       1 1UO        -0.3918
      2 C2        -23.4600  -48.3350  -19.4590 C.3       1 1UO         0.0555
      3 C4        -22.8210  -47.3990  -18.4290 C.3       1 1UO        -0.0239
      4 C5        -21.2960  -47.5340  -18.4750 C.3       1 1UO        -0.0178
      5 C6        -20.8990  -48.9810  -18.1960 C.3       1 1UO         0.0826
      6 C8        -21.5200  -49.9000  -19.2070 C.3       1 1UO        -0.0178
      7 C9        -23.0460  -49.7770  -19.1530 C.3       1 1UO        -0.0239
      8 N10       -19.4350  -49.0730  -18.1600 N.pl3     1 1UO        -0.2016
      9 C11       -18.6250  -48.5830  -17.1990 C.2       1 1UO         0.0608
     10 C12       -17.3250  -48.8950  -17.5080 C.2       1 1UO        -0.0059
     11 C13       -17.3880  -49.5780  -18.7450 C.2       1 1UO         0.0043
     12 N14       -18.6380  -49.7050  -19.1170 N.2       1 1UO        -0.2141
     13 C15       -16.0980  -48.4990  -16.7440 C.ar      1 1UO        -0.0328
     14 C16       -16.2010  -47.3640  -15.9250 C.ar      1 1UO        -0.0251
     15 N17       -15.1860  -46.8820  -15.2280 N.ar      1 1UO        -0.3104
     16 C18       -13.9900  -47.4210  -15.2600 C.ar      1 1UO         0.1365
     17 N19       -12.9480  -46.8790  -14.5000 N.pl3     1 1UO        -0.3255
     18 C20       -13.7660  -48.5400  -16.0500 C.ar      1 1UO         0.1666
     19 O21       -12.6550  -49.2390  -16.2460 O.3       1 1UO        -0.2478
     20 C22       -12.8270  -50.2480  -17.0970 C.2       1 1UO         0.1414
     21 C23       -11.6860  -51.1080  -17.4890 C.ar      1 1UO         0.0433
     22 C24       -11.6960  -51.9960  -18.5840 C.ar      1 1UO        -0.0501
     23 C25       -10.5680  -52.7520  -18.8860 C.ar      1 1UO        -0.0602
     24 C26        -9.4130  -52.6410  -18.1420 C.ar      1 1UO        -0.0355
     25 C27        -9.3510  -51.7430  -17.0540 C.ar      1 1UO         0.1016
     26 N28        -8.3640  -51.4500  -16.1990 N.2       1 1UO        -0.1626
     27 N29        -8.5540  -50.5850  -15.2840 N.2       1 1UO        -0.1192
     28 S30       -10.0120  -50.0170  -15.3590 S.3       1 1UO         0.0642
     29 C31       -10.5020  -50.9840  -16.7490 C.ar      1 1UO         0.0897
     30 C32       -14.1350  -50.2600  -17.4950 C.2       1 1UO         0.0640
     31 CL3       -14.8240  -51.4150  -18.5950 Cl        1 1UO        -0.0956
     32 C34       -14.8020  -49.1260  -16.8150 C.ar      1 1UO         0.0124
     33 H1        -25.2775  -48.8022  -20.0295 H         1 1UO         0.2098
     34 H2        -23.1185  -48.0603  -20.4679 H         1 1UO         0.0593
     35 H3        -23.1801  -47.6639  -17.4236 H         1 1UO         0.0291
     36 H4        -23.1019  -46.3602  -18.6568 H         1 1UO         0.0291
     37 H5        -20.8478  -46.8786  -17.7137 H         1 1UO         0.0297
     38 H6        -20.9328  -47.2408  -19.4711 H         1 1UO         0.0297
     39 H7        -21.2828  -49.2646  -17.2049 H         1 1UO         0.0679
     40 H8        -21.2293  -50.9373  -18.9845 H         1 1UO         0.0297
     41 H9        -21.1673  -49.6280  -20.2128 H         1 1UO         0.0297
     42 H10       -23.4935  -50.4515  -19.8978 H         1 1UO         0.0291
     43 H11       -23.3995  -50.0534  -18.1487 H         1 1UO         0.0291
     44 H12       -18.9504  -48.0291  -16.3197 H         1 1UO         0.1009
     45 H13       -16.5276  -49.9432  -19.3038 H         1 1UO         0.0668
     46 H14       -17.1578  -46.8586  -15.8608 H         1 1UO         0.0609
     47 H15       -12.0118  -47.3074  -14.5301 H         1 1UO         0.1744
     48 H16       -13.1170  -46.0516  -13.9104 H         1 1UO         0.1744
     49 H17       -12.5873  -52.0901  -19.1937 H         1 1UO         0.0646
     50 H18       -10.5979  -53.4413  -19.7221 H         1 1UO         0.0581
     51 H19        -8.5489  -53.2454  -18.3931 H         1 1UO         0.0661
@<TRIPOS>BOND
     1    1    2 1  
     2    2    3 1  
     3    2    7 1  
     4    3    4 1  
     5    4    5 1  
     6    5    6 1  
     7    5    8 1  
     8    6    7 1  
     9    8    9 1  
    10    8   12 1  
    11    9   10 2  
    12   10   11 1  
    13   10   13 1  
    14   11   12 2  
    15   13   14 ar 
    16   13   32 ar 
    17   14   15 ar 
    18   15   16 ar 
    19   16   17 1  
    20   16   18 ar 
    21   18   19 1  
    22   18   32 ar 
    23   19   20 1  
    24   20   21 1  
    25   20   30 2  
    26   21   22 ar 
    27   21   29 ar 
    28   22   23 ar 
    29   23   24 ar 
    30   24   25 ar 
    31   25   26 1  
    32   25   29 ar 
    33   26   27 2  
    34   27   28 1  
    35   28   29 1  
    36   30   31 1  
    37   30   32 1  
    38    1   33 1  
    39    2   34 1  
    40    3   35 1  
    41    3   36 1  
    42    4   37 1  
    43    4   38 1  
    44    5   39 1  
    45    6   40 1  
    46    6   41 1  
    47    7   42 1  
    48    7   43 1  
    49    9   44 1  
    50   11   45 1  
    51   14   46 1  
    52   17   47 1  
    53   17   48 1  
    54   22   49 1  
    55   23   50 1  
    56   24   51 1  
@<TRIPOS>SUBSTRUCTURE
     1 1UO         1

