### 
### Created by X-TOOL on Mon Sep 10 21:13:13 2018
### 

@<TRIPOS>MOLECULE
4l6s_ligand
   48    51     1     0     0
SMALL
GAST_HUCK


@<TRIPOS>ATOM
      1 C1          7.9080   -2.1170   -6.8360 C.3       1 1WQ        -0.0169
      2 C2          9.3750   -2.5360   -6.8470 C.3       1 1WQ         0.1672
      3 O4          9.5110   -3.9190   -7.3350 O.3       1 1WQ        -0.3048
      4 C5         10.7130   -4.5530   -7.1410 C.ar      1 1WQ         0.1089
      5 C6         11.1150   -5.5690   -8.0030 C.ar      1 1WQ        -0.0521
      6 C7         12.3440   -6.2070   -7.7930 C.ar      1 1WQ        -0.0794
      7 C8         13.1650   -5.8190   -6.7400 C.ar      1 1WQ        -0.0231
      8 C9         14.4630   -6.5520   -6.5620 C.3       1 1WQ        -0.0047
      9 N10        15.6460   -5.8370   -7.0120 N.4       1 1WQ         0.2583
     10 C11        15.5160   -5.4490   -8.4260 C.3       1 1WQ        -0.0226
     11 C12        16.6930   -4.5860   -8.7940 C.3       1 1WQ         0.0123
     12 C13        17.9310   -5.3870   -8.5250 C.2       1 1WQ        -0.0402
     13 C14        17.9970   -6.3470   -7.6160 C.2       1 1WQ        -0.0370
     14 C15        16.8120   -6.7150   -6.7650 C.3       1 1WQ        -0.0075
     15 C16        19.1150   -5.1110   -9.3350 C.ar      1 1WQ        -0.0321
     16 C17        18.9940   -4.8730  -10.7170 C.ar      1 1WQ        -0.0596
     17 C18        20.1350   -4.6440  -11.4730 C.ar      1 1WQ        -0.0518
     18 C19        21.3780   -4.6680  -10.8400 C.ar      1 1WQ         0.0362
     19 CL         22.8330   -4.3800  -11.7320 Cl        1 1WQ        -0.0740
     20 C21        21.5000   -4.9190   -9.4830 C.ar      1 1WQ        -0.0518
     21 C22        20.3730   -5.1510   -8.7260 C.ar      1 1WQ        -0.0596
     22 C23        12.7740   -4.8050   -5.8590 C.ar      1 1WQ        -0.0428
     23 C24        11.5710   -4.1410   -6.0980 C.ar      1 1WQ         0.0904
     24 N25        11.0820   -3.1840   -5.2090 N.am      1 1WQ        -0.2355
     25 C26         9.9750   -2.4380   -5.4510 C.2       1 1WQ         0.2338
     26 O27         9.5260   -1.6910   -4.5610 O.2       1 1WQ        -0.3830
     27 H1          7.8247   -1.0832   -6.4695 H         1 1WQ         0.0283
     28 H2          7.3401   -2.7875   -6.1743 H         1 1WQ         0.0283
     29 H3          7.5015   -2.1781   -7.8563 H         1 1WQ         0.0283
     30 H4          9.9274   -1.8637   -7.5199 H         1 1WQ         0.0889
     31 H5         10.4812   -5.8645   -8.8313 H         1 1WQ         0.0479
     32 H6         12.6566   -7.0069   -8.4544 H         1 1WQ         0.0403
     33 H7         14.4010   -7.4949   -7.1250 H         1 1WQ         0.0957
     34 H8         14.5854   -6.7717   -5.4911 H         1 1WQ         0.0957
     35 H9         15.7519   -4.9965   -6.4657 H         1 1WQ         0.2063
     36 H10        14.5826   -4.8855   -8.5720 H         1 1WQ         0.0834
     37 H11        15.5037   -6.3491   -9.0582 H         1 1WQ         0.0834
     38 H12        16.6956   -3.6715   -8.1827 H         1 1WQ         0.0436
     39 H13        16.6434   -4.3151   -9.8590 H         1 1WQ         0.0436
     40 H14        18.9342   -6.8849   -7.4805 H         1 1WQ         0.0601
     41 H15        16.5259   -7.7535   -6.9879 H         1 1WQ         0.0973
     42 H16        17.0983   -6.6327   -5.7061 H         1 1WQ         0.0973
     43 H17        18.0172   -4.8686  -11.1871 H         1 1WQ         0.0587
     44 H18        20.0617   -4.4498  -12.5370 H         1 1WQ         0.0612
     45 H19        22.4793   -4.9328   -9.0185 H         1 1WQ         0.0612
     46 H20        20.4606   -5.3629   -7.6665 H         1 1WQ         0.0587
     47 H21        13.3927   -4.5411   -5.0089 H         1 1WQ         0.0409
     48 H22        11.5724   -3.0404   -4.3494 H         1 1WQ         0.2223
@<TRIPOS>BOND
     1    1    2 1  
     2    2    3 1  
     3    2   25 1  
     4    3    4 1  
     5    4    5 ar 
     6    4   23 ar 
     7    5    6 ar 
     8    6    7 ar 
     9    7    8 1  
    10    7   22 ar 
    11    8    9 1  
    12    9   10 1  
    13    9   14 1  
    14   10   11 1  
    15   11   12 1  
    16   12   13 2  
    17   12   15 1  
    18   13   14 1  
    19   15   16 ar 
    20   15   21 ar 
    21   16   17 ar 
    22   17   18 ar 
    23   18   19 1  
    24   18   20 ar 
    25   20   21 ar 
    26   22   23 ar 
    27   23   24 1  
    28   24   25 am 
    29   25   26 2  
    30    1   27 1  
    31    1   28 1  
    32    1   29 1  
    33    2   30 1  
    34    5   31 1  
    35    6   32 1  
    36    8   33 1  
    37    8   34 1  
    38    9   35 1  
    39   10   36 1  
    40   10   37 1  
    41   11   38 1  
    42   11   39 1  
    43   13   40 1  
    44   14   41 1  
    45   14   42 1  
    46   16   43 1  
    47   17   44 1  
    48   20   45 1  
    49   21   46 1  
    50   22   47 1  
    51   24   48 1  
@<TRIPOS>SUBSTRUCTURE
     1 1WQ         1

