### 
### Created by X-TOOL on Mon Sep 10 21:13:17 2018
### 

@<TRIPOS>MOLECULE
4l70_ligand
   46    48     1     0     0
SMALL
GAST_HUCK


@<TRIPOS>ATOM
      1 CAI        24.4440   -1.8340   12.1930 C.ar      1 1V9        -0.0581
      2 CAE        25.2160   -0.8850   11.5130 C.ar      1 1V9        -0.0685
      3 CAD        25.3290    0.4160   12.0180 C.ar      1 1V9        -0.0687
      4 CAF        24.6490    0.7250   13.1950 C.ar      1 1V9        -0.0685
      5 CAJ        23.8700   -0.1950   13.8640 C.ar      1 1V9        -0.0581
      6 CAT        23.7560   -1.4930   13.3760 C.ar      1 1V9        -0.0180
      7 CAY        22.9680   -2.4100   14.0820 C.3       1 1V9         0.0752
      8 CAM        23.9200   -3.2750   14.8780 C.3       1 1V9        -0.0228
      9 CAA        23.0590   -3.8970   15.9860 C.3       1 1V9        -0.0614
     10 NAQ        22.0560   -3.1830   13.1660 N.am      1 1V9        -0.2724
     11 CAS        20.7100   -3.0340   13.2300 C.2       1 1V9         0.1812
     12 OAB        20.1470   -2.2500   13.9990 O.2       1 1V9        -0.3967
     13 CAN        19.8540   -3.8980   12.2940 C.3       1 1V9         0.0574
     14 CAO        19.0970   -4.8820   13.2050 C.3       1 1V9         0.0553
     15 CAU        18.1780   -5.6900   12.5020 C.2       1 1V9         0.1451
     16 NAP        18.5300   -6.9310   12.1520 N.2       1 1V9        -0.3081
     17 CAW        17.6920   -7.7280   11.4730 C.ar      1 1V9         0.0126
     18 CAK        18.1190   -9.0160   11.2150 C.ar      1 1V9        -0.0538
     19 CAG        17.2730   -9.9090   10.5240 C.ar      1 1V9        -0.0665
     20 CAH        16.0010   -9.4740   10.1490 C.ar      1 1V9        -0.0653
     21 CAL        15.5850   -8.1520   10.4370 C.ar      1 1V9        -0.0503
     22 CAX        16.4070   -7.2950   11.1170 C.ar      1 1V9         0.0597
     23 CAV        15.9820   -5.9860   11.4540 C.2       1 1V9         0.2358
     24 OAC        14.8460   -5.5160   11.1700 O.2       1 1V9        -0.3858
     25 NAR        16.9150   -5.2060   12.1570 N.am      1 1V9        -0.1938
     26 H          24.3740   -2.8439   11.8055 H         1 1V9         0.0557
     27 H          25.7261   -1.1571   10.5960 H         1 1V9         0.0599
     28 H          25.9282    1.1617   11.5082 H         1 1V9         0.0559
     29 H          24.7360    1.7269   13.5997 H         1 1V9         0.0599
     30 H          23.3470    0.0925   14.7689 H         1 1V9         0.0557
     31 H          22.3304   -1.8582   14.7884 H         1 1V9         0.0719
     32 H          24.7263   -2.6650   15.3114 H         1 1V9         0.0307
     33 H          24.3552   -4.0588   14.2406 H         1 1V9         0.0307
     34 H          23.6847   -4.5470   16.6152 H         1 1V9         0.0232
     35 H          22.2521   -4.4918   15.5331 H         1 1V9         0.0232
     36 H          22.6232   -3.0980   16.6038 H         1 1V9         0.0232
     37 H          22.4497   -3.8164   12.4998 H         1 1V9         0.1881
     38 H          20.4939   -4.4460   11.5868 H         1 1V9         0.0538
     39 H          19.1443   -3.2700   11.7355 H         1 1V9         0.0538
     40 H          18.5476   -4.3053   13.9636 H         1 1V9         0.0589
     41 H          19.8301   -5.5353   13.7008 H         1 1V9         0.0589
     42 H          19.1005   -9.3395   11.5422 H         1 1V9         0.0554
     43 H          17.6047  -10.9139   10.2888 H         1 1V9         0.0627
     44 H          15.3287  -10.1514    9.6350 H         1 1V9         0.0553
     45 H          14.6060   -7.8153   10.1158 H         1 1V9         0.0643
     46 H          16.6663   -4.2735   12.4189 H         1 1V9         0.2533
@<TRIPOS>BOND
     1    1    2 ar 
     2    1    6 ar 
     3    2    3 ar 
     4    3    4 ar 
     5    4    5 ar 
     6    5    6 ar 
     7    6    7 1  
     8    7    8 1  
     9    7   10 1  
    10    8    9 1  
    11   10   11 am 
    12   11   12 2  
    13   11   13 1  
    14   13   14 1  
    15   14   15 1  
    16   15   16 2  
    17   15   25 1  
    18   16   17 1  
    19   17   18 ar 
    20   17   22 ar 
    21   18   19 ar 
    22   19   20 ar 
    23   20   21 ar 
    24   21   22 ar 
    25   22   23 1  
    26   23   24 2  
    27   23   25 am 
    28    1   26 1  
    29    2   27 1  
    30    3   28 1  
    31    4   29 1  
    32    5   30 1  
    33    7   31 1  
    34    8   32 1  
    35    8   33 1  
    36    9   34 1  
    37    9   35 1  
    38    9   36 1  
    39   10   37 1  
    40   13   38 1  
    41   13   39 1  
    42   14   40 1  
    43   14   41 1  
    44   18   42 1  
    45   19   43 1  
    46   20   44 1  
    47   21   45 1  
    48   25   46 1  
@<TRIPOS>SUBSTRUCTURE
     1 1V9         1

