### 
### Created by X-TOOL on Mon Sep 10 21:13:20 2018
### 

@<TRIPOS>MOLECULE
4l7b_ligand
   58    62     1     0     0
SMALL
GAST_HUCK


@<TRIPOS>ATOM
      1 C16        -6.4000   -0.5420  -24.2500 C.ar      1 1VV        -0.0523
      2 C17        -6.1430    0.4420  -23.3090 C.ar      1 1VV        -0.0523
      3 C3         -2.9530    6.8750  -31.3880 C.ar      1 1VV        -0.0755
      4 C4         -3.4830    7.3060  -30.1960 C.ar      1 1VV        -0.0754
      5 C15        -6.3710   -0.2630  -25.6010 C.ar      1 1VV        -0.0372
      6 C18        -5.8490    1.7380  -23.6850 C.ar      1 1VV        -0.0372
      7 C2         -2.7080    5.5360  -31.5760 C.ar      1 1VV        -0.0667
      8 C21        -3.7640    6.3980  -29.2020 C.ar      1 1VV        -0.0646
      9 C19        -6.0780    1.0280  -25.9550 C.ar      1 1VV         0.0732
     10 C13        -5.8250    1.9950  -25.0320 C.ar      1 1VV         0.0732
     11 C1         -2.9870    4.6260  -30.5800 C.ar      1 1VV        -0.0368
     12 C5         -3.5210    5.0540  -29.3790 C.ar      1 1VV        -0.0134
     13 C12        -5.9790    1.5970  -27.2850 C.2       1 1VV         0.2402
     14 C14        -5.5490    3.2450  -25.7180 C.2       1 1VV         0.2402
     15 C23        -2.6820    2.1050  -27.5840 C.2       1 1VV         0.1856
     16 C31         0.0910    2.2570  -27.6220 C.2       1 1VV         0.0404
     17 C9         -2.6940    3.1960  -30.8520 C.3       1 1VV        -0.0009
     18 C27        -2.6650   -0.7730  -26.4780 C.3       1 1VV        -0.0505
     19 C28        -1.4490   -0.6050  -25.6090 C.3       1 1VV        -0.0510
     20 C26        -2.2800   -0.4910  -27.9110 C.3       1 1VV        -0.0314
     21 C30        -0.8250    0.7470  -25.8520 C.3       1 1VV        -0.0362
     22 C8         -3.5140    2.3620  -29.9120 C.3       1 1VV         0.0448
     23 C6         -3.8720    4.1840  -28.2330 C.3       1 1VV         0.1004
     24 C25        -1.8440    0.9830  -28.1160 C.3       1 1VV         0.0632
     25 C29        -0.5170    0.9470  -27.3030 C.3       1 1VV         0.0314
     26 C10        -5.3310    3.8360  -28.1100 C.3       1 1VV         0.0882
     27 N11        -5.6500    2.9160  -27.0540 N.am      1 1VV        -0.1802
     28 N7         -3.3120    2.8700  -28.5690 N.am      1 1VV        -0.2556
     29 O22        -6.1510    0.9690  -28.3180 O.2       1 1VV        -0.3670
     30 O20        -5.2840    4.2990  -25.1580 O.2       1 1VV        -0.3670
     31 O24        -2.8220    2.3330  -26.3920 O.2       1 1VV        -0.3963
     32 O32        -0.2310    3.0350  -28.5080 O.co2     1 1VV        -0.5686
     33 O33         1.1280    2.4960  -26.7800 O.co2     1 1VV        -0.5686
     34 H          -6.6279   -1.5488  -23.9190 H         1 1VV         0.0662
     35 H          -6.1733    0.1893  -22.2553 H         1 1VV         0.0662
     36 H          -2.7296    7.5864  -32.1748 H         1 1VV         0.0541
     37 H          -3.6795    8.3605  -30.0392 H         1 1VV         0.0541
     38 H          -6.5699   -1.0263  -26.3446 H         1 1VV         0.0682
     39 H          -5.6476    2.5121  -22.9533 H         1 1VV         0.0682
     40 H          -2.2916    5.1928  -32.5161 H         1 1VV         0.0537
     41 H          -4.1832    6.7456  -28.2647 H         1 1VV         0.0538
     42 H          -1.6244    2.9976  -30.6892 H         1 1VV         0.0431
     43 H          -2.9579    2.9531  -31.8919 H         1 1VV         0.0431
     44 H          -3.4475   -0.0684  -26.1597 H         1 1VV         0.0267
     45 H          -3.0418   -1.8029  -26.3920 H         1 1VV         0.0267
     46 H          -0.7185   -1.3918  -25.8483 H         1 1VV         0.0266
     47 H          -1.7424   -0.6862  -24.5520 H         1 1VV         0.0266
     48 H          -3.1445   -0.6989  -28.5585 H         1 1VV         0.0293
     49 H          -1.4452   -1.1504  -28.1908 H         1 1VV         0.0293
     50 H           0.1077    0.8211  -25.2736 H         1 1VV         0.0287
     51 H          -1.5242    1.5296  -25.5223 H         1 1VV         0.0287
     52 H          -3.1911    1.3119  -29.9662 H         1 1VV         0.0545
     53 H          -4.5781    2.4328  -30.1816 H         1 1VV         0.0545
     54 H          -3.4792    4.6039  -27.2952 H         1 1VV         0.0730
     55 H          -1.6717    1.1701  -29.1862 H         1 1VV         0.0559
     56 H           0.1371    0.1310  -27.6439 H         1 1VV         0.0493
     57 H          -5.6564    3.3894  -29.0611 H         1 1VV         0.0615
     58 H          -5.8897    4.7666  -27.9317 H         1 1VV         0.0615
@<TRIPOS>BOND
     1    2    1 ar 
     2    5    1 ar 
     3    6    2 ar 
     4    4    3 ar 
     5    7    3 ar 
     6    8    4 ar 
     7    9    5 ar 
     8   10    6 ar 
     9   11    7 ar 
    10   12    8 ar 
    11   10    9 ar 
    12   13    9 1  
    13   14   10 1  
    14   12   11 ar 
    15   11   17 1  
    16   23   12 1  
    17   27   13 am 
    18   13   29 2  
    19   27   14 am 
    20   14   30 2  
    21   15   24 1  
    22   28   15 am 
    23   15   31 2  
    24   25   16 1  
    25   16   32 ar 
    26   16   33 ar 
    27   22   17 1  
    28   18   19 1  
    29   20   18 1  
    30   21   19 1  
    31   24   20 1  
    32   25   21 1  
    33   28   22 1  
    34   26   23 1  
    35   23   28 1  
    36   24   25 1  
    37   26   27 1  
    38    1   34 1  
    39    2   35 1  
    40    3   36 1  
    41    4   37 1  
    42    5   38 1  
    43    6   39 1  
    44    7   40 1  
    45    8   41 1  
    46   17   42 1  
    47   17   43 1  
    48   18   44 1  
    49   18   45 1  
    50   19   46 1  
    51   19   47 1  
    52   20   48 1  
    53   20   49 1  
    54   21   50 1  
    55   21   51 1  
    56   22   52 1  
    57   22   53 1  
    58   23   54 1  
    59   24   55 1  
    60   25   56 1  
    61   26   57 1  
    62   26   58 1  
@<TRIPOS>SUBSTRUCTURE
     1 1VV         1

