### 
### Created by X-TOOL on Mon Sep 10 21:13:20 2018
### 

@<TRIPOS>MOLECULE
4l7c_ligand
   61    66     1     0     0
SMALL
GAST_HUCK


@<TRIPOS>ATOM
      1 C5        -20.2970   38.5340  -36.8850 C.3       1 1VW        -0.0311
      2 C6        -20.1430   37.0730  -37.2320 C.3       1 1VW        -0.0504
      3 C11       -21.7960   37.9490  -33.4320 C.2       1 1VW         0.1234
      4 C7        -19.5540   36.3600  -36.0470 C.3       1 1VW        -0.0507
      5 C8        -20.5580   36.4140  -34.9260 C.3       1 1VW        -0.0362
      6 C9        -20.8090   37.8540  -34.5280 C.3       1 1VW         0.0372
      7 C3        -21.2210   38.7390  -35.7020 C.3       1 1VW         0.0632
      8 O1        -23.2160   37.4690  -35.9610 O.2       1 1VW        -0.3962
      9 C2        -22.6420   38.5290  -36.1650 C.2       1 1VW         0.1859
     10 N12       -22.4690   39.0080  -33.0460 N.2       1 1VW        -0.1811
     11 N13       -23.2520   38.6030  -31.9980 N.2       1 1VW        -0.0595
     12 N14       -23.0710   37.3180  -31.7340 N.pl3     1 1VW        -0.1153
     13 N15       -22.1630   36.9110  -32.6280 N.2       1 1VW        -0.1623
     14 N16       -23.2430   39.5920  -36.8360 N.am      1 1VW        -0.2556
     15 C17       -22.6910   40.9240  -36.9760 C.3       1 1VW         0.0448
     16 C18       -23.4260   41.8620  -36.0550 C.3       1 1VW        -0.0009
     17 C19       -24.8890   41.7700  -36.3160 C.ar      1 1VW        -0.0368
     18 C20       -25.4490   40.6450  -36.8860 C.ar      1 1VW        -0.0134
     19 C21       -26.8090   40.6050  -37.1070 C.ar      1 1VW        -0.0646
     20 C22       -27.6070   41.6720  -36.7650 C.ar      1 1VW        -0.0754
     21 C23       -27.0460   42.7910  -36.1970 C.ar      1 1VW        -0.0755
     22 C24       -25.6900   42.8360  -35.9740 C.ar      1 1VW        -0.0667
     23 C25       -24.6180   39.4650  -37.2740 C.3       1 1VW         0.1004
     24 C27       -24.6780   39.3070  -38.7780 C.3       1 1VW         0.0882
     25 N28       -23.8590   38.2150  -39.2250 N.am      1 1VW        -0.1802
     26 C29       -22.6640   38.3820  -39.8960 C.2       1 1VW         0.2402
     27 O30       -22.0770   39.3810  -40.2850 O.2       1 1VW        -0.3670
     28 C31       -22.1760   37.0250  -40.0720 C.ar      1 1VW         0.0732
     29 C32       -21.0200   36.6000  -40.6750 C.ar      1 1VW        -0.0372
     30 C33       -20.8020   35.2370  -40.7010 C.ar      1 1VW        -0.0523
     31 C34       -21.7100   34.3520  -40.1430 C.ar      1 1VW        -0.0523
     32 C35       -22.8680   34.7990  -39.5390 C.ar      1 1VW        -0.0372
     33 C36       -23.0670   36.1550  -39.5240 C.ar      1 1VW         0.0732
     34 C37       -24.1790   36.9000  -38.9640 C.2       1 1VW         0.2402
     35 O38       -25.1390   36.3960  -38.4010 O.2       1 1VW        -0.3670
     36 H         -20.7104   39.0646  -37.7553 H         1 1VW         0.0294
     37 H         -19.3077   38.9475  -36.6394 H         1 1VW         0.0294
     38 H         -19.4745   36.9661  -38.0990 H         1 1VW         0.0267
     39 H         -21.1266   36.6431  -37.4722 H         1 1VW         0.0267
     40 H         -18.6222   36.8562  -35.7379 H         1 1VW         0.0267
     41 H         -19.3424   35.3127  -36.3086 H         1 1VW         0.0267
     42 H         -20.1682   35.8589  -34.0601 H         1 1VW         0.0292
     43 H         -21.5018   35.9579  -35.2593 H         1 1VW         0.0292
     44 H         -19.8563   38.2496  -34.1461 H         1 1VW         0.0507
     45 H         -21.1295   39.7834  -35.3691 H         1 1VW         0.0563
     46 H         -23.5284   36.7560  -31.0019 H         1 1VW         0.2882
     47 H         -22.8068   41.2632  -38.0160 H         1 1VW         0.0545
     48 H         -21.6233   40.9098  -36.7116 H         1 1VW         0.0545
     49 H         -23.0859   42.8927  -36.2339 H         1 1VW         0.0431
     50 H         -23.2220   41.5847  -35.0103 H         1 1VW         0.0431
     51 H         -27.2541   39.7239  -37.5548 H         1 1VW         0.0538
     52 H         -28.6755   41.6305  -36.9430 H         1 1VW         0.0541
     53 H         -27.6703   43.6347  -35.9259 H         1 1VW         0.0541
     54 H         -25.2481   43.7182  -35.5252 H         1 1VW         0.0537
     55 H         -25.0459   38.5672  -36.8041 H         1 1VW         0.0730
     56 H         -24.3241   40.2357  -39.2495 H         1 1VW         0.0615
     57 H         -25.7197   39.1181  -39.0764 H         1 1VW         0.0615
     58 H         -20.3136   37.2984  -41.1090 H         1 1VW         0.0682
     59 H         -19.9025   34.8517  -41.1673 H         1 1VW         0.0662
     60 H         -21.5072   33.2878  -40.1814 H         1 1VW         0.0662
     61 H         -23.5830   34.1130  -39.0993 H         1 1VW         0.0682
@<TRIPOS>BOND
     1    2    1 1  
     2    1    7 1  
     3    4    2 1  
     4    6    3 1  
     5    3   10 1  
     6    3   13 2  
     7    5    4 1  
     8    5    6 1  
     9    6    7 1  
    10    7    9 1  
    11    9    8 2  
    12    9   14 am 
    13   10   11 2  
    14   11   12 1  
    15   12   13 1  
    16   14   15 1  
    17   14   23 1  
    18   15   16 1  
    19   16   17 1  
    20   17   18 ar 
    21   17   22 ar 
    22   18   19 ar 
    23   18   23 1  
    24   19   20 ar 
    25   20   21 ar 
    26   21   22 ar 
    27   23   24 1  
    28   24   25 1  
    29   25   26 am 
    30   25   34 am 
    31   26   27 2  
    32   26   28 1  
    33   28   29 ar 
    34   28   33 ar 
    35   29   30 ar 
    36   30   31 ar 
    37   31   32 ar 
    38   32   33 ar 
    39   33   34 1  
    40   34   35 2  
    41    1   36 1  
    42    1   37 1  
    43    2   38 1  
    44    2   39 1  
    45    4   40 1  
    46    4   41 1  
    47    5   42 1  
    48    5   43 1  
    49    6   44 1  
    50    7   45 1  
    51   12   46 1  
    52   15   47 1  
    53   15   48 1  
    54   16   49 1  
    55   16   50 1  
    56   19   51 1  
    57   20   52 1  
    58   21   53 1  
    59   22   54 1  
    60   23   55 1  
    61   24   56 1  
    62   24   57 1  
    63   29   58 1  
    64   30   59 1  
    65   31   60 1  
    66   32   61 1  
@<TRIPOS>SUBSTRUCTURE
     1 1VW         1

