### 
### Created by X-TOOL on Mon Sep 10 21:13:20 2018
### 

@<TRIPOS>MOLECULE
4l7d_ligand
   62    66     1     0     0
SMALL
GAST_HUCK


@<TRIPOS>ATOM
      1 C4        -27.8800   41.0790  -37.1010 C.ar      1 1VX        -0.0819
      2 C5        -26.8640   40.1620  -37.2160 C.ar      1 1VX        -0.0714
      3 C6        -25.5660   40.5180  -36.9270 C.ar      1 1VX        -0.0204
      4 C11       -24.5150   39.4700  -37.0710 C.3       1 1VX         0.0950
      5 C7        -25.2750   41.8060  -36.5170 C.ar      1 1VX        -0.0355
      6 C8        -23.8700   42.2090  -36.1970 C.3       1 1VX        -0.0035
      7 C9        -22.8720   41.2360  -36.7720 C.3       1 1VX         0.0437
      8 C13       -24.3330   39.1600  -38.5440 C.3       1 1VX         0.0673
      9 C3        -27.5950   42.3600  -36.6950 C.ar      1 1VX        -0.0739
     10 C1        -26.0750   44.1330  -35.9690 C.3       1 1VX        -0.0353
     11 C2        -26.3010   42.7260  -36.4050 C.ar      1 1VX        -0.0505
     12 N10       -23.2740   39.8840  -36.4570 N.am      1 1VX        -0.2563
     13 N14       -23.2960   38.1880  -38.7700 N.am      1 1VX        -0.2572
     14 C15       -23.5570   36.7700  -38.6730 C.3       1 1VX         0.0706
     15 C16       -22.1920   36.2280  -38.8750 C.ar      1 1VX        -0.0003
     16 C17       -21.7670   34.9220  -38.8520 C.ar      1 1VX        -0.0524
     17 C18       -20.4270   34.6710  -39.0710 C.ar      1 1VX        -0.0641
     18 C19       -19.5340   35.7000  -39.3060 C.ar      1 1VX        -0.0630
     19 C20       -19.9630   37.0100  -39.3280 C.ar      1 1VX        -0.0484
     20 C21       -21.2990   37.2300  -39.1080 C.ar      1 1VX         0.0535
     21 C22       -21.9900   38.5090  -39.0800 C.2       1 1VX         0.2048
     22 O23       -21.4500   39.5820  -39.3010 O.2       1 1VX        -0.3882
     23 C24       -22.5440   38.9650  -35.7100 C.2       1 1VX         0.1855
     24 O25       -22.8190   37.7740  -35.6860 O.2       1 1VX        -0.3963
     25 C26       -21.3760   39.5070  -34.9260 C.3       1 1VX         0.0632
     26 C28       -20.1410   39.4380  -35.8020 C.3       1 1VX        -0.0314
     27 C29       -19.6220   38.0240  -35.9300 C.3       1 1VX        -0.0505
     28 C30       -19.2630   37.5110  -34.5620 C.3       1 1VX        -0.0510
     29 C31       -20.5320   37.4040  -33.7570 C.3       1 1VX        -0.0362
     30 C32       -21.1460   38.7830  -33.6050 C.3       1 1VX         0.0314
     31 C34       -22.4420   38.7170  -32.8530 C.2       1 1VX         0.0404
     32 O35       -22.7820   37.4530  -32.5010 O.co2     1 1VX        -0.5686
     33 O36       -23.1210   39.6950  -32.5830 O.co2     1 1VX        -0.5686
     34 H         -28.9006   40.7936  -37.3292 H         1 1VX         0.0525
     35 H         -27.0858   39.1506  -37.5367 H         1 1VX         0.0482
     36 H         -24.8584   38.5573  -36.5620 H         1 1VX         0.0725
     37 H         -23.7477   42.2426  -35.1043 H         1 1VX         0.0415
     38 H         -23.6796   43.2072  -36.6182 H         1 1VX         0.0415
     39 H         -21.8794   41.4323  -36.3406 H         1 1VX         0.0543
     40 H         -22.8282   41.3595  -37.8642 H         1 1VX         0.0543
     41 H         -24.0695   40.0885  -39.0717 H         1 1VX         0.0568
     42 H         -25.2798   38.7674  -38.9432 H         1 1VX         0.0568
     43 H         -28.3942   43.0865  -36.6026 H         1 1VX         0.0482
     44 H         -25.0041   44.2881  -35.7714 H         1 1VX         0.0374
     45 H         -26.6493   44.3293  -35.0516 H         1 1VX         0.0374
     46 H         -26.4047   44.8201  -36.7622 H         1 1VX         0.0374
     47 H         -24.2488   36.4301  -39.4577 H         1 1VX         0.0699
     48 H         -23.9597   36.4980  -37.6862 H         1 1VX         0.0699
     49 H         -22.4633   34.1120  -38.6673 H         1 1VX         0.0569
     50 H         -20.0685   33.6481  -39.0584 H         1 1VX         0.0635
     51 H         -18.4871   35.4747  -39.4745 H         1 1VX         0.0572
     52 H         -19.2762   37.8285  -39.5107 H         1 1VX         0.0651
     53 H         -21.5818   40.5624  -34.6941 H         1 1VX         0.0559
     54 H         -19.3548   40.0671  -35.3593 H         1 1VX         0.0293
     55 H         -20.3932   39.8167  -36.8035 H         1 1VX         0.0293
     56 H         -18.7300   38.0149  -36.5736 H         1 1VX         0.0267
     57 H         -20.3996   37.3838  -36.3720 H         1 1VX         0.0267
     58 H         -18.5680   38.2088  -34.0722 H         1 1VX         0.0266
     59 H         -18.7901   36.5214  -34.6466 H         1 1VX         0.0266
     60 H         -20.3032   36.9919  -32.7631 H         1 1VX         0.0287
     61 H         -21.2409   36.7410  -34.2746 H         1 1VX         0.0287
     62 H         -20.4406   39.3872  -33.0157 H         1 1VX         0.0493
@<TRIPOS>BOND
     1    1    2 ar 
     2    1    9 ar 
     3    2    3 ar 
     4    3    4 1  
     5    3    5 ar 
     6    4    8 1  
     7    4   12 1  
     8    5    6 1  
     9    5   11 ar 
    10    6    7 1  
    11    7   12 1  
    12    8   13 1  
    13    9   11 ar 
    14   11   10 1  
    15   12   23 am 
    16   13   14 1  
    17   13   21 am 
    18   14   15 1  
    19   15   16 ar 
    20   15   20 ar 
    21   16   17 ar 
    22   17   18 ar 
    23   18   19 ar 
    24   19   20 ar 
    25   20   21 1  
    26   21   22 2  
    27   23   24 2  
    28   23   25 1  
    29   25   26 1  
    30   25   30 1  
    31   26   27 1  
    32   27   28 1  
    33   28   29 1  
    34   29   30 1  
    35   30   31 1  
    36   31   32 ar 
    37   31   33 ar 
    38    1   34 1  
    39    2   35 1  
    40    4   36 1  
    41    6   37 1  
    42    6   38 1  
    43    7   39 1  
    44    7   40 1  
    45    8   41 1  
    46    8   42 1  
    47    9   43 1  
    48   10   44 1  
    49   10   45 1  
    50   10   46 1  
    51   14   47 1  
    52   14   48 1  
    53   16   49 1  
    54   17   50 1  
    55   18   51 1  
    56   19   52 1  
    57   25   53 1  
    58   26   54 1  
    59   26   55 1  
    60   27   56 1  
    61   27   57 1  
    62   28   58 1  
    63   28   59 1  
    64   29   60 1  
    65   29   61 1  
    66   30   62 1  
@<TRIPOS>SUBSTRUCTURE
     1 1VX         1

