### 
### Created by X-TOOL on Mon Sep 10 21:13:12 2018
### 

@<TRIPOS>MOLECULE
4l7f_ligand
   60    65     1     0     0
SMALL
GAST_HUCK


@<TRIPOS>ATOM
      1 F60        -3.2780   57.4580   -3.2320 F         1 1V5        -0.1556
      2 C53        -3.0290   56.2600   -2.6300 C.ar      1 1V5         0.1668
      3 C52        -3.0220   56.2110   -1.2510 C.ar      1 1V5         0.0034
      4 C51        -2.7900   55.0140   -0.5890 C.ar      1 1V5        -0.0387
      5 C54        -2.7920   55.1020   -3.3650 C.ar      1 1V5         0.0034
      6 C55        -2.5500   53.8850   -2.7220 C.ar      1 1V5        -0.0387
      7 C50        -2.5370   53.8430   -1.3130 C.ar      1 1V5        -0.0308
      8 C16        -2.3240   52.5930   -0.5160 C.3       1 1V5         0.0390
      9 C47        -1.2020   51.6410   -0.8920 C.3       1 1V5        -0.0589
     10 C31        -2.6480   51.2640   -1.2040 C.3       1 1V5        -0.0589
     11 N48        -2.7460   52.6830    0.8710 N.am      1 1V5        -0.3146
     12 C27        -4.0330   52.7190    1.2420 C.2       1 1V5         0.1916
     13 O30        -4.9390   52.5880    0.4160 O.2       1 1V5        -0.3882
     14 C39        -4.3190   52.8220    2.7200 C.ar      1 1V5         0.0410
     15 C45        -3.4240   53.4700    3.5750 C.ar      1 1V5        -0.0524
     16 C37        -3.6870   53.5360    4.9330 C.ar      1 1V5        -0.0485
     17 C40        -5.4690   52.2410    3.2620 C.ar      1 1V5        -0.0076
     18 C32        -5.7330   52.3190    4.6360 C.ar      1 1V5         0.1223
     19 N41        -6.8500   51.7290    5.2370 N.pl3     1 1V5        -0.1952
     20 C44        -7.0880   51.8120    6.5560 C.2       1 1V5         0.2080
     21 N28        -8.2490   51.1750    6.8080 N.2       1 1V5        -0.3124
     22 C46        -8.7250   50.7080    5.6390 C.2       1 1V5        -0.0120
     23 C18        -7.8550   51.0730    4.6750 C.2       1 1V5         0.0598
     24 C43        -6.1590   52.4640    7.3630 C.2       1 1V5         0.1735
     25 N42        -5.0500   53.0100    6.8090 N.2       1 1V5        -0.2868
     26 C33        -4.8240   52.9450    5.4730 C.ar      1 1V5         0.0553
     27 N34        -6.4090   52.5390    8.6890 N.pl3     1 1V5        -0.2889
     28 C26        -5.5440   53.2360    9.6020 C.3       1 1V5         0.0429
     29 C35        -4.5960   52.2350   10.2740 C.3       1 1V5        -0.0270
     30 C19        -3.6390   53.0190   11.1460 C.3       1 1V5        -0.0247
     31 C21        -6.3670   53.9820   10.6460 C.3       1 1V5        -0.0270
     32 C36        -5.4440   54.7180   11.6090 C.3       1 1V5        -0.0247
     33 C20        -4.4310   53.7590   12.2300 C.3       1 1V5         0.0554
     34 O17        -3.4980   54.4440   13.0520 O.3       1 1V5        -0.3918
     35 H1         -3.1993   57.1153   -0.6802 H         1 1V5         0.0693
     36 H2         -2.8047   54.9854    0.4945 H         1 1V5         0.0841
     37 H3         -2.7952   55.1446   -4.4482 H         1 1V5         0.0693
     38 H4         -2.3745   52.9846   -3.2995 H         1 1V5         0.0841
     39 H5         -0.6519   51.1031   -0.1059 H         1 1V5         0.0179
     40 H6         -0.5135   51.8997   -1.7099 H         1 1V5         0.0179
     41 H7         -3.0027   51.2544   -2.2452 H         1 1V5         0.0179
     42 H8         -3.1411   50.4578   -0.6412 H         1 1V5         0.0179
     43 H9         -2.0436   52.7198    1.5818 H         1 1V5         0.1721
     44 H10        -2.5232   53.9214    3.1751 H         1 1V5         0.0606
     45 H11        -2.9955   54.0567    5.5855 H         1 1V5         0.0572
     46 H12        -6.1651   51.7238    2.6116 H         1 1V5         0.0636
     47 H13        -9.6433   50.1401    5.4974 H         1 1V5         0.0520
     48 H14        -7.9609   50.8634    3.6116 H         1 1V5         0.0915
     49 H15        -7.2524   52.0788    9.0602 H         1 1V5         0.1883
     50 H16        -4.9460   53.9669    9.0379 H         1 1V5         0.0563
     51 H17        -4.0349   51.6789    9.5085 H         1 1V5         0.0289
     52 H18        -5.1723   51.5298   10.8909 H         1 1V5         0.0289
     53 H19        -3.0922   53.7472   10.5289 H         1 1V5         0.0291
     54 H20        -2.9244   52.3296   11.6193 H         1 1V5         0.0291
     55 H21        -6.9808   53.2627   11.2080 H         1 1V5         0.0289
     56 H22        -7.0220   54.7083   10.1425 H         1 1V5         0.0289
     57 H23        -6.0465   55.1734   12.4088 H         1 1V5         0.0291
     58 H24        -4.9059   55.5058   11.0615 H         1 1V5         0.0291
     59 H25        -4.9774   53.0260   12.8417 H         1 1V5         0.0593
     60 H26        -3.9610   54.8871   13.7533 H         1 1V5         0.2098
@<TRIPOS>BOND
     1    1    2 1  
     2    2    3 ar 
     3    2    5 ar 
     4    3    4 ar 
     5    4    7 ar 
     6    5    6 ar 
     7    6    7 ar 
     8    7    8 1  
     9    8    9 1  
    10    8   10 1  
    11    8   11 1  
    12    9   10 1  
    13   11   12 am 
    14   12   13 2  
    15   12   14 1  
    16   14   15 ar 
    17   14   17 ar 
    18   15   16 ar 
    19   16   26 ar 
    20   17   18 ar 
    21   18   19 1  
    22   18   26 ar 
    23   19   20 1  
    24   19   23 1  
    25   20   21 2  
    26   20   24 1  
    27   21   22 1  
    28   22   23 2  
    29   24   25 2  
    30   24   27 1  
    31   25   26 1  
    32   27   28 1  
    33   28   29 1  
    34   28   31 1  
    35   29   30 1  
    36   30   33 1  
    37   31   32 1  
    38   32   33 1  
    39   33   34 1  
    40    3   35 1  
    41    4   36 1  
    42    5   37 1  
    43    6   38 1  
    44    9   39 1  
    45    9   40 1  
    46   10   41 1  
    47   10   42 1  
    48   11   43 1  
    49   15   44 1  
    50   16   45 1  
    51   17   46 1  
    52   22   47 1  
    53   23   48 1  
    54   27   49 1  
    55   28   50 1  
    56   29   51 1  
    57   29   52 1  
    58   30   53 1  
    59   30   54 1  
    60   31   55 1  
    61   31   56 1  
    62   32   57 1  
    63   32   58 1  
    64   33   59 1  
    65   34   60 1  
@<TRIPOS>SUBSTRUCTURE
     1 1V5         1

