### 
### Created by X-TOOL on Mon Sep 10 21:13:12 2018
### 

@<TRIPOS>MOLECULE
4l7g_ligand
   39    42     1     0     0
SMALL
GAST_HUCK


@<TRIPOS>ATOM
      1 C4         11.9300   -5.2610   15.9790 C.ar      1 1W0        -0.0244
      2 C5         12.5780   -6.3590   16.5120 C.ar      1 1W0         0.0027
      3 C6         11.8280   -7.4350   16.9700 C.ar      1 1W0        -0.0340
      4 C7         14.0980   -6.3620   16.5990 C.3       1 1W0         0.1333
      5 C8         14.6210   -7.7070   17.0760 C.3       1 1W0        -0.0027
      6 C17         9.8860   -3.9890   15.3730 C.ar      1 1W0         0.0414
      7 C20         8.7170   -1.7270   14.5070 C.ar      1 1W0         0.0897
      8 C22         8.7650   -3.4520   16.0200 C.ar      1 1W0         0.0373
      9 C1         10.4410   -7.3980   16.8970 C.ar      1 1W0        -0.0305
     10 C2          9.7920   -6.2940   16.3740 C.ar      1 1W0        -0.0236
     11 C3         10.5350   -5.2170   15.9000 C.ar      1 1W0         0.0240
     12 C9         16.1640   -7.5820   17.1370 C.3       1 1W0         0.0451
     13 O10        16.5420   -6.5190   18.0010 O.3       1 1W0        -0.3785
     14 C11        15.4400   -5.9250   18.7190 C.3       1 1W0         0.0706
     15 C12        14.5450   -5.2960   17.6750 C.3       1 1W0         0.1081
     16 O13        15.1880   -4.2860   16.9140 O.3       1 1W0        -0.3201
     17 C14        15.3550   -4.7470   15.6530 C.cat     1 1W0         0.3460
     18 N15        14.7460   -5.8750   15.3990 N.pl3     1 1W0        -0.2620
     19 N16        16.0960   -4.0740   14.7380 N.pl3     1 1W0        -0.2512
     20 C18        10.3820   -3.3030   14.2630 C.ar      1 1W0         0.0373
     21 N19         9.7820   -2.1880   13.8740 N.ar      1 1W0        -0.2623
     22 N21         8.2160   -2.3360   15.5650 N.ar      1 1W0        -0.2623
     23 H1         12.5121   -4.4213   15.6168 H         1 1W0         0.0872
     24 H2         12.3254   -8.3043   17.3847 H         1 1W0         0.0860
     25 H3         14.3315   -8.4994   16.3701 H         1 1W0         0.0241
     26 H4         14.2188   -7.9393   18.0731 H         1 1W0         0.0241
     27 H5          8.2413   -0.8222   14.1464 H         1 1W0         0.1122
     28 H6          8.3489   -3.9480   16.8894 H         1 1W0         0.0944
     29 H7          9.8619   -8.2423   17.2533 H         1 1W0         0.0701
     30 H8          8.7091   -6.2679   16.3335 H         1 1W0         0.0872
     31 H9         16.5516   -7.3831   16.1270 H         1 1W0         0.0553
     32 H10        16.5892   -8.5238   17.5140 H         1 1W0         0.0553
     33 H11        15.8085   -5.1587   19.4168 H         1 1W0         0.0579
     34 H12        14.8897   -6.6959   19.2783 H         1 1W0         0.0579
     35 H13        13.6643   -4.8745   18.1816 H         1 1W0         0.0566
     36 H14        14.7294   -6.3465   14.4834 H         1 1W0         0.3128
     37 H15        16.2046   -4.4507   13.7855 H         1 1W0         0.3201
     38 H16        16.5502   -3.1861   14.9955 H         1 1W0         0.3201
     39 H17        11.2464   -3.6777   13.7267 H         1 1W0         0.0944
@<TRIPOS>BOND
     1    1    2 ar 
     2   11    1 ar 
     3    2    3 ar 
     4    2    4 1  
     5    3    9 ar 
     6    4    5 1  
     7    4   15 1  
     8    4   18 1  
     9    5   12 1  
    10    8    6 ar 
    11    6   11 1  
    12    6   20 ar 
    13    7   21 ar 
    14   22    7 ar 
    15    8   22 ar 
    16    9   10 ar 
    17   10   11 ar 
    18   12   13 1  
    19   13   14 1  
    20   14   15 1  
    21   15   16 1  
    22   16   17 1  
    23   17   18 ar 
    24   17   19 ar 
    25   20   21 ar 
    26    1   23 1  
    27    3   24 1  
    28    5   25 1  
    29    5   26 1  
    30    7   27 1  
    31    8   28 1  
    32    9   29 1  
    33   10   30 1  
    34   12   31 1  
    35   12   32 1  
    36   14   33 1  
    37   14   34 1  
    38   15   35 1  
    39   18   36 1  
    40   19   37 1  
    41   19   38 1  
    42   20   39 1  
@<TRIPOS>SUBSTRUCTURE
     1 1W0         1

