### 
### Created by X-TOOL on Mon Sep 10 21:13:14 2018
### 

@<TRIPOS>MOLECULE
4l7h_ligand
   42    45     1     0     0
SMALL
GAST_HUCK


@<TRIPOS>ATOM
      1 C4         17.9040   -7.2040   19.3600 C.ar      1 1W1         0.1512
      2 C6         18.4390   -6.9090   21.6060 C.ar      1 1W1         0.0050
      3 C8         16.5730   -8.1220   17.5340 C.3       1 1W1         0.0286
      4 C10        14.4570   -6.9090   16.9060 C.3       1 1W1         0.1270
      5 C17        12.9460   -7.0730   16.9070 C.ar      1 1W1         0.0289
      6 C20        10.1770   -7.3920   16.8390 C.ar      1 1W1         0.1648
      7 C21        10.8650   -7.5810   18.0220 C.ar      1 1W1         0.0380
      8 C22        12.2420   -7.4260   18.0590 C.ar      1 1W1         0.1645
      9 C1         19.6920   -7.4630   21.4380 C.ar      1 1W1        -0.0367
     10 C2         20.0710   -7.8980   20.1820 C.ar      1 1W1        -0.0192
     11 C3         19.1830   -7.7730   19.1050 C.ar      1 1W1         0.1402
     12 N5         17.6080   -6.7990   20.5900 N.ar      1 1W1        -0.2719
     13 N7         16.9150   -6.9940   18.3990 N.pl3     1 1W1        -0.2850
     14 C9         15.0480   -8.2520   17.3170 C.3       1 1W1        -0.0104
     15 C11        14.9230   -5.7710   17.8940 C.3       1 1W1         0.1007
     16 C12        15.7180   -6.3850   19.0240 C.3       1 1W1         0.0542
     17 O13        15.6160   -4.8510   17.0600 O.3       1 1W1        -0.3218
     18 C14        15.5300   -5.2770   15.7660 C.cat     1 1W1         0.3447
     19 N15        14.8870   -6.4100   15.6110 N.pl3     1 1W1        -0.2679
     20 N16        16.0720   -4.5730   14.7170 N.pl3     1 1W1        -0.2513
     21 C18        12.2490   -6.8910   15.7260 C.ar      1 1W1        -0.0378
     22 C19        10.8720   -7.0450   15.6910 C.ar      1 1W1        -0.0006
     23 F23        12.8650   -7.6200   19.2420 F         1 1W1        -0.1563
     24 F24         8.8310   -7.5420   16.8100 F         1 1W1        -0.1572
     25 C25        19.6350   -8.2420   17.8220 C.1       1 1W1         0.0974
     26 N26        20.0020   -8.6220   16.8140 N.1       1 1W1        -0.3364
     27 H1         18.1351   -6.5601   22.5863 H         1 1W1         0.0853
     28 H2         16.9449   -9.0482   17.9964 H         1 1W1         0.0519
     29 H3         17.0585   -7.9791   16.5574 H         1 1W1         0.0519
     30 H4         10.3268   -7.8511   18.9234 H         1 1W1         0.0674
     31 H5         20.3693   -7.5556   22.2793 H         1 1W1         0.0622
     32 H6         21.0517   -8.3343   20.0305 H         1 1W1         0.0800
     33 H7         14.5753   -8.5856   18.2525 H         1 1W1         0.0224
     34 H8         14.8556   -8.9909   16.5251 H         1 1W1         0.0224
     35 H9         14.0502   -5.2649   18.3322 H         1 1W1         0.0549
     36 H10        16.0163   -5.6106   19.7460 H         1 1W1         0.0544
     37 H11        15.1217   -7.1541   19.5367 H         1 1W1         0.0544
     38 H12        14.7134   -6.8750   14.7085 H         1 1W1         0.3112
     39 H13        15.9835   -4.9318   13.7556 H         1 1W1         0.3201
     40 H14        16.5666   -3.6867   14.8925 H         1 1W1         0.3201
     41 H15        12.7838   -6.6259   14.8211 H         1 1W1         0.0823
     42 H16        10.3359   -6.8933   14.7612 H         1 1W1         0.0665
@<TRIPOS>BOND
     1    1   11 ar 
     2    1   12 ar 
     3   13    1 1  
     4    2    9 ar 
     5   12    2 ar 
     6    3   13 1  
     7   14    3 1  
     8    5    4 1  
     9    4   14 1  
    10    4   15 1  
    11    4   19 1  
    12    8    5 ar 
    13    5   21 ar 
    14    7    6 ar 
    15    6   22 ar 
    16    6   24 1  
    17    7    8 ar 
    18    8   23 1  
    19    9   10 ar 
    20   10   11 ar 
    21   11   25 1  
    22   13   16 1  
    23   15   16 1  
    24   15   17 1  
    25   17   18 1  
    26   18   19 ar 
    27   18   20 ar 
    28   21   22 ar 
    29   25   26 3  
    30    2   27 1  
    31    3   28 1  
    32    3   29 1  
    33    7   30 1  
    34    9   31 1  
    35   10   32 1  
    36   14   33 1  
    37   14   34 1  
    38   15   35 1  
    39   16   36 1  
    40   16   37 1  
    41   19   38 1  
    42   20   39 1  
    43   20   40 1  
    44   21   41 1  
    45   22   42 1  
@<TRIPOS>SUBSTRUCTURE
     1 1W1         1

