### 
### Created by X-TOOL on Mon Sep 10 21:13:13 2018
### 

@<TRIPOS>MOLECULE
4l7j_ligand
   42    45     1     0     0
SMALL
GAST_HUCK


@<TRIPOS>ATOM
      1 C4         17.4470   -9.0620   17.6820 C.ar      1 1W2         0.1506
      2 C6         19.7630   -9.3140   17.5860 C.ar      1 1W2         0.0050
      3 C8         16.8060   -6.9280   18.6870 C.3       1 1W2         0.0332
      4 C10        14.7710   -5.7540   17.9270 C.3       1 1W2         0.0840
      5 C17        12.9270   -7.0890   16.8170 C.ar      1 1W2         0.0307
      6 C20        10.1910   -7.3310   16.5850 C.ar      1 1W2         0.1648
      7 C21        10.7750   -7.2880   17.8410 C.ar      1 1W2         0.0380
      8 C22        12.1430   -7.1560   17.9410 C.ar      1 1W2         0.1646
      9 C1         19.6290  -10.6350   17.1650 C.ar      1 1W2        -0.0367
     10 C2         18.3720  -11.1810   16.9780 C.ar      1 1W2        -0.0192
     11 C3         17.2390  -10.3900   17.2350 C.ar      1 1W2         0.1401
     12 N5         18.6930   -8.5810   17.8450 N.ar      1 1W2        -0.2719
     13 N7         16.4150   -8.1690   17.9780 N.pl3     1 1W2        -0.2906
     14 C9         15.5540   -6.1590   19.1580 C.3       1 1W2        -0.0103
     15 C11        14.4420   -6.9860   17.0120 C.3       1 1W2         0.1436
     16 C12        14.9840   -8.3230   17.5640 C.3       1 1W2         0.0550
     17 N13        15.0440   -6.6520   15.7260 N.pl3     1 1W2        -0.2663
     18 C14        15.6290   -5.4550   15.8600 C.cat     1 1W2         0.3447
     19 O15        15.4810   -4.8680   17.0780 O.3       1 1W2        -0.3238
     20 N16        16.2980   -4.8140   14.8470 N.pl3     1 1W2        -0.2513
     21 C18        12.3590   -7.1170   15.5560 C.ar      1 1W2        -0.0378
     22 C19        10.9460   -7.2560   15.4300 C.ar      1 1W2        -0.0006
     23 F23        12.7100   -7.1210   19.1690 F         1 1W2        -0.1563
     24 F24         8.8440   -7.4260   16.5280 F         1 1W2        -0.1572
     25 C25        15.9300  -10.9490   17.0610 C.1       1 1W2         0.0974
     26 N26        14.8600  -11.3580   16.9260 N.1       1 1W2        -0.3364
     27 H1         20.7512   -8.8837   17.7022 H         1 1W2         0.0853
     28 H2         17.3881   -6.2898   18.0060 H         1 1W2         0.0526
     29 H3         17.4211   -7.1885   19.5609 H         1 1W2         0.0526
     30 H4         13.8375   -5.2761   18.2588 H         1 1W2         0.0529
     31 H5         10.1635   -7.3573   18.7334 H         1 1W2         0.0674
     32 H6         20.5122  -11.2367   16.9834 H         1 1W2         0.0622
     33 H7         18.2623  -12.2045   16.6381 H         1 1W2         0.0800
     34 H8         15.8546   -5.2636   19.7219 H         1 1W2         0.0302
     35 H9         14.9364   -6.8056   19.7986 H         1 1W2         0.0302
     36 H10        14.3843   -8.6264   18.4348 H         1 1W2         0.0464
     37 H11        14.9126   -9.0942   16.7829 H         1 1W2         0.0464
     38 H12        15.0230   -7.2295   14.8734 H         1 1W2         0.3112
     39 H13        16.7269   -3.8928   15.0152 H         1 1W2         0.3201
     40 H14        16.3711   -5.2543   13.9187 H         1 1W2         0.3201
     41 H15        12.9820   -7.0341   14.6728 H         1 1W2         0.0823
     42 H16        10.4762   -7.3017   14.4542 H         1 1W2         0.0665
@<TRIPOS>BOND
     1    1   11 ar 
     2    1   12 ar 
     3   13    1 1  
     4    2    9 ar 
     5   12    2 ar 
     6    3   13 1  
     7   14    3 1  
     8    4   14 1  
     9   15    4 1  
    10    4   19 1  
    11    8    5 ar 
    12    5   15 1  
    13    5   21 ar 
    14    7    6 ar 
    15    6   22 ar 
    16    6   24 1  
    17    7    8 ar 
    18    8   23 1  
    19    9   10 ar 
    20   10   11 ar 
    21   11   25 1  
    22   13   16 1  
    23   15   16 1  
    24   15   17 1  
    25   17   18 ar 
    26   18   19 1  
    27   18   20 ar 
    28   21   22 ar 
    29   25   26 3  
    30    2   27 1  
    31    3   28 1  
    32    3   29 1  
    33    4   30 1  
    34    7   31 1  
    35    9   32 1  
    36   10   33 1  
    37   14   34 1  
    38   14   35 1  
    39   16   36 1  
    40   16   37 1  
    41   17   38 1  
    42   20   39 1  
    43   20   40 1  
    44   21   41 1  
    45   22   42 1  
@<TRIPOS>SUBSTRUCTURE
     1 1W2         1

