### 
### Created by X-TOOL on Mon Sep 10 21:13:17 2018
### 

@<TRIPOS>MOLECULE
4l7l_ligand
   47    49     1     0     0
SMALL
GAST_HUCK


@<TRIPOS>ATOM
      1 CAI        23.0160   -5.8130   15.4780 C.ar      1 1VA        -0.0603
      2 CAE        22.3110   -6.7220   16.2670 C.ar      1 1VA        -0.0686
      3 CAD        21.7050   -6.3300   17.4680 C.ar      1 1VA        -0.0687
      4 CAF        21.8370   -5.0190   17.8810 C.ar      1 1VA        -0.0686
      5 CAJ        22.5580   -4.1230   17.1060 C.ar      1 1VA        -0.0603
      6 CAU        23.1440   -4.4930   15.9050 C.ar      1 1VA        -0.0408
      7 CAP        23.8580   -3.5510   15.1280 C.3       1 1VA         0.0061
      8 CAZ        22.8710   -2.5460   14.5090 C.3       1 1VA         0.0745
      9 CAM        23.6530   -1.4780   13.7490 C.3       1 1VA         0.0689
     10 OAC        22.6740   -0.4960   13.2420 O.3       1 1VA        -0.3926
     11 NAR        21.8480   -3.2030   13.6110 N.am      1 1VA        -0.2795
     12 CAT        20.5140   -3.1930   13.9150 C.2       1 1VA         0.1796
     13 OAA        20.0770   -2.6090   14.9010 O.2       1 1VA        -0.3968
     14 CAN        19.5190   -3.8050   12.8830 C.3       1 1VA         0.0572
     15 CAO        19.1630   -5.2090   13.2810 C.3       1 1VA         0.0553
     16 CAV        18.1590   -5.8600   12.5040 C.2       1 1VA         0.1451
     17 NAQ        18.4410   -7.1070   12.0780 N.2       1 1VA        -0.3081
     18 CAX        17.5890   -7.8250   11.3620 C.ar      1 1VA         0.0126
     19 CAK        17.9730   -9.1240   11.0400 C.ar      1 1VA        -0.0538
     20 CAG        17.1300   -9.9350   10.3000 C.ar      1 1VA        -0.0665
     21 CAH        15.8960   -9.4240    9.9220 C.ar      1 1VA        -0.0653
     22 CAL        15.4840   -8.1420   10.3280 C.ar      1 1VA        -0.0503
     23 CAY        16.3130   -7.3400   11.0660 C.ar      1 1VA         0.0597
     24 CAW        15.9410   -6.0520   11.4490 C.2       1 1VA         0.2358
     25 OAB        14.8110   -5.5680   11.1920 O.2       1 1VA        -0.3858
     26 NAS        16.8820   -5.3300   12.1810 N.am      1 1VA        -0.1938
     27 H          23.4601   -6.1306   14.5415 H         1 1VA         0.0557
     28 H          22.2302   -7.7536   15.9441 H         1 1VA         0.0599
     29 H          21.1433   -7.0423   18.0615 H         1 1VA         0.0559
     30 H          21.3789   -4.6915   18.8073 H         1 1VA         0.0599
     31 H          22.6669   -3.1008   17.4501 H         1 1VA         0.0557
     32 H          24.4013   -4.0728   14.3265 H         1 1VA         0.0449
     33 H          24.5744   -3.0151   15.7679 H         1 1VA         0.0449
     34 H          22.3268   -2.0571   15.3304 H         1 1VA         0.0601
     35 H          24.1969   -1.9354   12.9094 H         1 1VA         0.0582
     36 H          24.3679   -0.9835   14.4231 H         1 1VA         0.0582
     37 H          23.1300    0.1853   12.7620 H         1 1VA         0.2095
     38 H          22.1538   -3.6563   12.7738 H         1 1VA         0.1857
     39 H          19.9878   -3.8165   11.8880 H         1 1VA         0.0538
     40 H          18.6055   -3.1930   12.8509 H         1 1VA         0.0538
     41 H          18.8121   -5.1813   14.3232 H         1 1VA         0.0589
     42 H          20.0785   -5.8156   13.2183 H         1 1VA         0.0589
     43 H          18.9344   -9.5011   11.3696 H         1 1VA         0.0554
     44 H          17.4251  -10.9407   10.0235 H         1 1VA         0.0627
     45 H          15.2383  -10.0235    9.3030 H         1 1VA         0.0553
     46 H          14.4982   -7.7844   10.0534 H         1 1VA         0.0643
     47 H          16.6499   -4.4074   12.4892 H         1 1VA         0.2533
@<TRIPOS>BOND
     1    1    2 ar 
     2    1    6 ar 
     3    2    3 ar 
     4    3    4 ar 
     5    4    5 ar 
     6    5    6 ar 
     7    6    7 1  
     8    7    8 1  
     9    8    9 1  
    10    8   11 1  
    11    9   10 1  
    12   11   12 am 
    13   12   13 2  
    14   12   14 1  
    15   14   15 1  
    16   15   16 1  
    17   16   17 2  
    18   16   26 1  
    19   17   18 1  
    20   18   19 ar 
    21   18   23 ar 
    22   19   20 ar 
    23   20   21 ar 
    24   21   22 ar 
    25   22   23 ar 
    26   23   24 1  
    27   24   25 2  
    28   24   26 am 
    29    1   27 1  
    30    2   28 1  
    31    3   29 1  
    32    4   30 1  
    33    5   31 1  
    34    7   32 1  
    35    7   33 1  
    36    8   34 1  
    37    9   35 1  
    38    9   36 1  
    39   10   37 1  
    40   11   38 1  
    41   14   39 1  
    42   14   40 1  
    43   15   41 1  
    44   15   42 1  
    45   19   43 1  
    46   20   44 1  
    47   21   45 1  
    48   22   46 1  
    49   26   47 1  
@<TRIPOS>SUBSTRUCTURE
     1 1VA         1

