### 
### Created by X-TOOL on Mon Sep 10 21:13:16 2018
### 

@<TRIPOS>MOLECULE
4l7n_ligand
   48    50     1     0     0
SMALL
GAST_HUCK


@<TRIPOS>ATOM
      1 CAI        24.3520   -2.3810   12.6390 C.ar      1 1VB        -0.0563
      2 CAK        24.9550   -1.4520   11.7860 C.ar      1 1VB        -0.0419
      3 CAV        24.8540   -0.0840   12.0850 C.ar      1 1VB         0.1009
      4 SBB        25.6960    1.1480   11.0320 S.o2      1 1VB         0.0628
      5 OAE        26.9310    0.4030   10.5120 O.2       1 1VB        -0.1514
      6 OAF        24.7990    1.6600    9.9060 O.2       1 1VB        -0.1514
      7 NAB        26.1820    2.3810   12.0160 N.am      1 1VB        -0.2617
      8 CAL        24.1880    0.3370   13.2320 C.ar      1 1VB        -0.0419
      9 CAJ        23.5510   -0.6030   14.0510 C.ar      1 1VB        -0.0563
     10 CAU        23.6310   -1.9700   13.7650 C.ar      1 1VB        -0.0181
     11 CBA        23.0300   -2.9330   14.6240 C.3       1 1VB         0.0727
     12 CAA        24.0980   -3.8010   15.2750 C.3       1 1VB        -0.0319
     13 NAR        22.2200   -3.9200   13.9050 N.am      1 1VB        -0.2727
     14 CAT        20.9290   -3.8140   13.8250 C.2       1 1VB         0.1812
     15 OAC        20.2950   -2.8580   14.2800 O.2       1 1VB        -0.3967
     16 CAO        20.3030   -4.9800   13.0790 C.3       1 1VB         0.0574
     17 CAP        18.8360   -4.6960   13.1170 C.3       1 1VB         0.0553
     18 CAW        18.0510   -5.6520   12.4220 C.2       1 1VB         0.1451
     19 NAQ        18.4530   -6.8890   12.0780 N.2       1 1VB        -0.3081
     20 CAY        17.5940   -7.7260   11.3810 C.ar      1 1VB         0.0126
     21 CAM        18.0060   -9.0470   11.0910 C.ar      1 1VB        -0.0538
     22 CAG        17.1700   -9.9000   10.4090 C.ar      1 1VB        -0.0665
     23 CAH        15.9030   -9.4880   10.0510 C.ar      1 1VB        -0.0653
     24 CAN        15.4670   -8.1680   10.3920 C.ar      1 1VB        -0.0503
     25 CAZ        16.3310   -7.3120   11.0400 C.ar      1 1VB         0.0597
     26 CAX        15.8930   -6.0230   11.3910 C.2       1 1VB         0.2358
     27 OAD        14.7290   -5.6210   11.1790 O.2       1 1VB        -0.3858
     28 NAS        16.7780   -5.2220   12.0810 N.am      1 1VB        -0.1938
     29 H          24.4449   -3.4394   12.4239 H         1 1VB         0.0558
     30 H          25.4934   -1.7835   10.9055 H         1 1VB         0.0619
     31 H          26.6682    3.1657   11.6314 H         1 1VB         0.1634
     32 H          25.9902    2.3433   12.9967 H         1 1VB         0.1634
     33 H          24.1625    1.3894   13.4906 H         1 1VB         0.0619
     34 H          22.9899   -0.2680   14.9159 H         1 1VB         0.0558
     35 H          22.4247   -2.4120   15.3804 H         1 1VB         0.0716
     36 H          23.6186   -4.5391   15.9348 H         1 1VB         0.0274
     37 H          24.7760   -3.1672   15.8654 H         1 1VB         0.0274
     38 H          24.6710   -4.3240   14.4952 H         1 1VB         0.0274
     39 H          22.6735   -4.6949   13.4648 H         1 1VB         0.1881
     40 H          20.5291   -5.9315   13.5825 H         1 1VB         0.0538
     41 H          20.6658   -5.0189   12.0413 H         1 1VB         0.0538
     42 H          18.6617   -3.7087   12.6644 H         1 1VB         0.0589
     43 H          18.5127   -4.6797   14.1683 H         1 1VB         0.0589
     44 H          18.9848   -9.3889   11.4075 H         1 1VB         0.0554
     45 H          17.5072  -10.8977   10.1523 H         1 1VB         0.0627
     46 H          15.2420  -10.1595    9.5150 H         1 1VB         0.0553
     47 H          14.4633   -7.8436   10.1421 H         1 1VB         0.0643
     48 H          16.4922   -4.3005   12.3441 H         1 1VB         0.2533
@<TRIPOS>BOND
     1    1    2 ar 
     2    1   10 ar 
     3    2    3 ar 
     4    3    4 1  
     5    3    8 ar 
     6    4    5 2  
     7    4    6 2  
     8    4    7 am 
     9    8    9 ar 
    10    9   10 ar 
    11   10   11 1  
    12   11   12 1  
    13   11   13 1  
    14   13   14 am 
    15   14   15 2  
    16   14   16 1  
    17   16   17 1  
    18   17   18 1  
    19   18   19 2  
    20   18   28 1  
    21   19   20 1  
    22   20   21 ar 
    23   20   25 ar 
    24   21   22 ar 
    25   22   23 ar 
    26   23   24 ar 
    27   24   25 ar 
    28   25   26 1  
    29   26   27 2  
    30   26   28 am 
    31    1   29 1  
    32    2   30 1  
    33    7   31 1  
    34    7   32 1  
    35    8   33 1  
    36    9   34 1  
    37   11   35 1  
    38   12   36 1  
    39   12   37 1  
    40   12   38 1  
    41   13   39 1  
    42   16   40 1  
    43   16   41 1  
    44   17   42 1  
    45   17   43 1  
    46   21   44 1  
    47   22   45 1  
    48   23   46 1  
    49   24   47 1  
    50   28   48 1  
@<TRIPOS>SUBSTRUCTURE
     1 1VB         1

