### 
### Created by X-TOOL on Mon Sep 10 21:13:17 2018
### 

@<TRIPOS>MOLECULE
4l7o_ligand
   50    53     1     0     0
SMALL
GAST_HUCK


@<TRIPOS>ATOM
      1 CAM        26.0140    1.2620   10.0830 C.2       1 1VD         0.0491
      2 CAF        26.9750    2.1830    9.8200 C.2       1 1VD        -0.0213
      3 NAQ        27.4490    2.6130   11.0100 N.2       1 1VD        -0.3282
      4 CAN        26.8140    1.9580   11.9850 C.2       1 1VD         0.1106
      5 NBC        25.8960    1.1420   11.4250 N.pl3     1 1VD        -0.2139
      6 CAW        25.1540    0.3290   12.1690 C.ar      1 1VD         0.0926
      7 CAJ        25.0290   -1.0310   11.7740 C.ar      1 1VD        -0.0327
      8 CAH        24.2980   -1.9020   12.5870 C.ar      1 1VD        -0.0616
      9 CAI        24.5540    0.7730   13.3590 C.ar      1 1VD        -0.0327
     10 CAG        23.8220   -0.1010   14.1340 C.ar      1 1VD        -0.0616
     11 CAV        23.6790   -1.4320   13.7720 C.ar      1 1VD        -0.0245
     12 CBB        22.9400   -2.3290   14.6170 C.3       1 1VD         0.0698
     13 CAA        23.9630   -3.1890   15.3890 C.3       1 1VD        -0.0328
     14 NAS        22.1080   -3.3110   13.8900 N.am      1 1VD        -0.2736
     15 CAU        20.7890   -3.1700   13.7210 C.2       1 1VD         0.1811
     16 OAB        20.1560   -2.1880   14.1100 O.2       1 1VD        -0.3967
     17 CAO        20.1250   -4.3850   12.9930 C.3       1 1VD         0.0574
     18 CAP        18.6310   -4.3470   13.2760 C.3       1 1VD         0.0553
     19 CAX        17.9090   -5.3740   12.6200 C.2       1 1VD         0.1451
     20 NAR        18.3650   -6.6040   12.3640 N.2       1 1VD        -0.3081
     21 CAZ        17.5920   -7.5250   11.6860 C.ar      1 1VD         0.0126
     22 CAK        18.0840   -8.8020   11.4720 C.ar      1 1VD        -0.0538
     23 CAD        17.2810   -9.7600   10.8310 C.ar      1 1VD        -0.0665
     24 CAE        15.9960   -9.4490   10.4370 C.ar      1 1VD        -0.0653
     25 CAL        15.4880   -8.1670   10.6870 C.ar      1 1VD        -0.0503
     26 CBA        16.2850   -7.2350   11.3320 C.ar      1 1VD         0.0597
     27 CAY        15.8090   -5.9400   11.6010 C.2       1 1VD         0.2358
     28 OAC        14.6710   -5.5500   11.3180 O.2       1 1VD        -0.3858
     29 NAT        16.6420   -5.0620   12.2380 N.am      1 1VD        -0.1938
     30 H          25.4365    0.7133    9.3405 H         1 1VD         0.0869
     31 H          27.3026    2.5134    8.8354 H         1 1VD         0.0451
     32 H          27.0045    2.0642   13.0519 H         1 1VD         0.1228
     33 H          25.4916   -1.3856   10.8601 H         1 1VD         0.0571
     34 H          24.2038   -2.9454   12.3088 H         1 1VD         0.0542
     35 H          24.6669    1.8057   13.6687 H         1 1VD         0.0571
     36 H          23.3503    0.2581   15.0415 H         1 1VD         0.0542
     37 H          22.3113   -1.7438   15.3042 H         1 1VD         0.0704
     38 H          23.4296   -3.8897   16.0482 H         1 1VD         0.0273
     39 H          24.6087   -2.5357   15.9942 H         1 1VD         0.0273
     40 H          24.5797   -3.7545   14.6750 H         1 1VD         0.0273
     41 H          22.5531   -4.1200   13.5060 H         1 1VD         0.1879
     42 H          20.5523   -5.3253   13.3715 H         1 1VD         0.0538
     43 H          20.3011   -4.3121   11.9097 H         1 1VD         0.0538
     44 H          18.2372   -3.3757   12.9421 H         1 1VD         0.0589
     45 H          18.4785   -4.4513   14.3604 H         1 1VD         0.0589
     46 H          19.0848   -9.0612   11.7979 H         1 1VD         0.0554
     47 H          17.6746  -10.7526   10.6443 H         1 1VD         0.0627
     48 H          15.3836  -10.1910    9.9376 H         1 1VD         0.0553
     49 H          14.4817   -7.9072   10.3789 H         1 1VD         0.0643
     50 H          16.3013   -4.1423   12.4330 H         1 1VD         0.2533
@<TRIPOS>BOND
     1    1    2 2  
     2    1    5 1  
     3    2    3 1  
     4    3    4 2  
     5    4    5 1  
     6    5    6 1  
     7    6    7 ar 
     8    6    9 ar 
     9    7    8 ar 
    10    8   11 ar 
    11    9   10 ar 
    12   10   11 ar 
    13   11   12 1  
    14   12   13 1  
    15   12   14 1  
    16   14   15 am 
    17   15   16 2  
    18   15   17 1  
    19   17   18 1  
    20   18   19 1  
    21   19   20 2  
    22   19   29 1  
    23   20   21 1  
    24   21   22 ar 
    25   21   26 ar 
    26   22   23 ar 
    27   23   24 ar 
    28   24   25 ar 
    29   25   26 ar 
    30   26   27 1  
    31   27   28 2  
    32   27   29 am 
    33    1   30 1  
    34    2   31 1  
    35    4   32 1  
    36    7   33 1  
    37    8   34 1  
    38    9   35 1  
    39   10   36 1  
    40   12   37 1  
    41   13   38 1  
    42   13   39 1  
    43   13   40 1  
    44   14   41 1  
    45   17   42 1  
    46   17   43 1  
    47   18   44 1  
    48   18   45 1  
    49   22   46 1  
    50   23   47 1  
    51   24   48 1  
    52   25   49 1  
    53   29   50 1  
@<TRIPOS>SUBSTRUCTURE
     1 1VD         1

