### 
### Created by X-TOOL on Mon Sep 10 21:13:17 2018
### 

@<TRIPOS>MOLECULE
4l7r_ligand
   40    41     1     0     0
SMALL
GAST_HUCK


@<TRIPOS>ATOM
      1 CAA        24.9690   -3.6490   14.1050 C.3       1 M00        -0.0631
      2 CAI        23.8120   -3.5370   15.0350 C.3       1 M00        -0.0306
      3 CAU        22.8480   -2.4850   14.4850 C.3       1 M00         0.0648
      4 CAJ        23.4670   -1.1810   13.9410 C.3       1 M00         0.0671
      5 OAD        22.3240   -0.4110   13.4670 O.3       1 M00        -0.3927
      6 NAN        21.8970   -3.1260   13.4870 N.am      1 M00        -0.2815
      7 CAP        20.5800   -3.2470   13.7350 C.2       1 M00         0.1794
      8 OAB        20.0250   -2.8470   14.8080 O.2       1 M00        -0.3968
      9 CAK        19.8460   -3.9320   12.5820 C.3       1 M00         0.0572
     10 CAL        19.2130   -5.1140   13.2450 C.3       1 M00         0.0553
     11 CAQ        18.3000   -5.8270   12.4850 C.2       1 M00         0.1451
     12 NAM        18.6900   -7.0680   12.1340 N.2       1 M00        -0.3081
     13 CAS        17.8690   -7.8560   11.4180 C.ar      1 M00         0.0126
     14 CAG        18.3100   -9.1380   11.1300 C.ar      1 M00        -0.0538
     15 CAE        17.4400   -9.9670   10.4310 C.ar      1 M00        -0.0665
     16 CAF        16.2260   -9.5180    9.9860 C.ar      1 M00        -0.0653
     17 CAH        15.7520   -8.2400   10.2830 C.ar      1 M00        -0.0503
     18 CAT        16.5410   -7.3830   11.0040 C.ar      1 M00         0.0597
     19 CAR        16.1210   -6.0820   11.3640 C.2       1 M00         0.2358
     20 OAC        15.0040   -5.6060   11.1070 O.2       1 M00        -0.3858
     21 NAO        17.0190   -5.3510   12.0960 N.am      1 M00        -0.1938
     22 H          25.6739   -4.4028   14.4858 H         1 M00         0.0230
     23 H          25.4767   -2.6759   14.0324 H         1 M00         0.0230
     24 H          24.6115   -3.9512   13.1096 H         1 M00         0.0230
     25 H          24.1648   -3.2322   16.0313 H         1 M00         0.0285
     26 H          23.2996   -4.5076   15.1085 H         1 M00         0.0285
     27 H          22.2345   -2.1730   15.3431 H         1 M00         0.0578
     28 H          24.1625   -1.3942   13.1159 H         1 M00         0.0580
     29 H          23.9982   -0.6397   14.7377 H         1 M00         0.0580
     30 H          21.8725   -0.9009   12.7897 H         1 M00         0.2095
     31 H          22.2610   -3.4678   12.6206 H         1 M00         0.1855
     32 H          20.5490   -4.2478   11.7972 H         1 M00         0.0538
     33 H          19.0849   -3.2676   12.1469 H         1 M00         0.0538
     34 H          18.6922   -4.7548   14.1448 H         1 M00         0.0589
     35 H          20.0173   -5.8048   13.5380 H         1 M00         0.0589
     36 H          19.2919   -9.4799   11.4368 H         1 M00         0.0554
     37 H          17.7298  -10.9928   10.2338 H         1 M00         0.0627
     38 H          15.6125  -10.1774    9.3828 H         1 M00         0.0553
     39 H          14.7697   -7.9283    9.9468 H         1 M00         0.0643
     40 H          16.7572   -4.4266   12.3733 H         1 M00         0.2533
@<TRIPOS>BOND
     1    1    2 1  
     2    2    3 1  
     3    3    4 1  
     4    3    6 1  
     5    4    5 1  
     6    6    7 am 
     7    7    8 2  
     8    7    9 1  
     9    9   10 1  
    10   10   11 1  
    11   11   12 2  
    12   11   21 1  
    13   12   13 1  
    14   13   14 ar 
    15   13   18 ar 
    16   14   15 ar 
    17   15   16 ar 
    18   16   17 ar 
    19   17   18 ar 
    20   18   19 1  
    21   19   20 2  
    22   19   21 am 
    23    1   22 1  
    24    1   23 1  
    25    1   24 1  
    26    2   25 1  
    27    2   26 1  
    28    3   27 1  
    29    4   28 1  
    30    4   29 1  
    31    5   30 1  
    32    6   31 1  
    33    9   32 1  
    34    9   33 1  
    35   10   34 1  
    36   10   35 1  
    37   14   36 1  
    38   15   37 1  
    39   16   38 1  
    40   17   39 1  
    41   21   40 1  
@<TRIPOS>SUBSTRUCTURE
     1 M00         1

