### 
### Created by X-TOOL on Mon Sep 10 21:13:20 2018
### 

@<TRIPOS>MOLECULE
4l7u_ligand
   49    51     1     0     0
SMALL
GAST_HUCK


@<TRIPOS>ATOM
      1 CD1        23.3970   -1.0180   14.7250 C.ar      1 1VC        -0.0601
      2 CE1        23.6120    0.2280   14.1500 C.ar      1 1VC        -0.0686
      3 CZ         23.3220    0.4170   12.8190 C.ar      1 1VC        -0.0687
      4 CE2        22.8210   -0.6440   12.0580 C.ar      1 1VC        -0.0686
      5 CD2        22.6420   -1.8890   12.6280 C.ar      1 1VC        -0.0601
      6 CG         22.9230   -2.0470   13.9690 C.ar      1 1VC        -0.0384
      7 CB         22.7410   -3.1680   14.5960 C.3       1 1VC         0.0228
      8 CA         21.2540   -3.2400   15.0240 C.3       1 1VC         0.1516
      9 C          20.1860   -2.2620   15.6520 C.2       1 1VC         0.2614
     10 O          19.2640   -2.7710   16.3690 O.2       1 1VC        -0.3676
     11 OAT        20.2670   -0.9120   15.4300 O.3       1 1VC        -0.2783
     12 CAA        20.6260   -0.2930   16.6780 C.3       1 1VC         0.0658
     13 N          20.5650   -3.9680   14.0080 N.am      1 1VC        -0.2623
     14 CAU        19.8550   -3.4980   12.9920 C.2       1 1VC         0.1816
     15 OAB        19.6070   -2.3560   12.6400 O.2       1 1VC        -0.3967
     16 CAN        19.3000   -4.5220   12.1800 C.3       1 1VC         0.0574
     17 CAO        18.4240   -5.2360   13.1260 C.3       1 1VC         0.0553
     18 CAX        17.6960   -5.9990   12.4000 C.2       1 1VC         0.1451
     19 NAQ        18.2310   -7.2050   12.1620 N.2       1 1VC        -0.3081
     20 CAZ        17.4850   -8.0310   11.4640 C.ar      1 1VC         0.0126
     21 CAL        18.0150   -9.2790   11.2530 C.ar      1 1VC        -0.0538
     22 CAH        17.2530  -10.1930   10.5400 C.ar      1 1VC        -0.0665
     23 CAI        15.9860   -9.8730   10.0560 C.ar      1 1VC        -0.0653
     24 CAM        15.4960   -8.6050   10.2600 C.ar      1 1VC        -0.0503
     25 CBA        16.1970   -7.6740   10.9620 C.ar      1 1VC         0.0597
     26 CAY        15.6490   -6.3840   11.1900 C.2       1 1VC         0.2358
     27 OAD        14.5580   -5.9910   10.7610 O.2       1 1VC        -0.3858
     28 NAS        16.4180   -5.5260   11.9470 N.am      1 1VC        -0.1938
     29 H          23.6068   -1.1717   15.7773 H         1 1VC         0.0557
     30 H          24.0050    1.0443   14.7452 H         1 1VC         0.0599
     31 H          23.4814    1.3863   12.3607 H         1 1VC         0.0559
     32 H          22.5717   -0.4882   11.0146 H         1 1VC         0.0599
     33 H          22.2883   -2.7241   12.0343 H         1 1VC         0.0557
     34 H          23.3878   -3.2081   15.4849 H         1 1VC         0.0475
     35 H          22.9793   -4.0110   13.9308 H         1 1VC         0.0475
     36 H          21.3546   -3.9449   15.8625 H         1 1VC         0.0840
     37 H          20.7009    0.7956   16.5391 H         1 1VC         0.0577
     38 H          21.5954   -0.6869   17.0172 H         1 1VC         0.0577
     39 H          19.8562   -0.5143   17.4319 H         1 1VC         0.0577
     40 H          20.6259   -4.9642   14.0709 H         1 1VC         0.1885
     41 H          20.0836   -5.1853   11.7850 H         1 1VC         0.0538
     42 H          18.7226   -4.0987   11.3449 H         1 1VC         0.0538
     43 H          17.7987   -4.5243   13.6849 H         1 1VC         0.0589
     44 H          19.0223   -5.8312   13.8315 H         1 1VC         0.0589
     45 H          18.9964   -9.5419   11.6309 H         1 1VC         0.0554
     46 H          17.6540  -11.1829   10.3543 H         1 1VC         0.0627
     47 H          15.3960  -10.6125    9.5268 H         1 1VC         0.0553
     48 H          14.5274   -8.3404    9.8516 H         1 1VC         0.0643
     49 H          16.0970   -4.6062   12.1728 H         1 1VC         0.2533
@<TRIPOS>BOND
     1    1    2 ar 
     2    1    6 ar 
     3    2    3 ar 
     4    3    4 ar 
     5    4    5 ar 
     6    5    6 ar 
     7    6    7 1  
     8    7    8 1  
     9    8    9 1  
    10    8   13 1  
    11    9   10 2  
    12    9   11 1  
    13   11   12 1  
    14   13   14 am 
    15   14   15 2  
    16   14   16 1  
    17   16   17 1  
    18   17   18 1  
    19   18   19 2  
    20   18   28 1  
    21   19   20 1  
    22   20   21 ar 
    23   20   25 ar 
    24   21   22 ar 
    25   22   23 ar 
    26   23   24 ar 
    27   24   25 ar 
    28   25   26 1  
    29   26   27 2  
    30   26   28 am 
    31    1   29 1  
    32    2   30 1  
    33    3   31 1  
    34    4   32 1  
    35    5   33 1  
    36    7   34 1  
    37    7   35 1  
    38    8   36 1  
    39   12   37 1  
    40   12   38 1  
    41   12   39 1  
    42   13   40 1  
    43   16   41 1  
    44   16   42 1  
    45   17   43 1  
    46   17   44 1  
    47   21   45 1  
    48   22   46 1  
    49   23   47 1  
    50   24   48 1  
    51   28   49 1  
@<TRIPOS>SUBSTRUCTURE
     1 1VC         1

