### 
### Created by X-TOOL on Mon Sep 10 21:13:15 2018
### 

@<TRIPOS>MOLECULE
4l8m_ligand
   73    78     1     0     0
SMALL
GAST_HUCK


@<TRIPOS>ATOM
      1 OAA        -0.3600   -1.9840  -15.3160 O.2       1 F46        -0.3735
      2 OAB        -2.2630    3.9170  -23.1320 O.2       1 F46        -0.3844
      3 FAC        -4.7760   -1.7660  -14.9090 F         1 F46        -0.2033
      4 CAD         0.1250   -5.5790  -11.9550 C.ar      1 F46        -0.0576
      5 CAE        -0.4490   -6.0690  -13.1220 C.ar      1 F46        -0.0562
      6 CAF         0.2770   -4.1970  -11.7910 C.ar      1 F46        -0.0562
      7 CAG        -0.8430   -5.1710  -14.1250 C.ar      1 F46        -0.0415
      8 CAH        -0.1340   -3.3120  -12.7910 C.ar      1 F46        -0.0415
      9 CAI        -4.2050   -0.6100  -18.2340 C.ar      1 F46        -0.0562
     10 CAJ        -2.7660    1.1720  -20.2540 C.ar      1 F46        -0.0444
     11 CAK        -4.8220   -0.7840  -16.9920 C.ar      1 F46        -0.0510
     12 CAL        -1.6370    1.8610  -27.5150 C.ar      1 F46        -0.0348
     13 CAM        -0.8040    1.1750  -26.6400 C.ar      1 F46        -0.0599
     14 CAN        -2.6420    2.1230  -21.2760 C.ar      1 F46        -0.0613
     15 CAO        -2.3750   -2.0320  -17.5260 C.ar      1 F46        -0.0213
     16 CAP        -1.6390   -0.4590  -21.6510 C.ar      1 F46        -0.0056
     17 CAQ        -2.6160    3.0980  -25.6650 C.ar      1 F46        -0.0217
     18 CAR        -6.2770    6.2770  -29.1130 C.3       1 F46         0.0878
     19 CAS        -5.8590    6.2330  -31.5280 C.3       1 F46         0.0878
     20 CAT        -3.1940    3.0350  -29.2430 C.3       1 F46         0.1087
     21 CAU        -6.0980    4.7560  -29.1580 C.3       1 F46        -0.0077
     22 CAV        -5.4320    4.7580  -31.4790 C.3       1 F46        -0.0077
     23 CAW        -4.5510    3.0420  -29.9630 C.3       1 F46        -0.0035
     24 CAX        -0.0130    0.6940  -24.5250 C.3       1 F46         0.1045
     25 NAY        -2.4220   -3.0150  -15.3370 N.am      1 F46        -0.2350
     26 NAZ        -2.2890   -1.1490  -19.6030 N.pl3     1 F46        -0.2795
     27 OBA        -5.5810    6.8960  -30.2340 O.3       1 F46        -0.3693
     28 OBB        -3.3480    3.5000  -27.8810 O.3       1 F46        -0.3161
     29 OBC        -0.8410   -0.1400  -23.7230 O.3       1 F46        -0.3037
     30 CBD        -1.1180   -2.8900  -14.9500 C.2       1 F46         0.2313
     31 CBE        -1.9730    2.7710  -23.4390 C.2       1 F46         0.1387
     32 CBF        -2.9780   -1.2320  -18.4760 C.ar      1 F46         0.0414
     33 CBG        -2.2600   -0.1210  -20.4560 C.ar      1 F46         0.0535
     34 CBH        -4.2010   -1.5980  -16.0340 C.ar      1 F46         0.1387
     35 CBI        -2.5370    2.8160  -27.0270 C.ar      1 F46         0.0897
     36 CBJ        -0.7040   -3.7960  -13.9610 C.ar      1 F46         0.0558
     37 CBK        -0.8860    1.4680  -25.2750 C.ar      1 F46        -0.0045
     38 CBL        -2.9750   -2.2170  -16.2930 C.ar      1 F46         0.0896
     39 CBM        -1.4970    0.4680  -22.6670 C.ar      1 F46         0.1037
     40 CBN        -2.0020    1.7680  -22.4790 C.ar      1 F46         0.0490
     41 CBO        -1.7710    2.4280  -24.7840 C.ar      1 F46         0.0254
     42 NBP        -5.0170    4.4280  -30.1060 N.4       1 F46         0.2404
     43 H1          0.4522   -6.2610  -11.1785 H         1 F46         0.0652
     44 H2         -0.5909   -7.1353  -13.2559 H         1 F46         0.0629
     45 H3          0.7178   -3.8098  -10.8795 H         1 F46         0.0629
     46 H4         -1.2643   -5.5559  -15.0466 H         1 F46         0.0669
     47 H5         -0.0075   -2.2443  -12.6530 H         1 F46         0.0669
     48 H6         -4.6724   -0.0006  -18.9990 H         1 F46         0.0399
     49 H7         -3.2473    1.4324  -19.3183 H         1 F46         0.0458
     50 H8         -5.7655   -0.2974  -16.7729 H         1 F46         0.0535
     51 H9         -1.5900    1.6563  -28.5785 H         1 F46         0.0564
     52 H10        -0.1069    0.4302  -27.0067 H         1 F46         0.0544
     53 H11        -3.0357    3.1240  -21.1414 H         1 F46         0.0613
     54 H12        -1.4303   -2.5158  -17.7463 H         1 F46         0.0398
     55 H13        -1.2597   -1.4650  -21.7895 H         1 F46         0.0460
     56 H14        -3.3259    3.8293  -25.2959 H         1 F46         0.0572
     57 H15        -5.8643    6.6643  -28.1698 H         1 F46         0.0613
     58 H16        -7.3484    6.5193  -29.1713 H         1 F46         0.0613
     59 H17        -6.9367    6.2911  -31.7404 H         1 F46         0.0613
     60 H18        -5.3001    6.7455  -32.3248 H         1 F46         0.0613
     61 H19        -2.4963    3.6975  -29.7763 H         1 F46         0.0665
     62 H20        -2.7928    2.0108  -29.2340 H         1 F46         0.0665
     63 H21        -7.0348    4.2840  -29.4891 H         1 F46         0.0837
     64 H22        -5.8349    4.3857  -28.1562 H         1 F46         0.0837
     65 H23        -4.5909    4.5938  -32.1686 H         1 F46         0.0837
     66 H24        -6.2775    4.1187  -31.7730 H         1 F46         0.0837
     67 H25        -5.2819    2.4673  -29.3752 H         1 F46         0.0841
     68 H26        -4.4414    2.5866  -30.9583 H         1 F46         0.0841
     69 H27         0.6240    0.0851  -25.1833 H         1 F46         0.0775
     70 H28         0.6195    1.3325  -23.8908 H         1 F46         0.0775
     71 H29        -2.9896   -3.7154  -14.9043 H         1 F46         0.2240
     72 H30        -1.7122   -1.9660  -19.8494 H         1 F46         0.2085
     73 H31        -4.2331    5.0210  -29.8825 H         1 F46         0.2036
@<TRIPOS>BOND
     1   30    1 2  
     2   31    2 2  
     3   34    3 1  
     4    5    4 ar 
     5    6    4 ar 
     6    7    5 ar 
     7    8    6 ar 
     8   36    7 ar 
     9   36    8 ar 
    10    9   11 ar 
    11   32    9 ar 
    12   14   10 ar 
    13   10   33 ar 
    14   11   34 ar 
    15   13   12 ar 
    16   12   35 ar 
    17   37   13 ar 
    18   40   14 ar 
    19   32   15 ar 
    20   15   38 ar 
    21   33   16 ar 
    22   16   39 ar 
    23   35   17 ar 
    24   17   41 ar 
    25   21   18 1  
    26   18   27 1  
    27   22   19 1  
    28   19   27 1  
    29   20   23 1  
    30   28   20 1  
    31   42   21 1  
    32   42   22 1  
    33   23   42 1  
    34   29   24 1  
    35   24   37 1  
    36   25   30 am 
    37   38   25 1  
    38   26   32 1  
    39   33   26 1  
    40   35   28 1  
    41   39   29 1  
    42   30   36 1  
    43   31   40 1  
    44   31   41 1  
    45   34   38 ar 
    46   37   41 ar 
    47   39   40 ar 
    48    4   43 1  
    49    5   44 1  
    50    6   45 1  
    51    7   46 1  
    52    8   47 1  
    53    9   48 1  
    54   10   49 1  
    55   11   50 1  
    56   12   51 1  
    57   13   52 1  
    58   14   53 1  
    59   15   54 1  
    60   16   55 1  
    61   17   56 1  
    62   18   57 1  
    63   18   58 1  
    64   19   59 1  
    65   19   60 1  
    66   20   61 1  
    67   20   62 1  
    68   21   63 1  
    69   21   64 1  
    70   22   65 1  
    71   22   66 1  
    72   23   67 1  
    73   23   68 1  
    74   24   69 1  
    75   24   70 1  
    76   25   71 1  
    77   26   72 1  
    78   42   73 1  
@<TRIPOS>SUBSTRUCTURE
     1 F46         1

