### 
### Created by X-TOOL on Mon Sep 10 21:13:18 2018
### 

@<TRIPOS>MOLECULE
4l9i_ligand
   45    48     1     0     0
SMALL
GAST_HUCK


@<TRIPOS>ATOM
      1 FAA       -14.8360  -45.2580   21.2530 F         1 8PR        -0.1893
      2 CAB       -16.9900  -46.2430   21.2980 C.ar      1 8PR        -0.0349
      3 CAC       -16.1180  -45.2200   23.2730 C.ar      1 8PR        -0.0349
      4 CAD       -21.2160  -42.2720   25.9540 C.ar      1 8PR        -0.0530
      5 CAE       -18.1630  -46.5760   21.9760 C.ar      1 8PR        -0.0617
      6 CAF       -17.2970  -45.5520   23.9570 C.ar      1 8PR        -0.0617
      7 CAG       -21.5960  -40.9790   26.2840 C.ar      1 8PR        -0.0497
      8 CAH       -20.9070  -41.6510   23.6210 C.ar      1 8PR        -0.0128
      9 CAI       -21.0480  -48.4380   24.9120 C.3       1 8PR        -0.0316
     10 CAJ       -19.7400  -48.0860   24.2120 C.3       1 8PR        -0.0000
     11 CAK       -22.1240  -46.3600   23.9820 C.3       1 8PR        -0.0263
     12 CAL       -21.9470  -38.2180   23.9560 C.3       1 8PR         0.1845
     13 CAM       -20.7500  -44.5080   23.0880 C.3       1 8PR         0.0774
     14 NAN       -22.1780  -47.7730   24.2900 N.4       1 8PR         0.2275
     15 OAO       -20.5170  -43.9000   24.3590 O.3       1 8PR        -0.3272
     16 OAP       -21.9540  -38.7220   25.3080 O.3       1 8PR        -0.2984
     17 OAQ       -21.4150  -39.2750   23.1790 O.3       1 8PR        -0.2937
     18 CAR       -15.9610  -45.5660   21.9360 C.ar      1 8PR         0.1248
     19 CAS       -20.8760  -42.6090   24.6310 C.ar      1 8PR         0.0712
     20 CAT       -18.3340  -46.2400   23.3160 C.ar      1 8PR        -0.0431
     21 CAU       -21.6100  -40.0400   25.2600 C.ar      1 8PR         0.1117
     22 CAV       -21.2830  -40.3680   23.9760 C.ar      1 8PR         0.1152
     23 CAW       -20.8110  -46.0170   23.2810 C.3       1 8PR         0.0386
     24 CAX       -19.5960  -46.5780   24.0380 C.3       1 8PR         0.0057
     25 H         -16.8809  -46.5179   20.2551 H         1 8PR         0.0587
     26 H         -15.3255  -44.6910   23.7898 H         1 8PR         0.0587
     27 H         -21.1806  -43.0325   26.7256 H         1 8PR         0.0422
     28 H         -18.9519  -47.1035   21.4522 H         1 8PR         0.0547
     29 H         -17.4067  -45.2713   24.9983 H         1 8PR         0.0547
     30 H         -21.8705  -40.7126   27.2983 H         1 8PR         0.0483
     31 H         -20.6472  -41.9004   22.5986 H         1 8PR         0.0436
     32 H         -20.9852  -48.1267   25.9652 H         1 8PR         0.0815
     33 H         -21.2002  -49.5261   24.8597 H         1 8PR         0.0815
     34 H         -19.7229  -48.5646   23.2217 H         1 8PR         0.0341
     35 H         -18.8988  -48.4595   24.8144 H         1 8PR         0.0341
     36 H         -22.1980  -45.7826   24.9153 H         1 8PR         0.0819
     37 H         -22.9653  -46.1005   23.3226 H         1 8PR         0.0819
     38 H         -21.3120  -37.3231   23.8793 H         1 8PR         0.0969
     39 H         -22.9680  -37.9723   23.6287 H         1 8PR         0.0969
     40 H         -19.9308  -44.2545   22.3991 H         1 8PR         0.0616
     41 H         -21.7029  -44.1478   22.6730 H         1 8PR         0.0616
     42 H         -22.9645  -47.9036   24.9068 H         1 8PR         0.2014
     43 H         -22.3505  -48.2512   23.4196 H         1 8PR         0.2014
     44 H         -20.8203  -46.4856   22.2859 H         1 8PR         0.0403
     45 H         -19.5599  -46.1147   25.0350 H         1 8PR         0.0461
@<TRIPOS>BOND
     1   18    1 1  
     2    5    2 ar 
     3    2   18 ar 
     4    6    3 ar 
     5    3   18 ar 
     6    4    7 ar 
     7   19    4 ar 
     8   20    5 ar 
     9   20    6 ar 
    10    7   21 ar 
    11   19    8 ar 
    12    8   22 ar 
    13   10    9 1  
    14    9   14 1  
    15   24   10 1  
    16   14   11 1  
    17   11   23 1  
    18   12   16 1  
    19   17   12 1  
    20   13   15 1  
    21   23   13 1  
    22   15   19 1  
    23   21   16 1  
    24   22   17 1  
    25   20   24 1  
    26   21   22 ar 
    27   23   24 1  
    28    2   25 1  
    29    3   26 1  
    30    4   27 1  
    31    5   28 1  
    32    6   29 1  
    33    7   30 1  
    34    8   31 1  
    35    9   32 1  
    36    9   33 1  
    37   10   34 1  
    38   10   35 1  
    39   11   36 1  
    40   11   37 1  
    41   12   38 1  
    42   12   39 1  
    43   13   40 1  
    44   13   41 1  
    45   14   42 1  
    46   14   43 1  
    47   23   44 1  
    48   24   45 1  
@<TRIPOS>SUBSTRUCTURE
     1 8PR         1

