### 
### Created by X-TOOL on Mon Sep 10 21:13:15 2018
### 

@<TRIPOS>MOLECULE
4lar_ligand
   24    24     1     0     0
SMALL
GAST_HUCK


@<TRIPOS>ATOM
      1 N          -3.2520   -1.7060   15.7760 N.4       1 1WE         0.2220
      2 CA         -3.3340   -3.1340   15.6650 C.3       1 1WE        -0.0177
      3 C          -2.1240   -3.5060   14.9520 C.3       1 1WE        -0.0198
      4 CB         -3.3090   -3.8580   17.0040 C.3       1 1WE         0.0237
      5 CG         -4.1880   -4.8900   17.1200 C.ar      1 1WE        -0.0377
      6 CD1        -5.4610   -4.7690   16.6340 C.ar      1 1WE        -0.0601
      7 CD2        -3.8210   -6.0170   17.7880 C.ar      1 1WE        -0.0601
      8 CE1        -6.3590   -5.7880   16.7950 C.ar      1 1WE        -0.0686
      9 CE2        -4.7070   -7.0300   17.9520 C.ar      1 1WE        -0.0686
     10 CZ         -5.9930   -6.9230   17.4560 C.ar      1 1WE        -0.0687
     11 H1         -3.2739   -1.2957   14.8556 H         1 1WE         0.1998
     12 H2         -2.3913   -1.4536   16.2360 H         1 1WE         0.1998
     13 H3         -4.0332   -1.3654   16.3143 H         1 1WE         0.1998
     14 H4         -4.2374   -3.4207   15.1067 H         1 1WE         0.0871
     15 H5         -2.0983   -4.5975   14.8180 H         1 1WE         0.0286
     16 H6         -1.2446   -3.1868   15.5306 H         1 1WE         0.0286
     17 H7         -2.1130   -3.0154   13.9675 H         1 1WE         0.0286
     18 H8         -3.5384   -3.1252   17.7917 H         1 1WE         0.0481
     19 H9         -2.2949   -4.2557   17.1572 H         1 1WE         0.0481
     20 H10        -5.7590   -3.8625   16.1196 H         1 1WE         0.0557
     21 H11        -2.8181   -6.1052   18.1899 H         1 1WE         0.0557
     22 H12        -7.3627   -5.6932   16.3967 H         1 1WE         0.0599
     23 H13        -4.4050   -7.9299   18.4755 H         1 1WE         0.0599
     24 H14        -6.7020   -7.7318   17.5910 H         1 1WE         0.0559
@<TRIPOS>BOND
     1    1    2 1  
     2    2    3 1  
     3    2    4 1  
     4    4    5 1  
     5    5    6 ar 
     6    5    7 ar 
     7    6    8 ar 
     8    7    9 ar 
     9    8   10 ar 
    10    9   10 ar 
    11    1   11 1  
    12    1   12 1  
    13    1   13 1  
    14    2   14 1  
    15    3   15 1  
    16    3   16 1  
    17    3   17 1  
    18    4   18 1  
    19    4   19 1  
    20    6   20 1  
    21    7   21 1  
    22    8   22 1  
    23    9   23 1  
    24   10   24 1  
@<TRIPOS>SUBSTRUCTURE
     1 1WE         1

