### 
### Created by X-TOOL on Mon Sep 10 21:13:16 2018
### 

@<TRIPOS>MOLECULE
4lbl_ligand
   81    83     1     0     0
SMALL
GAST_HUCK


@<TRIPOS>ATOM
      1 C1          2.1780   -7.7780    3.7840 C.2       1 SIA         0.1041
      2 C2          2.3250   -8.9650    2.8540 C.3       1 SIA         0.2208
      3 C3          3.7500   -9.1780    2.3370 C.3       1 SIA         0.0353
      4 C4          4.6600   -9.8000    3.3990 C.3       1 SIA         0.0850
      5 C5          3.9590  -11.0230    3.9820 C.3       1 SIA         0.0964
      6 C6          2.6210  -10.6040    4.5830 C.3       1 SIA         0.1143
      7 C7          1.9220  -11.7910    5.2310 C.3       1 SIA         0.1114
      8 C8          0.4440  -11.5490    5.5240 C.3       1 SIA         0.1065
      9 C9         -0.0470  -12.5510    6.5720 C.3       1 SIA         0.0727
     10 C10         5.7990  -11.4310    5.6210 C.2       1 SIA         0.1733
     11 C11         6.1640   -9.9780    5.6050 C.3       1 SIA         0.0257
     12 N5          4.7360  -11.8290    4.9260 N.am      1 SIA        -0.2790
     13 O1A         2.8560   -6.7550    3.5580 O.co2     1 SIA        -0.5426
     14 O1B         1.3790   -7.8840    4.7480 O.co2     1 SIA        -0.5426
     15 O4          5.9160  -10.1480    2.7960 O.3       1 SIA        -0.3893
     16 O6          1.8140  -10.1150    3.5110 O.3       1 SIA        -0.3384
     17 O7          2.0290  -12.9080    4.3440 O.3       1 SIA        -0.3865
     18 O8          0.2530  -10.2060    5.9880 O.3       1 SIA        -0.3869
     19 O9         -1.4790  -12.6360    6.5660 O.3       1 SIA        -0.3924
     20 O10         6.4090  -12.2230    6.3200 O.2       1 SIA        -0.3974
     21 C2         -6.5200  -10.5590    0.3160 C.3       1 BGC         0.1339
     22 C3         -5.0270  -10.4810    0.0000 C.3       1 BGC         0.1144
     23 C4         -4.2570  -10.1210    1.2690 C.3       1 BGC         0.1184
     24 C5         -4.6170  -11.1040    2.3720 C.3       1 BGC         0.1134
     25 C6         -3.8110  -10.9100    3.6550 C.3       1 BGC         0.0730
     26 C1         -6.7490  -11.4660    1.5290 C.3       1 BGC         0.1854
     27 O1         -8.1330  -11.5200    1.8780 O.3       1 BGC        -0.3649
     28 O2         -7.1920  -11.0780   -0.8340 O.3       1 BGC        -0.3841
     29 O3         -4.7570   -9.5700   -1.0840 O.3       1 BGC        -0.3864
     30 O4         -2.8740  -10.2400    1.0040 O.3       1 BGC        -0.3401
     31 O5         -6.0090  -10.9630    2.6400 O.3       1 BGC        -0.3407
     32 O6         -4.1790   -9.6630    4.2560 O.3       1 BGC        -0.3924
     33 C1         -2.1210   -9.1410    1.5110 C.3       1 GAL         0.1884
     34 C2         -0.6780   -9.5750    1.4210 C.3       1 GAL         0.1344
     35 C3          0.2430   -8.4390    1.8280 C.3       1 GAL         0.1197
     36 C4         -0.1000   -7.1860    1.0140 C.3       1 GAL         0.1121
     37 C5         -1.5950   -6.8580    1.1270 C.3       1 GAL         0.1130
     38 C6         -2.0500   -5.6510    0.3030 C.3       1 GAL         0.0730
     39 O2         -0.4300  -10.6970    2.2560 O.3       1 GAL        -0.3841
     40 O3          1.5830   -8.8460    1.6090 O.3       1 GAL        -0.3380
     41 O4          0.2850   -7.3680   -0.3280 O.3       1 GAL        -0.3865
     42 O5         -2.3540   -7.9780    0.7340 O.3       1 GAL        -0.3405
     43 O6         -3.4340   -5.4350    0.5320 O.3       1 GAL        -0.3924
     44 H           4.1678   -8.2056    2.0372 H         1 SIA         0.0336
     45 H           3.7146   -9.8467    1.4643 H         1 SIA         0.0336
     46 H           4.8395   -9.0713    4.2032 H         1 SIA         0.0618
     47 H           3.7401  -11.6852    3.1314 H         1 SIA         0.0608
     48 H           2.7776   -9.8149    5.3332 H         1 SIA         0.0646
     49 H           2.4315  -12.0219    6.1781 H         1 SIA         0.0647
     50 H          -0.1326  -11.6908    4.5980 H         1 SIA         0.0643
     51 H           0.2905  -12.2260    7.5672 H         1 SIA         0.0584
     52 H           0.3737  -13.5423    6.3477 H         1 SIA         0.0584
     53 H           7.0591   -9.8180    6.2241 H         1 SIA         0.0467
     54 H           5.3291   -9.3857    6.0076 H         1 SIA         0.0467
     55 H           6.3719   -9.6635    4.5716 H         1 SIA         0.0467
     56 H           4.4378  -12.7737    5.0622 H         1 SIA         0.1856
     57 H           5.7674  -10.7717    2.0950 H         1 SIA         0.2099
     58 H           2.9448  -13.0716    4.1517 H         1 SIA         0.2100
     59 H           0.5621   -9.5970    5.3276 H         1 SIA         0.2100
     60 H          -1.7607  -13.2621    7.2226 H         1 SIA         0.2095
     61 H          -6.9028   -9.5527    0.5411 H         1 SIA         0.0671
     62 H          -4.6966  -11.4797   -0.3215 H         1 SIA         0.0648
     63 H          -4.4998   -9.0945    1.5810 H         1 SIA         0.0651
     64 H          -4.4241  -12.1224    2.0038 H         1 SIA         0.0647
     65 H          -2.7370  -10.9016    3.4175 H         1 SIA         0.0584
     66 H          -4.0258  -11.7327    4.3529 H         1 SIA         0.0584
     67 H          -6.4003  -12.4809    1.2874 H         1 SIA         0.0935
     68 H          -8.6313  -11.8544    1.1416 H         1 SIA         0.2126
     69 H          -6.8578  -11.9454   -1.0301 H         1 SIA         0.2101
     70 H          -5.0085   -8.6906   -0.8272 H         1 SIA         0.2100
     71 H          -3.6799   -9.5382    5.0546 H         1 SIA         0.2095
     72 H          -2.3941   -8.9387    2.5572 H         1 SIA         0.0938
     73 H          -0.4612   -9.8540    0.3793 H         1 SIA         0.0671
     74 H           0.1038   -8.2189    2.8967 H         1 SIA         0.0650
     75 H           0.4683   -6.3383    1.4244 H         1 SIA         0.0647
     76 H          -1.8070   -6.6405    2.1842 H         1 SIA         0.0647
     77 H          -1.8786   -5.8473   -0.7657 H         1 SIA         0.0584
     78 H          -1.4816   -4.7600    0.6079 H         1 SIA         0.0584
     79 H           0.4752  -10.9686    2.1590 H         1 SIA         0.2101
     80 H           1.2127   -7.5691   -0.3656 H         1 SIA         0.2100
     81 H          -3.9216   -6.2068    0.2690 H         1 SIA         0.2095
@<TRIPOS>BOND
     1    2    1 1  
     2    1   13 ar 
     3    1   14 ar 
     4    2    3 1  
     5    2   16 1  
     6   40    2 1  
     7    3    4 1  
     8    4    5 1  
     9    4   15 1  
    10    6    5 1  
    11    5   12 1  
    12    6    7 1  
    13   16    6 1  
    14    7    8 1  
    15    7   17 1  
    16    8    9 1  
    17    8   18 1  
    18    9   19 1  
    19   10   11 1  
    20   12   10 am 
    21   10   20 2  
    22   22   21 1  
    23   21   26 1  
    24   21   28 1  
    25   23   22 1  
    26   22   29 1  
    27   23   24 1  
    28   30   23 1  
    29   24   25 1  
    30   24   31 1  
    31   25   32 1  
    32   26   27 1  
    33   31   26 1  
    34   33   30 1  
    35   34   33 1  
    36   33   42 1  
    37   35   34 1  
    38   34   39 1  
    39   35   36 1  
    40   35   40 1  
    41   36   37 1  
    42   36   41 1  
    43   37   38 1  
    44   37   42 1  
    45   38   43 1  
    46    3   44 1  
    47    3   45 1  
    48    4   46 1  
    49    5   47 1  
    50    6   48 1  
    51    7   49 1  
    52    8   50 1  
    53    9   51 1  
    54    9   52 1  
    55   11   53 1  
    56   11   54 1  
    57   11   55 1  
    58   12   56 1  
    59   15   57 1  
    60   17   58 1  
    61   18   59 1  
    62   19   60 1  
    63   21   61 1  
    64   22   62 1  
    65   23   63 1  
    66   24   64 1  
    67   25   65 1  
    68   25   66 1  
    69   26   67 1  
    70   27   68 1  
    71   28   69 1  
    72   29   70 1  
    73   32   71 1  
    74   33   72 1  
    75   34   73 1  
    76   35   74 1  
    77   36   75 1  
    78   37   76 1  
    79   38   77 1  
    80   38   78 1  
    81   39   79 1  
    82   41   80 1  
    83   43   81 1  
@<TRIPOS>SUBSTRUCTURE
     1 SIA         1

