### 
### Created by X-TOOL on Mon Sep 10 21:13:17 2018
### 

@<TRIPOS>MOLECULE
4lbo_ligand
   81    83     1     0     0
SMALL
GAST_HUCK


@<TRIPOS>ATOM
      1 C2         24.8400  -10.1060    0.3290 C.3       1 BGC         0.1339
      2 C3         23.3260  -10.1770    0.4970 C.3       1 BGC         0.1144
      3 C4         22.6040   -9.8380   -0.8060 C.3       1 BGC         0.1184
      4 C5         23.1650  -10.6930   -1.9450 C.3       1 BGC         0.1134
      5 C6         22.5270  -10.3990   -3.3000 C.3       1 BGC         0.0730
      6 C1         25.2860  -10.9050   -0.8900 C.3       1 BGC         0.1854
      7 O1         26.6900  -10.7150   -1.1010 O.3       1 BGC        -0.3649
      8 O2         25.4830  -10.6300    1.4990 O.3       1 BGC        -0.3841
      9 O3         22.9290   -9.2860    1.5500 O.3       1 BGC        -0.3864
     10 O4         21.2030  -10.1000   -0.6480 O.3       1 BGC        -0.3401
     11 O5         24.5680  -10.4610   -2.0430 O.3       1 BGC        -0.3407
     12 O6         22.7410   -9.0300   -3.6660 O.3       1 BGC        -0.3924
     13 C1         20.3820   -9.0160   -1.1110 C.3       1 GAL         0.1884
     14 C2         18.9320   -9.4890   -1.0720 C.3       1 GAL         0.1344
     15 C3         17.9700   -8.3650   -1.4350 C.3       1 GAL         0.1197
     16 C4         18.2960   -7.0980   -0.6550 C.3       1 GAL         0.1121
     17 C5         19.7880   -6.7580   -0.7390 C.3       1 GAL         0.1130
     18 C6         20.1850   -5.5460    0.1090 C.3       1 GAL         0.0730
     19 O2         18.7770  -10.5560   -1.9840 O.3       1 GAL        -0.3841
     20 O3         16.6140   -8.7360   -1.1920 O.3       1 GAL        -0.3380
     21 O4         17.8910   -7.3320    0.6740 O.3       1 GAL        -0.3865
     22 O5         20.5570   -7.8640   -0.3110 O.3       1 GAL        -0.3405
     23 O6         21.5840   -5.3410    0.0070 O.3       1 GAL        -0.3924
     24 C1         15.6760   -7.5520   -3.1430 C.2       1 SIA         0.1041
     25 C2         15.9400   -8.8860   -2.4630 C.3       1 SIA         0.2208
     26 C3         14.6860   -9.3690   -1.7270 C.3       1 SIA         0.0353
     27 C4         13.5740   -9.7310   -2.7060 C.3       1 SIA         0.0850
     28 C5         14.0670  -10.7220   -3.7530 C.3       1 SIA         0.0964
     29 C6         15.4040  -10.2990   -4.3730 C.3       1 SIA         0.1143
     30 C7         16.0120  -11.4290   -5.2090 C.3       1 SIA         0.1114
     31 C8         17.3510  -11.0180   -5.8370 C.3       1 SIA         0.1065
     32 C9         18.5270  -11.8780   -5.3720 C.3       1 SIA         0.0727
     33 C10        12.1360  -11.8190   -4.8020 C.2       1 SIA         0.1733
     34 C11        11.1840  -11.7800   -5.9620 C.3       1 SIA         0.0257
     35 N5         13.0580  -10.8530   -4.7930 N.am      1 SIA        -0.2790
     36 O1A        16.2630   -7.2900   -4.2160 O.co2     1 SIA        -0.5426
     37 O1B        14.8840   -6.7470   -2.6020 O.co2     1 SIA        -0.5426
     38 O4         12.4760  -10.3060   -1.9860 O.3       1 SIA        -0.3893
     39 O6         16.3600   -9.9040   -3.3760 O.3       1 SIA        -0.3384
     40 O7         16.1740  -12.5990   -4.3950 O.3       1 SIA        -0.3865
     41 O8         17.2500  -11.1060   -7.2640 O.3       1 SIA        -0.3869
     42 O9         18.3610  -13.2280   -5.8220 O.3       1 SIA        -0.3924
     43 O10        12.0570  -12.6800   -3.9400 O.2       1 SIA        -0.3974
     44 H          25.1344   -9.0546    0.1951 H         1 BGC         0.0671
     45 H          23.0534  -11.2035    0.7834 H         1 BGC         0.0648
     46 H          22.7534   -8.7740   -1.0417 H         1 BGC         0.0651
     47 H          22.9879  -11.7511   -1.7019 H         1 BGC         0.0647
     48 H          21.4460  -10.5939   -3.2417 H         1 BGC         0.0584
     49 H          22.9768  -11.0525   -4.0620 H         1 BGC         0.0584
     50 H          25.0826  -11.9728   -0.7212 H         1 BGC         0.0935
     51 H          27.1671  -11.0102   -0.3344 H         1 BGC         0.2126
     52 H          26.4252  -10.5603    1.3992 H         1 BGC         0.2101
     53 H          23.1428   -8.3932    1.3053 H         1 BGC         0.2100
     54 H          23.6741   -8.8597   -3.7191 H         1 BGC         0.2095
     55 H          20.6570   -8.7690   -2.1470 H         1 BGC         0.0938
     56 H          18.6985   -9.8413   -0.0565 H         1 BGC         0.0671
     57 H          18.0836   -8.1525   -2.5083 H         1 BGC         0.0650
     58 H          17.7231   -6.2551   -1.0688 H         1 BGC         0.0647
     59 H          20.0280   -6.5387   -1.7899 H         1 BGC         0.0647
     60 H          19.9161   -5.7288    1.1598 H         1 BGC         0.0584
     61 H          19.6553   -4.6533   -0.2551 H         1 BGC         0.0584
     62 H          17.8841  -10.8780   -1.9441 H         1 BGC         0.2101
     63 H          16.9640   -7.5393    0.6895 H         1 BGC         0.2100
     64 H          22.0398   -6.1129    0.3214 H         1 BGC         0.2095
     65 H          14.3307   -8.5688   -1.0612 H         1 BGC         0.0336
     66 H          14.9407  -10.2569   -1.1298 H         1 BGC         0.0336
     67 H          13.2347   -8.8161   -3.2137 H         1 BGC         0.0618
     68 H          14.2069  -11.6991   -3.2675 H         1 BGC         0.0608
     69 H          15.2136   -9.4391   -5.0320 H         1 BGC         0.0646
     70 H          15.3130  -11.6669   -6.0244 H         1 BGC         0.0647
     71 H          17.5554   -9.9745   -5.5554 H         1 BGC         0.0643
     72 H          18.5749  -11.8646   -4.2731 H         1 BGC         0.0584
     73 H          19.4613  -11.4697   -5.7847 H         1 BGC         0.0584
     74 H          10.4689  -12.6116   -5.8775 H         1 BGC         0.0467
     75 H          11.7473  -11.8749   -6.9020 H         1 BGC         0.0467
     76 H          10.6381  -10.8250   -5.9564 H         1 BGC         0.0467
     77 H          13.0548  -10.1863   -5.5383 H         1 BGC         0.1856
     78 H          11.7716  -10.5055   -2.5914 H         1 BGC         0.2099
     79 H          16.4955  -13.3143   -4.9311 H         1 BGC         0.2100
     80 H          17.1067  -12.0110   -7.5150 H         1 BGC         0.2100
     81 H          17.5553  -13.5828   -5.4650 H         1 BGC         0.2095
@<TRIPOS>BOND
     1    2    1 1  
     2    1    6 1  
     3    1    8 1  
     4    3    2 1  
     5    2    9 1  
     6    3    4 1  
     7   10    3 1  
     8    4    5 1  
     9    4   11 1  
    10    5   12 1  
    11    6    7 1  
    12   11    6 1  
    13   13   10 1  
    14   14   13 1  
    15   13   22 1  
    16   15   14 1  
    17   14   19 1  
    18   15   16 1  
    19   20   15 1  
    20   16   17 1  
    21   16   21 1  
    22   17   18 1  
    23   17   22 1  
    24   18   23 1  
    25   25   20 1  
    26   25   24 1  
    27   24   36 ar 
    28   24   37 ar 
    29   26   25 1  
    30   39   25 1  
    31   27   26 1  
    32   28   27 1  
    33   27   38 1  
    34   28   29 1  
    35   35   28 1  
    36   29   30 1  
    37   29   39 1  
    38   30   31 1  
    39   30   40 1  
    40   31   32 1  
    41   31   41 1  
    42   32   42 1  
    43   33   34 1  
    44   33   35 am 
    45   33   43 2  
    46    1   44 1  
    47    2   45 1  
    48    3   46 1  
    49    4   47 1  
    50    5   48 1  
    51    5   49 1  
    52    6   50 1  
    53    7   51 1  
    54    8   52 1  
    55    9   53 1  
    56   12   54 1  
    57   13   55 1  
    58   14   56 1  
    59   15   57 1  
    60   16   58 1  
    61   17   59 1  
    62   18   60 1  
    63   18   61 1  
    64   19   62 1  
    65   21   63 1  
    66   23   64 1  
    67   26   65 1  
    68   26   66 1  
    69   27   67 1  
    70   28   68 1  
    71   29   69 1  
    72   30   70 1  
    73   31   71 1  
    74   32   72 1  
    75   32   73 1  
    76   34   74 1  
    77   34   75 1  
    78   34   76 1  
    79   35   77 1  
    80   38   78 1  
    81   40   79 1  
    82   41   80 1  
    83   42   81 1  
@<TRIPOS>SUBSTRUCTURE
     1 BGC         1

