### 
### Created by X-TOOL on Mon Sep 10 21:13:14 2018
### 

@<TRIPOS>MOLECULE
4lbp_ligand
   14    14     1     0     0
SMALL
GAST_HUCK


@<TRIPOS>ATOM
      1 O01       -11.0150   36.4330  -17.0870 O.2       1 1WG        -0.3642
      2 C02       -10.7850   36.3820  -15.8890 C.2       1 1WG         0.1822
      3 C03        -9.7190   37.2680  -15.2800 C.2       1 1WG         0.1580
      4 O04        -8.9900   38.1460  -16.0960 O.3       1 1WG        -0.3118
      5 C05        -9.4570   37.2290  -13.9550 C.2       1 1WG         0.0297
      6 C06       -10.2270   36.2750  -13.0810 C.2       1 1WG         0.1822
      7 O07       -10.0160   36.2190  -11.8880 O.2       1 1WG        -0.3642
      8 C08       -11.2910   35.3910  -13.6850 C.2       1 1WG         0.1580
      9 O09       -11.9720   34.5220  -12.8370 O.3       1 1WG        -0.3118
     10 C10       -11.5630   35.4360  -15.0040 C.2       1 1WG         0.0297
     11 H1         -8.3659   38.6261  -15.5644 H         1 1WG         0.2588
     12 H2         -8.6977   37.8801  -13.5243 H         1 1WG         0.0473
     13 H3        -11.3527   33.9256  -12.4328 H         1 1WG         0.2588
     14 H4        -12.3360   34.7968  -15.4281 H         1 1WG         0.0473
@<TRIPOS>BOND
     1    1    2 2  
     2    2    3 1  
     3    2   10 1  
     4    3    4 1  
     5    3    5 2  
     6    5    6 1  
     7    6    7 2  
     8    6    8 1  
     9    8    9 1  
    10    8   10 2  
    11    4   11 1  
    12    5   12 1  
    13    9   13 1  
    14   10   14 1  
@<TRIPOS>SUBSTRUCTURE
     1 1WG         1

