### 
### Created by X-TOOL on Mon Sep 10 21:13:16 2018
### 

@<TRIPOS>MOLECULE
4lbu_ligand
   54    57     1     0     0
SMALL
GAST_HUCK


@<TRIPOS>ATOM
      1 C1          9.6320   17.5660   91.6710 C.ar      1 1WJ         0.1182
      2 C2         10.6500   17.9360   90.8110 C.ar      1 1WJ         0.0077
      3 C3         10.3640   17.8290   89.4590 C.ar      1 1WJ         0.1026
      4 C4          9.1620   17.3220   88.9710 C.ar      1 1WJ         0.1423
      5 C5          8.1240   16.8590   89.8190 C.ar      1 1WJ         0.0782
      6 C6          6.8340   16.2510   89.2430 C.3       1 1WJ         0.0046
      7 C7          5.8170   17.1820   88.7430 C.3       1 1WJ        -0.0104
      8 C8          8.4060   17.0320   91.2160 C.ar      1 1WJ         0.1469
      9 C13         9.8890   17.7310   93.1390 C.2       1 1WJ         0.2059
     10 N9          7.4410   16.6870   92.1500 N.pl3     1 1WJ        -0.2460
     11 C10         7.6570   16.8930   93.4470 C.cat     1 1WJ         0.1880
     12 N11         6.6940   16.5820   94.3270 N.pl3     1 1WJ        -0.3360
     13 N12         8.8150   17.4000   93.9200 N.am      1 1WJ        -0.2591
     14 O14        10.9050   18.1370   93.5940 O.2       1 1WJ        -0.3908
     15 N15        11.0690   18.1940   88.3240 N.2       1 1WJ        -0.2095
     16 N16         9.1400   17.3930   87.5940 N.pl3     1 1WJ        -0.1975
     17 C17        10.2820   17.9080   87.2430 C.2       1 1WJ         0.2812
     18 N18        10.7080   18.2080   85.9710 N.pl3     1 1WJ        -0.2505
     19 C19         9.7180   18.3100   84.8970 C.3       1 1WJ         0.0333
     20 C20         2.8510   17.2220   86.8980 C.3       1 1WJ         0.1877
     21 O21         3.4620   17.8210   85.7700 O.3       1 1WJ        -0.3519
     22 C22         3.4370   19.2500   85.7650 C.3       1 1WJ         0.0395
     23 O23         3.5870   17.5900   88.0760 O.3       1 1WJ        -0.3426
     24 C24         4.4950   16.5230   88.4210 C.3       1 1WJ         0.0926
     25 C25         4.4210   15.5530   87.2630 C.3       1 1WJ         0.1124
     26 O26         4.7330   14.2240   87.5820 O.3       1 1WJ        -0.3865
     27 C27         2.9540   15.7090   86.8290 C.3       1 1WJ         0.1371
     28 O28         2.0250   15.1540   87.7600 O.3       1 1WJ        -0.3721
     29 C           1.6090   13.8180   87.4930 C.3       1 1WJ         0.0371
     30 H          11.6102   18.2872   91.1713 H         1 1WJ         0.0918
     31 H           6.3689   15.6490   90.0375 H         1 1WJ         0.0489
     32 H           7.1217   15.5960   88.4075 H         1 1WJ         0.0489
     33 H           6.2005   17.6563   87.8276 H         1 1WJ         0.0321
     34 H           5.6437   17.9514   89.5097 H         1 1WJ         0.0321
     35 H           6.5526   16.2692   91.8385 H         1 1WJ         0.2316
     36 H           6.8471   16.7360   95.3338 H         1 1WJ         0.1759
     37 H           5.8012   16.1891   93.9960 H         1 1WJ         0.1759
     38 H           8.8934   17.5433   94.9066 H         1 1WJ         0.1811
     39 H           8.3751   17.0983   86.9703 H         1 1WJ         0.2405
     40 H          11.7082   18.3587   85.7764 H         1 1WJ         0.2094
     41 H          10.2258   18.5543   83.9523 H         1 1WJ         0.0521
     42 H           8.9941   19.1019   85.1396 H         1 1WJ         0.0521
     43 H           9.1904   17.3505   84.7922 H         1 1WJ         0.0521
     44 H           1.8002   17.5391   86.9700 H         1 1WJ         0.0937
     45 H           3.9317   19.6222   84.8557 H         1 1WJ         0.0525
     46 H           3.9663   19.6291   86.6516 H         1 1WJ         0.0525
     47 H           2.3939   19.5986   85.7837 H         1 1WJ         0.0525
     48 H           4.1518   15.9991   89.3253 H         1 1WJ         0.0626
     49 H           5.0987   15.8762   86.4592 H         1 1WJ         0.0647
     50 H           4.6618   13.6871   86.8015 H         1 1WJ         0.2100
     51 H           2.7735   15.3058   85.8216 H         1 1WJ         0.0674
     52 H           0.8987   13.4934   88.2676 H         1 1WJ         0.0524
     53 H           2.4854   13.1532   87.4975 H         1 1WJ         0.0524
     54 H           1.1217   13.7757   86.5078 H         1 1WJ         0.0524
@<TRIPOS>BOND
     1    1    2 ar 
     2    8    1 ar 
     3    1    9 1  
     4    3    2 ar 
     5    4    3 ar 
     6    3   15 1  
     7    5    4 ar 
     8    4   16 1  
     9    6    5 1  
    10    5    8 ar 
    11    7    6 1  
    12   24    7 1  
    13    8   10 1  
    14    9   13 am 
    15    9   14 2  
    16   10   11 ar 
    17   11   12 ar 
    18   11   13 ar 
    19   17   15 2  
    20   16   17 1  
    21   17   18 1  
    22   18   19 1  
    23   20   21 1  
    24   23   20 1  
    25   20   27 1  
    26   21   22 1  
    27   23   24 1  
    28   24   25 1  
    29   25   26 1  
    30   25   27 1  
    31   27   28 1  
    32   28   29 1  
    33    2   30 1  
    34    6   31 1  
    35    6   32 1  
    36    7   33 1  
    37    7   34 1  
    38   10   35 1  
    39   12   36 1  
    40   12   37 1  
    41   13   38 1  
    42   16   39 1  
    43   18   40 1  
    44   19   41 1  
    45   19   42 1  
    46   19   43 1  
    47   20   44 1  
    48   22   45 1  
    49   22   46 1  
    50   22   47 1  
    51   24   48 1  
    52   25   49 1  
    53   26   50 1  
    54   27   51 1  
    55   29   52 1  
    56   29   53 1  
    57   29   54 1  
@<TRIPOS>SUBSTRUCTURE
     1 1WJ         1

