### 
### Created by X-TOOL on Mon Sep 10 21:13:14 2018
### 

@<TRIPOS>MOLECULE
4lc7_ligand
   42    45     1     0     0
SMALL
GAST_HUCK


@<TRIPOS>ATOM
      1 C1         23.3990   14.3510    8.6590 C.3       1 1WP         0.1290
      2 C2         23.0810   15.4640    7.6210 C.3       1 1WP         0.0848
      3 C3         22.3370   14.9530    6.3690 C.3       1 1WP        -0.0299
      4 C4         21.1360   14.0350    6.6780 C.3       1 1WP        -0.0519
      5 C5         21.2390   13.1570    7.9510 C.3       1 1WP        -0.0558
      6 C6         22.6990   12.9840    8.4510 C.3       1 1WP        -0.0263
      7 N7         22.8160   14.8570    9.8820 N.pl3     1 1WP        -0.2622
      8 C8         22.1350   15.9690    9.6210 C.cat     1 1WP         0.3460
      9 O9         22.1390   16.3210    8.3110 O.3       1 1WP        -0.3224
     10 C10        24.9300   14.2910    8.7900 C.ar      1 1WP         0.0021
     11 C11        25.6830   13.1500    8.4120 C.ar      1 1WP        -0.0343
     12 C12        27.0940   13.1510    8.5290 C.ar      1 1WP        -0.0309
     13 C13        27.7840   14.2870    9.0150 C.ar      1 1WP        -0.0246
     14 C14        27.0430   15.4350    9.3970 C.ar      1 1WP         0.0186
     15 C15        25.6270   15.4240    9.2770 C.ar      1 1WP        -0.0255
     16 C16        27.6530   16.6290    9.8410 C.ar      1 1WP         0.0168
     17 N17        21.2820   16.5580   10.4490 N.pl3     1 1WP        -0.2512
     18 C18        28.8560   17.0950    9.2500 C.ar      1 1WP         0.0193
     19 N19        29.4360   18.2650    9.6100 N.ar      1 1WP        -0.2959
     20 C20        28.8500   19.0540   10.5340 C.ar      1 1WP         0.0248
     21 C21        27.6330   18.6900   11.1560 C.ar      1 1WP         0.0686
     22 C22        27.0230   17.4630   10.8020 C.ar      1 1WP        -0.0204
     23 CL1        26.9220   19.7360   12.3100 Cl        1 1WP        -0.0610
     24 H1         23.9978   15.9976    7.3300 H         1 1WP         0.0543
     25 H2         23.0507   14.3905    5.7491 H         1 1WP         0.0284
     26 H3         21.9697   15.8240    5.8064 H         1 1WP         0.0284
     27 H4         21.0019   13.3614    5.8188 H         1 1WP         0.0266
     28 H5         20.2471   14.6741    6.7852 H         1 1WP         0.0266
     29 H6         20.8253   12.1629    7.7259 H         1 1WP         0.0259
     30 H7         20.6480   13.6277    8.7505 H         1 1WP         0.0259
     31 H8         22.6863   12.4407    9.4074 H         1 1WP         0.0219
     32 H9         23.2642   12.4035    7.7070 H         1 1WP         0.0219
     33 H10        22.9132   14.4233   10.8112 H         1 1WP         0.3128
     34 H11        25.1749   12.2715    8.0311 H         1 1WP         0.0857
     35 H12        27.6542   12.2684    8.2420 H         1 1WP         0.0700
     36 H13        28.8651   14.2801    9.0944 H         1 1WP         0.0869
     37 H14        25.0658   16.3054    9.5656 H         1 1WP         0.0867
     38 H15        20.7973   17.4202   10.1616 H         1 1WP         0.3201
     39 H16        21.1044   16.1531   11.3793 H         1 1WP         0.3201
     40 H17        29.3281   16.4926    8.4823 H         1 1WP         0.0831
     41 H18        29.3236   19.9902   10.8066 H         1 1WP         0.0825
     42 H19        26.0866   17.1637   11.2588 H         1 1WP         0.0746
@<TRIPOS>BOND
     1    1    2 1  
     2    1    6 1  
     3    1    7 1  
     4    1   10 1  
     5    2    3 1  
     6    2    9 1  
     7    3    4 1  
     8    4    5 1  
     9    5    6 1  
    10    7    8 ar 
    11    8    9 1  
    12    8   17 ar 
    13   10   11 ar 
    14   10   15 ar 
    15   11   12 ar 
    16   12   13 ar 
    17   13   14 ar 
    18   14   15 ar 
    19   14   16 1  
    20   16   18 ar 
    21   16   22 ar 
    22   18   19 ar 
    23   19   20 ar 
    24   20   21 ar 
    25   21   22 ar 
    26   21   23 1  
    27    2   24 1  
    28    3   25 1  
    29    3   26 1  
    30    4   27 1  
    31    4   28 1  
    32    5   29 1  
    33    5   30 1  
    34    6   31 1  
    35    6   32 1  
    36    7   33 1  
    37   11   34 1  
    38   12   35 1  
    39   13   36 1  
    40   15   37 1  
    41   17   38 1  
    42   17   39 1  
    43   18   40 1  
    44   20   41 1  
    45   22   42 1  
@<TRIPOS>SUBSTRUCTURE
     1 1WP         1

