### 
### Created by X-TOOL on Mon Sep 10 21:13:19 2018
### 

@<TRIPOS>MOLECULE
4led_ligand
   23    23     1     0     0
SMALL
GAST_HUCK


@<TRIPOS>ATOM
      1 O4         13.7420   40.1470   -1.2480 O.3       1 XXR        -0.3866
      2 C4         12.6410   39.2580   -1.1550 C.3       1 XXR         0.1095
      3 C5         12.6940   38.3170   -2.3600 C.3       1 XXR         0.0873
      4 C6         13.8890   37.3730   -2.2850 C.3       1 XXR        -0.0361
      5 C3         11.3320   40.0300   -1.1170 C.3       1 XXR         0.1140
      6 O3         11.2870   41.0300   -0.0670 O.3       1 XXR        -0.3864
      7 C2         10.1980   38.9980   -1.0520 C.3       1 XXR         0.1339
      8 O2         10.1920   38.2180    0.1500 O.3       1 XXR        -0.3841
      9 C1         10.3240   38.0780   -2.2790 C.3       1 XXR         0.1853
     10 O5         11.5870   37.4550   -2.3980 O.3       1 XXR        -0.3433
     11 O1         10.2790   38.8100   -3.4970 O.3       1 XXR        -0.3649
     12 H          13.7299   40.7427   -0.5081 H         1 XXR         0.2100
     13 H          12.7277   38.6673   -0.2311 H         1 XXR         0.0646
     14 H          12.7400   38.9202   -3.2787 H         1 XXR         0.0621
     15 H          13.8921   36.7147   -3.1663 H         1 XXR         0.0255
     16 H          13.8180   36.7633   -1.3722 H         1 XXR         0.0255
     17 H          14.8191   37.9599   -2.2626 H         1 XXR         0.0255
     18 H          11.2338   40.5729   -2.0686 H         1 XXR         0.0648
     19 H          11.3953   40.6068    0.7767 H         1 XXR         0.2100
     20 H           9.2405   39.5367   -1.1069 H         1 XXR         0.0671
     21 H          10.0928   38.7936    0.8992 H         1 XXR         0.2101
     22 H           9.5214   37.3269   -2.2373 H         1 XXR         0.0935
     23 H          10.3413   38.2081   -4.2294 H         1 XXR         0.2126
@<TRIPOS>BOND
     1    1    2 1  
     2    2    3 1  
     3    2    5 1  
     4    3    4 1  
     5    3   10 1  
     6    5    6 1  
     7    5    7 1  
     8    7    8 1  
     9    7    9 1  
    10    9   10 1  
    11    9   11 1  
    12    1   12 1  
    13    2   13 1  
    14    3   14 1  
    15    4   15 1  
    16    4   16 1  
    17    4   17 1  
    18    5   18 1  
    19    6   19 1  
    20    7   20 1  
    21    8   21 1  
    22    9   22 1  
    23   11   23 1  
@<TRIPOS>SUBSTRUCTURE
     1 XXR         1

