### 
### Created by X-TOOL on Mon Sep 10 21:13:16 2018
### 

@<TRIPOS>MOLECULE
4leq_ligand
   51    54     1     0     0
SMALL
GAST_HUCK


@<TRIPOS>ATOM
      1 C1          9.7800   17.4240   91.3360 C.ar      1 1WK         0.1119
      2 C2         10.7740   17.8030   90.4290 C.ar      1 1WK         0.0141
      3 C3         10.4870   17.6710   89.0720 C.ar      1 1WK         0.1282
      4 C4          9.2600   17.1740   88.6510 C.ar      1 1WK         0.1227
      5 C5          8.2410   16.7850   89.5190 C.ar      1 1WK         0.0837
      6 C6          6.9440   16.2070   88.9960 C.3       1 1WK         0.0260
      7 C7          5.9840   17.1910   88.3900 C.3       1 1WK        -0.0007
      8 C8          8.5390   16.9130   90.9090 C.ar      1 1WK         0.1473
      9 C9         10.0170   17.5470   92.7890 C.2       1 1WK         0.2072
     10 N10         7.5610   16.5420   91.8490 N.pl3     1 1WK        -0.2634
     11 C11         7.7890   16.6740   93.1150 C.cat     1 1WK         0.1758
     12 N12         6.8480   16.3470   94.0260 N.pl3     1 1WK        -0.3393
     13 N13         8.9740   17.1680   93.5950 N.am      1 1WK        -0.2612
     14 O14        11.0750   17.9550   93.2570 O.2       1 1WK        -0.3875
     15 N15        11.2640   18.0030   88.0000 N.pl3     1 1WK        -0.2051
     16 N16         9.3230   17.2130   87.2820 N.2       1 1WK        -0.2121
     17 C17        10.5550   17.7080   86.9350 C.2       1 1WK         0.2754
     18 N18        10.9200   17.8890   85.6590 N.pl3     1 1WK        -0.2574
     19 C19         9.9580   18.0490   84.5880 C.3       1 1WK         0.0295
     20 C20         3.3480   15.9630   86.1810 C.3       1 1WK         0.1340
     21 O21         2.3290   15.2420   86.8450 O.3       1 1WK        -0.3841
     22 C22         4.7210   15.6650   86.7680 C.3       1 1WK         0.1123
     23 O23         4.8030   14.2650   87.1060 O.3       1 1WK        -0.3865
     24 C24         4.6600   16.5240   88.0360 C.3       1 1WK         0.0944
     25 O25         3.7750   17.6300   87.7420 O.3       1 1WK        -0.3424
     26 C26         3.2600   17.4750   86.4180 C.3       1 1WK         0.1875
     27 O27         4.1340   18.1730   85.5180 O.3       1 1WK        -0.3520
     28 C28         4.0690   19.5940   85.6890 C.3       1 1WK         0.0395
     29 H          11.7303   18.1845   90.7681 H         1 1WK         0.0919
     30 H           6.4336   15.7112   89.8348 H         1 1WK         0.0649
     31 H           7.1933   15.4618   88.2263 H         1 1WK         0.0649
     32 H           6.4297   17.6107   87.4761 H         1 1WK         0.0343
     33 H           5.7964   17.9999   89.1114 H         1 1WK         0.0343
     34 H           6.6587   16.1633   91.5275 H         1 1WK         0.2162
     35 H           7.0439   16.4575   95.0311 H         1 1WK         0.1744
     36 H           5.9341   15.9870   93.7159 H         1 1WK         0.1744
     37 H           9.0839   17.2568   94.5850 H         1 1WK         0.1807
     38 H          12.2128   18.4032   88.0220 H         1 1WK         0.2451
     39 H          11.9240   17.9154   85.4304 H         1 1WK         0.2022
     40 H          10.4898   18.1826   83.6344 H         1 1WK         0.0510
     41 H           9.3325   18.9320   84.7858 H         1 1WK         0.0510
     42 H           9.3212   17.1539   84.5303 H         1 1WK         0.0510
     43 H           3.3113   15.7275   85.1072 H         1 1WK         0.0671
     44 H           2.4954   14.3105   86.7609 H         1 1WK         0.2101
     45 H           5.5451   15.9544   86.0993 H         1 1WK         0.0647
     46 H           4.1317   14.0547   87.7444 H         1 1WK         0.2100
     47 H           4.2964   15.9207   88.8808 H         1 1WK         0.0627
     48 H           2.2277   17.8435   86.3260 H         1 1WK         0.0937
     49 H           4.7542   20.0804   84.9791 H         1 1WK         0.0525
     50 H           4.3615   19.8534   86.7172 H         1 1WK         0.0525
     51 H           3.0415   19.9392   85.5019 H         1 1WK         0.0525
@<TRIPOS>BOND
     1    1    2 ar 
     2    8    1 ar 
     3    1    9 1  
     4    3    2 ar 
     5    4    3 ar 
     6    3   15 1  
     7    5    4 ar 
     8    4   16 1  
     9    6    5 1  
    10    5    8 ar 
    11    7    6 1  
    12   24    7 1  
    13    8   10 1  
    14    9   13 am 
    15    9   14 2  
    16   10   11 ar 
    17   11   12 ar 
    18   11   13 ar 
    19   17   15 1  
    20   16   17 2  
    21   17   18 1  
    22   18   19 1  
    23   20   21 1  
    24   22   20 1  
    25   20   26 1  
    26   22   23 1  
    27   22   24 1  
    28   24   25 1  
    29   25   26 1  
    30   26   27 1  
    31   27   28 1  
    32    2   29 1  
    33    6   30 1  
    34    6   31 1  
    35    7   32 1  
    36    7   33 1  
    37   10   34 1  
    38   12   35 1  
    39   12   36 1  
    40   13   37 1  
    41   15   38 1  
    42   18   39 1  
    43   19   40 1  
    44   19   41 1  
    45   19   42 1  
    46   20   43 1  
    47   21   44 1  
    48   22   45 1  
    49   23   46 1  
    50   24   47 1  
    51   26   48 1  
    52   28   49 1  
    53   28   50 1  
    54   28   51 1  
@<TRIPOS>SUBSTRUCTURE
     1 1WK         1

