### 
### Created by X-TOOL on Mon Sep 10 21:13:12 2018
### 

@<TRIPOS>MOLECULE
4lge_ligand
   84    89     1     0     0
SMALL
GAST_HUCK


@<TRIPOS>ATOM
      1 N2        -22.9550    6.4510  -10.4690 N.4       1 1Y0         0.2438
      2 C1        -24.4100    6.2740  -10.2760 C.3       1 1Y0        -0.0428
      3 C3        -22.5470    7.8260  -10.8130 C.3       1 1Y0         0.0637
      4 C5        -21.0270    7.9660  -10.7110 C.3       1 1Y0        -0.0039
      5 C6        -23.0080    8.2050  -12.1940 C.2       1 1Y0         0.2265
      6 O7        -23.3220    7.3350  -13.0110 O.2       1 1Y0        -0.3907
      7 N8        -23.1200    9.4980  -12.4800 N.am      1 1Y0        -0.2607
      8 C9        -23.5710   10.0070  -13.7700 C.3       1 1Y0         0.1341
      9 C17       -22.4850   10.9380  -14.2890 C.2       1 1Y0         0.2070
     10 O18       -21.6390   11.3820  -13.4960 O.2       1 1Y0        -0.3942
     11 C11       -24.9300   10.7830  -13.6850 C.3       1 1Y0        -0.0006
     12 C12       -24.7290   12.0800  -12.8630 C.3       1 1Y0        -0.0460
     13 C13       -26.0880   12.8050  -12.7130 C.3       1 1Y0        -0.0526
     14 C14       -27.0950   11.8730  -12.0350 C.3       1 1Y0        -0.0530
     15 C15       -27.3330   10.6180  -12.9040 C.3       1 1Y0        -0.0526
     16 C16       -26.0090    9.8440  -13.1070 C.3       1 1Y0        -0.0460
     17 N19       -22.3650   11.2430  -15.5970 N.am      1 1Y0        -0.2395
     18 C20       -23.3800   10.8100  -16.6310 C.3       1 1Y0         0.0797
     19 C21       -22.7180   10.6150  -17.9860 C.3       1 1Y0         0.0011
     20 C23       -23.7150   10.4300  -19.1580 C.3       1 1Y0         0.0004
     21 C24       -22.8550   10.9130  -20.3590 C.3       1 1Y0         0.0123
     22 C26       -21.3900   10.4540  -20.4350 C.3       1 1Y0        -0.0013
     23 C27       -21.7460   11.8190  -19.7730 C.3       1 1Y0        -0.0166
     24 N28       -22.0310   11.8950  -18.3400 N.4       1 1Y0         0.2445
     25 C29       -20.8640   12.0610  -17.4770 C.3       1 1Y0         0.0100
     26 C30       -21.3240   12.2010  -16.0050 C.3       1 1Y0         0.1734
     27 C32       -21.8180   13.5900  -15.6900 C.2       1 1Y0         0.2090
     28 O33       -23.0180   13.8200  -15.5150 O.2       1 1Y0        -0.3942
     29 N34       -20.8630   14.5200  -15.5810 N.am      1 1Y0        -0.2722
     30 C35       -21.1440   15.9110  -15.2080 C.3       1 1Y0         0.0763
     31 C37       -21.5570   16.6710  -16.4840 C.3       1 1Y0         0.0061
     32 C38       -20.3270   17.2330  -17.2200 C.3       1 1Y0         0.0724
     33 O39       -19.5700   18.0640  -16.3050 O.3       1 1Y0        -0.3214
     34 C40       -19.2220   17.5340  -15.0870 C.ar      1 1Y0         0.0950
     35 C41       -18.1020   18.0540  -14.4150 C.ar      1 1Y0        -0.0395
     36 C42       -17.7120   17.5380  -13.1780 C.ar      1 1Y0        -0.0776
     37 C43       -18.3980   16.4900  -12.6100 C.ar      1 1Y0        -0.0796
     38 C44       -19.5030   15.9840  -13.2730 C.ar      1 1Y0        -0.0666
     39 C45       -19.9220   16.4970  -14.5040 C.ar      1 1Y0         0.0114
     40 H1        -22.6593    5.8392  -11.2135 H         1 1Y0         0.2032
     41 H2        -22.4897    6.1891   -9.6141 H         1 1Y0         0.2032
     42 H3        -24.6214    5.2243  -10.0240 H         1 1Y0         0.0777
     43 H4        -24.9381    6.5420  -11.2029 H         1 1Y0         0.0777
     44 H5        -24.7531    6.9238   -9.4574 H         1 1Y0         0.0777
     45 H6        -23.0114    8.5149  -10.0921 H         1 1Y0         0.1096
     46 H7        -20.7354    8.9946  -10.9696 H         1 1Y0         0.0310
     47 H8        -20.5464    7.2627  -11.4070 H         1 1Y0         0.0310
     48 H9        -20.7062    7.7414   -9.6831 H         1 1Y0         0.0310
     49 H10       -22.8812   10.1601  -11.7696 H         1 1Y0         0.1885
     50 H11       -23.6957    9.1618  -14.4629 H         1 1Y0         0.0803
     51 H12       -25.2392   11.0707  -14.7007 H         1 1Y0         0.0348
     52 H13       -24.0168   12.7379  -13.3825 H         1 1Y0         0.0270
     53 H14       -24.3355   11.8270  -11.8674 H         1 1Y0         0.0270
     54 H15       -26.4635   13.0884  -13.7073 H         1 1Y0         0.0265
     55 H16       -25.9552   13.7086  -12.0999 H         1 1Y0         0.0265
     56 H17       -28.0476   12.4057  -11.8983 H         1 1Y0         0.0265
     57 H18       -26.7024   11.5662  -11.0543 H         1 1Y0         0.0265
     58 H19       -27.7273   10.9250  -13.8839 H         1 1Y0         0.0265
     59 H20       -28.0623    9.9638  -12.4039 H         1 1Y0         0.0265
     60 H21       -25.6667    9.4484  -12.1394 H         1 1Y0         0.0270
     61 H22       -26.1780    9.0107  -13.8048 H         1 1Y0         0.0270
     62 H23       -24.1589   11.5818  -16.7176 H         1 1Y0         0.0580
     63 H24       -23.8373    9.8615  -16.3129 H         1 1Y0         0.0580
     64 H25       -22.0158    9.7697  -17.9373 H         1 1Y0         0.0871
     65 H26       -24.6121   11.0530  -19.0273 H         1 1Y0         0.0325
     66 H27       -24.0131    9.3774  -19.2723 H         1 1Y0         0.0325
     67 H28       -23.4392   11.1272  -21.2661 H         1 1Y0         0.0359
     68 H29       -20.8701   10.4317  -21.4041 H         1 1Y0         0.0324
     69 H30       -21.0435    9.6151  -19.8136 H         1 1Y0         0.0324
     70 H31       -21.3893   12.7672  -20.2015 H         1 1Y0         0.0854
     71 H32       -22.6513   12.6728  -18.1776 H         1 1Y0         0.2042
     72 H33       -20.3128   12.9647  -17.7760 H         1 1Y0         0.0864
     73 H34       -20.2087   11.1829  -17.5740 H         1 1Y0         0.0864
     74 H35       -20.4388   12.0093  -15.3807 H         1 1Y0         0.0857
     75 H36       -19.9156   14.2557  -15.7617 H         1 1Y0         0.1878
     76 H37       -21.9881   15.9349  -14.5031 H         1 1Y0         0.0696
     77 H38       -22.2206   17.5034  -16.2069 H         1 1Y0         0.0333
     78 H39       -22.0925   15.9825  -17.1542 H         1 1Y0         0.0333
     79 H40       -20.6549   17.8352  -18.0801 H         1 1Y0         0.0613
     80 H41       -19.6967   16.4032  -17.5723 H         1 1Y0         0.0613
     81 H42       -17.5359   18.8633  -14.8617 H         1 1Y0         0.0521
     82 H43       -16.8614   17.9669  -12.6608 H         1 1Y0         0.0531
     83 H44       -18.0801   16.0690  -11.6630 H         1 1Y0         0.0505
     84 H45       -20.0584   15.1678  -12.8254 H         1 1Y0         0.0526
@<TRIPOS>BOND
     1    1    2 1  
     2    1    3 1  
     3    3    4 1  
     4    3    5 1  
     5    5    6 2  
     6    5    7 am 
     7    7    8 1  
     8    8    9 1  
     9    8   11 1  
    10    9   10 2  
    11    9   17 am 
    12   11   12 1  
    13   11   16 1  
    14   12   13 1  
    15   13   14 1  
    16   14   15 1  
    17   15   16 1  
    18   17   18 1  
    19   17   26 1  
    20   18   19 1  
    21   19   20 1  
    22   19   24 1  
    23   20   21 1  
    24   21   22 1  
    25   21   23 1  
    26   22   23 1  
    27   23   24 1  
    28   24   25 1  
    29   25   26 1  
    30   26   27 1  
    31   27   28 2  
    32   27   29 am 
    33   29   30 1  
    34   30   31 1  
    35   30   39 1  
    36   31   32 1  
    37   32   33 1  
    38   33   34 1  
    39   34   35 ar 
    40   34   39 ar 
    41   35   36 ar 
    42   36   37 ar 
    43   37   38 ar 
    44   38   39 ar 
    45    1   40 1  
    46    1   41 1  
    47    2   42 1  
    48    2   43 1  
    49    2   44 1  
    50    3   45 1  
    51    4   46 1  
    52    4   47 1  
    53    4   48 1  
    54    7   49 1  
    55    8   50 1  
    56   11   51 1  
    57   12   52 1  
    58   12   53 1  
    59   13   54 1  
    60   13   55 1  
    61   14   56 1  
    62   14   57 1  
    63   15   58 1  
    64   15   59 1  
    65   16   60 1  
    66   16   61 1  
    67   18   62 1  
    68   18   63 1  
    69   19   64 1  
    70   20   65 1  
    71   20   66 1  
    72   21   67 1  
    73   22   68 1  
    74   22   69 1  
    75   23   70 1  
    76   24   71 1  
    77   25   72 1  
    78   25   73 1  
    79   26   74 1  
    80   29   75 1  
    81   30   76 1  
    82   31   77 1  
    83   31   78 1  
    84   32   79 1  
    85   32   80 1  
    86   35   81 1  
    87   36   82 1  
    88   37   83 1  
    89   38   84 1  
@<TRIPOS>SUBSTRUCTURE
     1 1Y0         1

