### 
### Created by X-TOOL on Mon Sep 10 21:13:15 2018
### 

@<TRIPOS>MOLECULE
4lgg_ligand
   43    45     1     0     0
SMALL
GAST_HUCK


@<TRIPOS>ATOM
      1 C20        -4.5440   -4.3530   -9.4040 C.3       1 VGG        -0.0319
      2 C19        -5.8670   -4.5970   -8.7560 C.3       1 VGG         0.0794
      3 C21        -6.4600   -3.2830   -8.3680 C.3       1 VGG        -0.0319
      4 C22        -6.7680   -5.2820   -9.7290 C.3       1 VGG        -0.0319
      5 N7         -5.6980   -5.4100   -7.5850 N.pl3     1 VGG        -0.1891
      6 N8         -4.5210   -5.8260   -7.1300 N.2       1 VGG        -0.2105
      7 C3         -6.7070   -5.8570   -6.7790 C.ar      1 VGG         0.1585
      8 N2         -8.0720   -5.6930   -6.8310 N.ar      1 VGG        -0.2691
      9 C1         -8.8730   -6.2400   -5.9090 C.ar      1 VGG         0.0558
     10 N6         -8.3650   -6.9710   -4.8950 N.ar      1 VGG        -0.2661
     11 C5         -7.0330   -7.1780   -4.7730 C.ar      1 VGG         0.1272
     12 N10        -6.6060   -7.9670   -3.6560 N.pl3     1 VGG        -0.3122
     13 C4         -6.1370   -6.6110   -5.7390 C.ar      1 VGG         0.0861
     14 C9         -4.7020   -6.5580   -6.0210 C.2       1 VGG         0.0540
     15 C11        -3.5440   -7.1570   -5.2880 C.3       1 VGG         0.0219
     16 C12        -3.7410   -8.6140   -5.0290 C.ar      1 VGG        -0.0385
     17 C13        -3.3100   -9.1530   -3.8250 C.ar      1 VGG        -0.0576
     18 C17        -4.3370   -9.4300   -5.9810 C.ar      1 VGG        -0.0654
     19 C16        -4.5090  -10.7830   -5.7220 C.ar      1 VGG        -0.0749
     20 C15        -4.0780  -11.3210   -4.5160 C.ar      1 VGG        -0.0673
     21 C14        -3.4790  -10.5050   -3.5680 C.ar      1 VGG        -0.0526
     22 C18        -3.0120  -11.0730   -2.2710 C.3       1 VGG        -0.0327
     23 H1         -4.6838   -3.7297  -10.2995 H         1 VGG         0.0261
     24 H2         -4.0943   -5.3144   -9.6930 H         1 VGG         0.0261
     25 H3         -3.8793   -3.8351   -8.6969 H         1 VGG         0.0261
     26 H4         -7.4362   -3.4485   -7.8888 H         1 VGG         0.0261
     27 H5         -6.5929   -2.6613   -9.2657 H         1 VGG         0.0261
     28 H6         -5.7879   -2.7711   -7.6636 H         1 VGG         0.0261
     29 H7         -6.3308   -6.2501  -10.0147 H         1 VGG         0.0261
     30 H8         -6.8856   -4.6542  -10.6246 H         1 VGG         0.0261
     31 H9         -7.7516   -5.4466   -9.2648 H         1 VGG         0.0261
     32 H10        -9.9449   -6.0938   -5.9777 H         1 VGG         0.1029
     33 H11        -5.6039   -8.1572   -3.5129 H         1 VGG         0.1845
     34 H12        -7.3011   -8.3441   -2.9961 H         1 VGG         0.1845
     35 H13        -3.4256   -6.6378   -4.3255 H         1 VGG         0.0582
     36 H14        -2.6339   -7.0232   -5.8912 H         1 VGG         0.0582
     37 H15        -2.8404   -8.5160   -3.0842 H         1 VGG         0.0497
     38 H16        -4.6674   -9.0115   -6.9248 H         1 VGG         0.0503
     39 H17        -4.9801  -11.4203   -6.4616 H         1 VGG         0.0582
     40 H18        -4.2098  -12.3782   -4.3160 H         1 VGG         0.0501
     41 H19        -2.5684  -10.2737   -1.6592 H         1 VGG         0.0390
     42 H20        -2.2575  -11.8504   -2.4616 H         1 VGG         0.0390
     43 H21        -3.8655  -11.5139   -1.7352 H         1 VGG         0.0390
@<TRIPOS>BOND
     1    1    2 1  
     2    2    3 1  
     3    2    4 1  
     4    2    5 1  
     5    5    6 1  
     6    5    7 1  
     7    6   14 2  
     8    7    8 ar 
     9    7   13 ar 
    10    8    9 ar 
    11    9   10 ar 
    12   10   11 ar 
    13   11   12 1  
    14   11   13 ar 
    15   13   14 1  
    16   14   15 1  
    17   15   16 1  
    18   16   17 ar 
    19   16   18 ar 
    20   17   21 ar 
    21   18   19 ar 
    22   19   20 ar 
    23   20   21 ar 
    24   21   22 1  
    25    1   23 1  
    26    1   24 1  
    27    1   25 1  
    28    3   26 1  
    29    3   27 1  
    30    3   28 1  
    31    4   29 1  
    32    4   30 1  
    33    4   31 1  
    34    9   32 1  
    35   12   33 1  
    36   12   34 1  
    37   15   35 1  
    38   15   36 1  
    39   17   37 1  
    40   18   38 1  
    41   19   39 1  
    42   20   40 1  
    43   22   41 1  
    44   22   42 1  
    45   22   43 1  
@<TRIPOS>SUBSTRUCTURE
     1 VGG         1

