### 
### Created by X-TOOL on Mon Sep 10 21:13:15 2018
### 

@<TRIPOS>MOLECULE
4lgh_ligand
   46    49     1     0     0
SMALL
GAST_HUCK


@<TRIPOS>ATOM
      1 N1         -8.2320    4.8260   -7.3540 N.ar      1 0JN        -0.2661
      2 C2         -8.6440    5.9800   -6.7130 C.ar      1 0JN         0.0558
      3 N3         -7.7540    6.8950   -6.2900 N.ar      1 0JN        -0.2691
      4 C4         -6.3990    6.7300   -6.4820 C.ar      1 0JN         0.1585
      5 C5         -5.9420    5.5490   -7.1380 C.ar      1 0JN         0.0863
      6 C6         -6.9140    4.5890   -7.5760 C.ar      1 0JN         0.1272
      7 CAA        -3.9620    9.4440   -5.5240 C.3       1 0JN        -0.0319
      8 CAB        -6.2690    9.7480   -6.0930 C.3       1 0JN        -0.0319
      9 CAE        -2.3520    0.9210  -11.1550 C.ar      1 0JN        -0.0629
     10 CAF        -2.1450    1.0930   -9.7760 C.ar      1 0JN        -0.0625
     11 CAG        -4.4910    5.3430  -11.4270 C.ar      1 0JN        -0.0704
     12 CAH        -4.3000    5.5300  -10.0820 C.ar      1 0JN        -0.0589
     13 CAI        -2.9840    1.9360  -11.9060 C.ar      1 0JN        -0.0569
     14 CAJ        -4.0520    4.1350  -12.0540 C.ar      1 0JN        -0.0629
     15 CAR        -3.6480    4.5000   -9.2860 C.ar      1 0JN        -0.0212
     16 CAS        -4.4710    5.7040   -7.1660 C.2       1 0JN         0.0551
     17 CAT        -3.3990    3.0970  -11.2660 C.ar      1 0JN        -0.0240
     18 NAX        -5.2960    7.4870   -6.1570 N.pl3     1 0JN        -0.1890
     19 CAY        -5.3080    8.8280   -5.4430 C.3       1 0JN         0.0794
     20 CAC        -5.6970    8.6210   -3.9630 C.3       1 0JN        -0.0319
     21 NAP        -4.1470    6.8660   -6.5690 N.2       1 0JN        -0.2101
     22 NAD        -6.5500    3.3730   -8.2480 N.pl3     1 0JN        -0.3122
     23 CAM        -3.4410    4.7340   -7.7470 C.3       1 0JN         0.0257
     24 CAU        -3.2010    3.2730   -9.9190 C.ar      1 0JN        -0.0105
     25 CAK        -2.5420    2.2120   -9.1500 C.ar      1 0JN        -0.0547
     26 H1         -9.7020    6.1498   -6.5488 H         1 0JN         0.1029
     27 H2         -3.9714   10.4148   -5.0069 H         1 0JN         0.0261
     28 H3         -3.6900    9.5933   -6.5793 H         1 0JN         0.0261
     29 H4         -3.2259    8.7810   -5.0458 H         1 0JN         0.0261
     30 H5         -7.2792    9.3150   -6.0475 H         1 0JN         0.0261
     31 H6         -5.9808    9.8966   -7.1441 H         1 0JN         0.0261
     32 H7         -6.2610   10.7158   -5.5703 H         1 0JN         0.0261
     33 H8         -2.0265    0.0091  -11.6424 H         1 0JN         0.0616
     34 H9         -1.6567    0.3092   -9.2083 H         1 0JN         0.0601
     35 H10        -4.9759    6.1127  -12.0164 H         1 0JN         0.0595
     36 H11        -4.6352    6.4467   -9.6104 H         1 0JN         0.0534
     37 H12        -3.1437    1.8106  -12.9708 H         1 0JN         0.0609
     38 H13        -4.2052    3.9910  -13.1174 H         1 0JN         0.0544
     39 H14        -4.9788    7.9369   -3.4874 H         1 0JN         0.0261
     40 H15        -6.7072    8.1895   -3.9063 H         1 0JN         0.0261
     41 H16        -5.6819    9.5891   -3.4410 H         1 0JN         0.0261
     42 H17        -5.5585    3.1631   -8.4318 H         1 0JN         0.1845
     43 H18        -7.2805    2.7108   -8.5461 H         1 0JN         0.1845
     44 H19        -2.4345    5.1466   -7.5837 H         1 0JN         0.0596
     45 H20        -3.5306    3.7689   -7.2268 H         1 0JN         0.0596
     46 H21        -2.3770    2.3306   -8.0852 H         1 0JN         0.0628
@<TRIPOS>BOND
     1    2    1 ar 
     2    6    1 ar 
     3    3    2 ar 
     4    4    3 ar 
     5    4    5 ar 
     6   18    4 1  
     7    5    6 ar 
     8    5   16 1  
     9    6   22 1  
    10   19    7 1  
    11   19    8 1  
    12    9   10 ar 
    13   13    9 ar 
    14   10   25 ar 
    15   12   11 ar 
    16   11   14 ar 
    17   15   12 ar 
    18   17   13 ar 
    19   17   14 ar 
    20   23   15 1  
    21   15   24 ar 
    22   16   21 2  
    23   16   23 1  
    24   24   17 ar 
    25   18   19 1  
    26   18   21 1  
    27   19   20 1  
    28   24   25 ar 
    29    2   26 1  
    30    7   27 1  
    31    7   28 1  
    32    7   29 1  
    33    8   30 1  
    34    8   31 1  
    35    8   32 1  
    36    9   33 1  
    37   10   34 1  
    38   11   35 1  
    39   12   36 1  
    40   13   37 1  
    41   14   38 1  
    42   20   39 1  
    43   20   40 1  
    44   20   41 1  
    45   22   42 1  
    46   22   43 1  
    47   23   44 1  
    48   23   45 1  
    49   25   46 1  
@<TRIPOS>SUBSTRUCTURE
     1 0JN         1

