### 
### Created by X-TOOL on Mon Sep 10 21:13:13 2018
### 

@<TRIPOS>MOLECULE
4lgu_ligand
   83    87     1     0     0
SMALL
GAST_HUCK


@<TRIPOS>ATOM
      1 N2         23.7850   -5.8610  -10.9070 N.4       1 1YH         0.2438
      2 C1         25.2260   -6.0880  -10.7120 C.3       1 1YH        -0.0428
      3 C3         23.1100   -7.0420  -11.4580 C.3       1 1YH         0.0637
      4 C5         21.5960   -6.8540  -11.5310 C.3       1 1YH        -0.0039
      5 C6         23.5690   -7.3530  -12.8500 C.2       1 1YH         0.2265
      6 O7         24.0170   -6.5020  -13.5800 O.2       1 1YH        -0.3907
      7 N8         23.4320   -8.6090  -13.2650 N.am      1 1YH        -0.2607
      8 C9         23.8630   -9.0650  -14.5640 C.3       1 1YH         0.1341
      9 C17        22.7090   -9.8280  -15.1760 C.2       1 1YH         0.2070
     10 O18        21.8500  -10.2440  -14.4290 O.2       1 1YH        -0.3942
     11 C11        25.0390   -9.9050  -14.0430 C.3       1 1YH        -0.0006
     12 C12        24.9350  -11.4170  -14.2730 C.3       1 1YH        -0.0460
     13 C13        26.0560  -12.1570  -13.5270 C.3       1 1YH        -0.0526
     14 C14        27.4320  -11.4630  -13.3890 C.3       1 1YH        -0.0530
     15 C15        27.5320   -9.9510  -13.6880 C.3       1 1YH        -0.0526
     16 C16        26.3740   -9.3450  -14.5060 C.3       1 1YH        -0.0460
     17 N19        22.5780  -10.0200  -16.5090 N.am      1 1YH        -0.2395
     18 C20        23.6230   -9.5560  -17.4660 C.3       1 1YH         0.0797
     19 C21        23.0300   -9.2730  -18.8410 C.3       1 1YH         0.0005
     20 C23        24.0980   -9.2820  -19.9520 C.3       1 1YH        -0.0030
     21 C24        23.2610   -9.6120  -21.2220 C.3       1 1YH        -0.0074
     22 C25        21.8500   -9.9590  -20.6600 C.3       1 1YH        -0.0311
     23 N26        22.1200  -10.3620  -19.2590 N.4       1 1YH         0.2422
     24 C27        20.9290  -10.4760  -18.4140 C.3       1 1YH         0.0097
     25 C28        21.4100  -10.7970  -16.9530 C.3       1 1YH         0.1734
     26 C30        21.7630  -12.2600  -16.8110 C.2       1 1YH         0.2090
     27 O31        22.9200  -12.6940  -16.7380 O.2       1 1YH        -0.3942
     28 N32        20.7180  -13.0750  -16.7300 N.am      1 1YH        -0.2722
     29 C33        20.8380  -14.5130  -16.5850 C.3       1 1YH         0.0763
     30 C35        20.8340  -15.0420  -18.0220 C.3       1 1YH         0.0061
     31 C36        20.4930  -16.5310  -17.9710 C.3       1 1YH         0.0724
     32 O37        19.1460  -16.6230  -17.4930 O.3       1 1YH        -0.3214
     33 C38        18.8450  -16.0160  -16.3020 C.ar      1 1YH         0.0950
     34 C39        17.7220  -16.4390  -15.5720 C.ar      1 1YH        -0.0395
     35 C40        17.4090  -15.8220  -14.3670 C.ar      1 1YH        -0.0776
     36 C41        18.2100  -14.7950  -13.8780 C.ar      1 1YH        -0.0796
     37 C42        19.3130  -14.3810  -14.6050 C.ar      1 1YH        -0.0666
     38 C43        19.6270  -14.9820  -15.8170 C.ar      1 1YH         0.0114
     39 H1         23.6606   -5.0891  -11.5433 H         1 1YH         0.2032
     40 H2         23.3684   -5.6339  -10.0177 H         1 1YH         0.2032
     41 H3         25.6878   -5.1790  -10.2990 H         1 1YH         0.0777
     42 H4         25.6931   -6.3300  -11.6780 H         1 1YH         0.0777
     43 H5         25.3742   -6.9245  -10.0132 H         1 1YH         0.0777
     44 H6         23.3352   -7.8982  -10.8052 H         1 1YH         0.1096
     45 H7         21.1337   -7.7606  -11.9485 H         1 1YH         0.0310
     46 H8         21.3640   -5.9938  -12.1762 H         1 1YH         0.0310
     47 H9         21.1999   -6.6723  -10.5210 H         1 1YH         0.0310
     48 H10        23.0091   -9.2704  -12.6456 H         1 1YH         0.1885
     49 H11        24.1897   -8.2631  -15.2424 H         1 1YH         0.0803
     50 H12        25.0215   -9.7796  -12.9503 H         1 1YH         0.0348
     51 H13        25.0190  -11.6253  -15.3498 H         1 1YH         0.0270
     52 H14        23.9609  -11.7722  -13.9056 H         1 1YH         0.0270
     53 H15        26.2232  -13.1086  -14.0528 H         1 1YH         0.0265
     54 H16        25.6907  -12.3595  -12.5094 H         1 1YH         0.0265
     55 H17        28.1234  -11.9752  -14.0743 H         1 1YH         0.0265
     56 H18        27.7670  -11.6110  -12.3518 H         1 1YH         0.0265
     57 H19        28.4641   -9.7794  -14.2464 H         1 1YH         0.0265
     58 H20        27.5779   -9.4201  -12.7257 H         1 1YH         0.0265
     59 H21        26.3724   -8.2528  -14.3753 H         1 1YH         0.0270
     60 H22        26.5178   -9.5868  -15.5694 H         1 1YH         0.0270
     61 H23        24.3927  -10.3360  -17.5617 H         1 1YH         0.0580
     62 H24        24.0810   -8.6346  -17.0771 H         1 1YH         0.0580
     63 H25        22.5038   -8.3074  -18.8144 H         1 1YH         0.0871
     64 H26        24.8588  -10.0543  -19.7657 H         1 1YH         0.0322
     65 H27        24.5863   -8.3004  -20.0419 H         1 1YH         0.0322
     66 H28        23.6894  -10.4697  -21.7613 H         1 1YH         0.0319
     67 H29        23.2115   -8.7433  -21.8950 H         1 1YH         0.0319
     68 H30        21.3949  -10.7856  -21.2253 H         1 1YH         0.0814
     69 H31        21.1870   -9.0820  -20.6951 H         1 1YH         0.0814
     70 H32        22.5975  -11.2495  -19.2377 H         1 1YH         0.2039
     71 H33        20.2839  -11.2870  -18.7829 H         1 1YH         0.0864
     72 H34        20.3697   -9.5289  -18.4248 H         1 1YH         0.0864
     73 H35        20.5735  -10.5687  -16.2762 H         1 1YH         0.0857
     74 H36        19.8015  -12.6770  -16.7711 H         1 1YH         0.1878
     75 H37        21.7619  -14.7990  -16.0610 H         1 1YH         0.0696
     76 H38        21.8262  -14.9007  -18.4755 H         1 1YH         0.0333
     77 H39        20.0795  -14.5056  -18.6161 H         1 1YH         0.0333
     78 H40        21.1761  -17.0541  -17.2856 H         1 1YH         0.0613
     79 H41        20.5710  -16.9735  -18.9751 H         1 1YH         0.0613
     80 H42        17.1013  -17.2444  -15.9476 H         1 1YH         0.0521
     81 H43        16.5381  -16.1418  -13.8063 H         1 1YH         0.0531
     82 H44        17.9717  -14.3214  -12.9325 H         1 1YH         0.0505
     83 H45        19.9372  -13.5805  -14.2248 H         1 1YH         0.0526
@<TRIPOS>BOND
     1    1    2 1  
     2    1    3 1  
     3    3    4 1  
     4    3    5 1  
     5    5    6 2  
     6    5    7 am 
     7    7    8 1  
     8    8    9 1  
     9    8   11 1  
    10    9   10 2  
    11    9   17 am 
    12   11   12 1  
    13   11   16 1  
    14   12   13 1  
    15   13   14 1  
    16   14   15 1  
    17   15   16 1  
    18   17   18 1  
    19   17   25 1  
    20   18   19 1  
    21   19   20 1  
    22   19   23 1  
    23   20   21 1  
    24   21   22 1  
    25   22   23 1  
    26   23   24 1  
    27   24   25 1  
    28   25   26 1  
    29   26   27 2  
    30   26   28 am 
    31   28   29 1  
    32   29   30 1  
    33   29   38 1  
    34   30   31 1  
    35   31   32 1  
    36   32   33 1  
    37   33   34 ar 
    38   33   38 ar 
    39   34   35 ar 
    40   35   36 ar 
    41   36   37 ar 
    42   37   38 ar 
    43    1   39 1  
    44    1   40 1  
    45    2   41 1  
    46    2   42 1  
    47    2   43 1  
    48    3   44 1  
    49    4   45 1  
    50    4   46 1  
    51    4   47 1  
    52    7   48 1  
    53    8   49 1  
    54   11   50 1  
    55   12   51 1  
    56   12   52 1  
    57   13   53 1  
    58   13   54 1  
    59   14   55 1  
    60   14   56 1  
    61   15   57 1  
    62   15   58 1  
    63   16   59 1  
    64   16   60 1  
    65   18   61 1  
    66   18   62 1  
    67   19   63 1  
    68   20   64 1  
    69   20   65 1  
    70   21   66 1  
    71   21   67 1  
    72   22   68 1  
    73   22   69 1  
    74   23   70 1  
    75   24   71 1  
    76   24   72 1  
    77   25   73 1  
    78   28   74 1  
    79   29   75 1  
    80   30   76 1  
    81   30   77 1  
    82   31   78 1  
    83   31   79 1  
    84   34   80 1  
    85   35   81 1  
    86   36   82 1  
    87   37   83 1  
@<TRIPOS>SUBSTRUCTURE
     1 1YH         1

