### 
### Created by X-TOOL on Mon Sep 10 21:13:12 2018
### 

@<TRIPOS>MOLECULE
4lh2_ligand
   12    11     1     0     0
SMALL
GAST_HUCK


@<TRIPOS>ATOM
      1 C1         19.2870    2.1820   -3.7880 C.2       1 SIN         0.0364
      2 O1         20.2560    1.7770   -4.4800 O.co2     1 SIN        -0.5689
      3 O2         18.4280    2.9130   -4.3220 O.co2     1 SIN        -0.5689
      4 C2         19.1300    1.8250   -2.3280 C.3       1 SIN         0.0117
      5 C3         20.3060    0.9920   -1.8380 C.3       1 SIN         0.0117
      6 C4         20.0190   -0.4810   -2.0250 C.2       1 SIN         0.0364
      7 O3         19.2070   -0.8470   -2.8940 O.co2     1 SIN        -0.5689
      8 O4         20.5770   -1.3570   -1.3170 O.co2     1 SIN        -0.5689
      9 H1         18.2022    1.2488   -2.1968 H         1 SIN         0.0448
     10 H2         19.0738    2.7503   -1.7359 H         1 SIN         0.0448
     11 H3         20.4756    1.1961   -0.7705 H         1 SIN         0.0448
     12 H4         21.2057    1.2620   -2.4104 H         1 SIN         0.0448
@<TRIPOS>BOND
     1    1    2 ar 
     2    1    3 ar 
     3    1    4 1  
     4    4    5 1  
     5    5    6 1  
     6    6    7 ar 
     7    6    8 ar 
     8    4    9 1  
     9    4   10 1  
    10    5   11 1  
    11    5   12 1  
@<TRIPOS>SUBSTRUCTURE
     1 SIN         1

