### 
### Created by X-TOOL on Mon Sep 10 21:13:13 2018
### 

@<TRIPOS>MOLECULE
4lh3_ligand
   15    14     1     0     0
SMALL
GAST_HUCK


@<TRIPOS>ATOM
      1 C1         19.9340   -0.9460   -0.1760 C.2       1 GUA         0.0349
      2 C2         19.7730    0.4910   -0.5790 C.3       1 GUA         0.0017
      3 C3         19.6380    0.6390   -2.0680 C.3       1 GUA        -0.0298
      4 C4         19.2930    2.0570   -2.3970 C.3       1 GUA         0.0017
      5 C5         19.2420    2.2690   -3.8830 C.2       1 GUA         0.0349
      6 O1         20.5240   -1.7610   -0.9300 O.co2     1 GUA        -0.5690
      7 O2         19.4850   -1.3550    0.9290 O.co2     1 GUA        -0.5690
      8 O3         20.0880    1.7280   -4.6490 O.co2     1 GUA        -0.5690
      9 O4         18.3450    2.9980   -4.3860 O.co2     1 GUA        -0.5690
     10 H1         20.6548    1.0563   -0.2432 H         1 GUA         0.0431
     11 H2         18.8715    0.8975   -0.0973 H         1 GUA         0.0431
     12 H3         18.8415   -0.0265   -2.4323 H         1 GUA         0.0300
     13 H4         20.5892    0.3712   -2.5512 H         1 GUA         0.0300
     14 H5         20.0553    2.7220   -1.9650 H         1 GUA         0.0431
     15 H6         18.3100    2.2972   -1.9657 H         1 GUA         0.0431
@<TRIPOS>BOND
     1    1    2 1  
     2    1    6 ar 
     3    1    7 ar 
     4    2    3 1  
     5    3    4 1  
     6    4    5 1  
     7    5    8 ar 
     8    5    9 ar 
     9    2   10 1  
    10    2   11 1  
    11    3   12 1  
    12    3   13 1  
    13    4   14 1  
    14    4   15 1  
@<TRIPOS>SUBSTRUCTURE
     1 GUA         1

