### 
### Created by X-TOOL on Mon Sep 10 21:13:13 2018
### 

@<TRIPOS>MOLECULE
4lh5_ligand
   60    63     1     0     0
SMALL
GAST_HUCK


@<TRIPOS>ATOM
      1 C1          9.7180  -47.1960  -15.9090 C.ar      1 LF0        -0.0116
      2 C2         11.1530  -47.5360  -15.7370 C.ar      1 LF0         0.0195
      3 C3         11.5990  -48.9550  -15.9160 C.ar      1 LF0         0.0137
      4 N1         10.7070  -49.9190  -16.0900 N.ar      1 LF0        -0.3171
      5 C5          9.4000  -49.7130  -16.1360 C.ar      1 LF0         0.0128
      6 C6          8.8150  -48.3690  -16.0050 C.ar      1 LF0        -0.0214
      7 C7          9.1510  -45.7970  -15.8080 C.ar      1 LF0        -0.0364
      8 C8          9.2240  -45.8800  -14.5230 C.ar      1 LF0        -0.0694
      9 C9          8.8650  -44.9760  -13.7110 C.ar      1 LF0        -0.0379
     10 C10         8.4470  -43.8420  -14.0840 C.ar      1 LF0         0.0943
     11 C11         8.3010  -43.5730  -15.4230 C.ar      1 LF0        -0.0123
     12 C12         8.6570  -44.5790  -16.4600 C.ar      1 LF0        -0.0611
     13 C13         7.3220  -48.1590  -16.1030 C.3       1 LF0        -0.0199
     14 C14         6.6120  -49.4450  -15.6980 C.3       1 LF0        -0.0424
     15 C15         7.0840  -50.5850  -16.5850 C.3       1 LF0        -0.0416
     16 C16         8.5570  -50.9570  -16.3610 C.3       1 LF0        -0.0116
     17 C17        13.0410  -49.4290  -15.8270 C.3       1 LF0        -0.0235
     18 C18        12.1240  -46.4500  -15.4950 C.3       1 LF0         0.1441
     19 C19        12.6760  -46.5450  -14.0710 C.2       1 LF0         0.0748
     20 O20        13.7760  -46.1250  -13.7790 O.co2     1 LF0        -0.5641
     21 O21        11.9560  -47.0200  -13.0730 O.co2     1 LF0        -0.5641
     22 O22        13.2420  -46.4540  -16.3270 O.3       1 LF0        -0.3458
     23 C23        13.0700  -45.7790  -17.5810 C.3       1 LF0         0.0661
     24 C24        12.5850  -44.3370  -17.4120 C.3       1 LF0        -0.0360
     25 C25        12.1330  -46.5650  -18.4740 C.3       1 LF0        -0.0360
     26 C26        14.4580  -45.8230  -18.2270 C.3       1 LF0        -0.0360
     27 O27         8.1500  -43.2490  -12.8250 O.3       1 LF0        -0.3205
     28 C4          7.4710  -42.0320  -12.8210 C.3       1 LF0         0.0708
     29 C20         8.0640  -41.4730  -14.1050 C.3       1 LF0        -0.0170
     30 C21         7.7460  -42.2560  -15.3240 C.3       1 LF0        -0.0184
     31 H1          9.6244  -46.7962  -14.1043 H         1 LF0         0.0540
     32 H2          8.9185  -45.1839  -12.6485 H         1 LF0         0.0527
     33 H3          8.5656  -44.4345  -17.5304 H         1 LF0         0.0529
     34 H4          7.0532  -47.8996  -17.1376 H         1 LF0         0.0414
     35 H5          7.0194  -47.3432  -15.4300 H         1 LF0         0.0414
     36 H6          5.5257  -49.3162  -15.8135 H         1 LF0         0.0288
     37 H7          6.8441  -49.6770  -14.6481 H         1 LF0         0.0288
     38 H8          6.9549  -50.2866  -17.6359 H         1 LF0         0.0288
     39 H9          6.4646  -51.4697  -16.3762 H         1 LF0         0.0288
     40 H10         8.6339  -51.6091  -15.4785 H         1 LF0         0.0425
     41 H11         8.9324  -51.4917  -17.2460 H         1 LF0         0.0425
     42 H12        13.0813  -50.5148  -15.9986 H         1 LF0         0.0389
     43 H13        13.4411  -49.2006  -14.8281 H         1 LF0         0.0389
     44 H14        13.6438  -48.9146  -16.5899 H         1 LF0         0.0389
     45 H15        11.5950  -45.4942  -15.6236 H         1 LF0         0.0915
     46 H16        12.4711  -43.8702  -18.4015 H         1 LF0         0.0257
     47 H17        13.3196  -43.7699  -16.8214 H         1 LF0         0.0257
     48 H18        11.6158  -44.3347  -16.8918 H         1 LF0         0.0257
     49 H19        12.0099  -46.0371  -19.4312 H         1 LF0         0.0257
     50 H20        11.1544  -46.6644  -17.9816 H         1 LF0         0.0257
     51 H21        12.5541  -47.5644  -18.6580 H         1 LF0         0.0257
     52 H22        14.4229  -45.3224  -19.2059 H         1 LF0         0.0257
     53 H23        14.7668  -46.8701  -18.3616 H         1 LF0         0.0257
     54 H24        15.1812  -45.3080  -17.5776 H         1 LF0         0.0257
     55 H25         7.7178  -41.4172  -11.9429 H         1 LF0         0.0613
     56 H26         6.3803  -42.1602  -12.8841 H         1 LF0         0.0613
     57 H27         9.1578  -41.4421  -13.9928 H         1 LF0         0.0311
     58 H28         7.6806  -40.4514  -14.2437 H         1 LF0         0.0311
     59 H29         6.6517  -42.3538  -15.3775 H         1 LF0         0.0404
     60 H30         8.1055  -41.6801  -16.1895 H         1 LF0         0.0404
@<TRIPOS>BOND
     1    1    2 ar 
     2    1    6 ar 
     3    1    7 1  
     4    2    3 ar 
     5    2   18 1  
     6    3    4 ar 
     7    3   17 1  
     8    4    5 ar 
     9    5    6 ar 
    10    5   16 1  
    11    6   13 1  
    12    7    8 ar 
    13    7   12 ar 
    14    8    9 ar 
    15    9   10 ar 
    16   10   11 ar 
    17   10   27 1  
    18   11   12 ar 
    19   11   30 1  
    20   13   14 1  
    21   14   15 1  
    22   15   16 1  
    23   18   19 1  
    24   18   22 1  
    25   19   20 ar 
    26   19   21 ar 
    27   22   23 1  
    28   23   24 1  
    29   23   25 1  
    30   23   26 1  
    31   27   28 1  
    32   28   29 1  
    33   29   30 1  
    34    8   31 1  
    35    9   32 1  
    36   12   33 1  
    37   13   34 1  
    38   13   35 1  
    39   14   36 1  
    40   14   37 1  
    41   15   38 1  
    42   15   39 1  
    43   16   40 1  
    44   16   41 1  
    45   17   42 1  
    46   17   43 1  
    47   17   44 1  
    48   18   45 1  
    49   24   46 1  
    50   24   47 1  
    51   24   48 1  
    52   25   49 1  
    53   25   50 1  
    54   25   51 1  
    55   26   52 1  
    56   26   53 1  
    57   26   54 1  
    58   28   55 1  
    59   28   56 1  
    60   29   57 1  
    61   29   58 1  
    62   30   59 1  
    63   30   60 1  
@<TRIPOS>SUBSTRUCTURE
     1 LF0         1

