### 
### Created by X-TOOL on Mon Sep 10 21:13:15 2018
### 

@<TRIPOS>MOLECULE
4lh6_ligand
   20    21     1     0     0
SMALL
GAST_HUCK


@<TRIPOS>ATOM
      1 C1         21.6060   34.7650   20.2020 C.2       1 1X7        -0.0456
      2 C2         20.9630   34.5590   18.9150 C.ar      1 1X7         0.0337
      3 C3         20.3370   33.3050   18.8520 C.ar      1 1X7         0.0655
      4 N6         20.2270   35.0290   16.6800 N.ar      1 1X7        -0.2886
      5 C7         20.8870   35.4040   17.7680 C.ar      1 1X7         0.1153
      6 C9         18.9580   31.6590   17.5370 C.2       1 1X7         0.1963
      7 C13        21.4680   33.7630   21.0570 C.2       1 1X7         0.0682
      8 C4         19.6590   32.9490   17.6520 C.ar      1 1X7         0.0735
      9 C5         19.6190   33.8590   16.5950 C.ar      1 1X7         0.0063
     10 N8         21.4980   36.6420   17.7850 N.pl3     1 1X7        -0.3181
     11 O10        19.0670   30.8320   18.4120 O.2       1 1X7        -0.3912
     12 N11        18.1780   31.3970   16.4710 N.am      1 1X7        -0.3020
     13 S12        20.5630   32.4340   20.3710 S.3       1 1X7        -0.0269
     14 BR1        22.1520   33.7150   22.8140 Br        1 1X7        -0.0367
     15 H1         22.1579   35.6720   20.4443 H         1 1X7         0.0495
     16 H2         19.0807   33.6020   15.6899 H         1 1X7         0.0783
     17 H3         21.4447   37.2540   16.9583 H         1 1X7         0.1808
     18 H4         22.0071   36.9535   18.6244 H         1 1X7         0.1808
     19 H5         17.7056   30.5184   16.4010 H         1 1X7         0.1804
     20 H6         18.0712   32.0811   15.7494 H         1 1X7         0.1804
@<TRIPOS>BOND
     1    1    2 1  
     2    1    7 2  
     3    2    3 ar 
     4    2    5 ar 
     5    3    8 ar 
     6    3   13 1  
     7    5    4 ar 
     8    4    9 ar 
     9    5   10 1  
    10    8    6 1  
    11    6   11 2  
    12    6   12 am 
    13    7   13 1  
    14    7   14 1  
    15    8    9 ar 
    16    1   15 1  
    17    9   16 1  
    18   10   17 1  
    19   10   18 1  
    20   12   19 1  
    21   12   20 1  
@<TRIPOS>SUBSTRUCTURE
     1 1X7         1

