### 
### Created by X-TOOL on Mon Sep 10 21:13:15 2018
### 

@<TRIPOS>MOLECULE
4lh7_ligand
   24    25     1     0     0
SMALL
GAST_HUCK


@<TRIPOS>ATOM
      1 C1         21.4260   34.6200   19.9740 C.2       1 1X8        -0.0327
      2 C2         20.7700   34.5320   18.7380 C.ar      1 1X8         0.0393
      3 C3         20.0890   33.3150   18.5770 C.ar      1 1X8         0.0688
      4 C4         19.3680   33.0530   17.3820 C.ar      1 1X8         0.0749
      5 C5         19.3350   34.0390   16.4030 C.ar      1 1X8         0.0075
      6 N6         19.9850   35.1760   16.5670 N.ar      1 1X8        -0.2871
      7 C7         20.6880   35.4620   17.6550 C.ar      1 1X8         0.1175
      8 N8         21.3340   36.6710   17.7170 N.pl3     1 1X8        -0.3173
      9 C9         18.6210   31.7790   17.2380 C.2       1 1X8         0.1966
     10 O10        18.9190   30.8240   17.9320 O.2       1 1X8        -0.3912
     11 N11        17.5770   31.6500   16.3890 N.am      1 1X8        -0.3020
     12 S12        20.3150   32.3070   19.9970 S.3       1 1X8        -0.0158
     13 C13        21.2700   33.5490   20.7730 C.2       1 1X8         0.1039
     14 C14        21.7920   33.3540   22.1260 C.2       1 1X8         0.2088
     15 O15        21.4270   32.3560   22.7460 O.2       1 1X8        -0.3884
     16 N16        22.5810   34.2780   22.7090 N.am      1 1X8        -0.3008
     17 H1         22.0160   35.4879   20.2647 H         1 1X8         0.0552
     18 H2         18.7687   33.8722   15.4939 H         1 1X8         0.0792
     19 H3         21.2667   37.3318   16.9298 H         1 1X8         0.1813
     20 H4         21.8862   36.9177   18.5507 H         1 1X8         0.1813
     21 H5         17.0960   30.7763   16.3172 H         1 1X8         0.1804
     22 H6         17.2857   32.4283   15.8328 H         1 1X8         0.1804
     23 H7         22.9281   34.1268   23.6345 H         1 1X8         0.1802
     24 H8         22.8193   35.1148   22.2161 H         1 1X8         0.1802
@<TRIPOS>BOND
     1    1    2 1  
     2    1   13 2  
     3    2    3 ar 
     4    2    7 ar 
     5    3    4 ar 
     6    3   12 1  
     7    4    5 ar 
     8    4    9 1  
     9    5    6 ar 
    10    6    7 ar 
    11    7    8 1  
    12    9   10 2  
    13    9   11 am 
    14   12   13 1  
    15   13   14 1  
    16   14   15 2  
    17   14   16 am 
    18    1   17 1  
    19    5   18 1  
    20    8   19 1  
    21    8   20 1  
    22   11   21 1  
    23   11   22 1  
    24   16   23 1  
    25   16   24 1  
@<TRIPOS>SUBSTRUCTURE
     1 1X8         1

