### 
### Created by X-TOOL on Mon Sep 10 21:13:13 2018
### 

@<TRIPOS>MOLECULE
4li5_ligand
   50    53     1     0     0
SMALL
GAST_HUCK


@<TRIPOS>ATOM
      1 C2         53.1820   -0.2120  -19.2310 C.ar      1 1WY         0.1965
      2 C3         52.5230    0.8140  -21.2840 C.ar      1 1WY         0.0440
      3 C5         53.4280   -0.0080  -21.9440 C.ar      1 1WY         0.0720
      4 C6         54.1940   -0.9250  -21.2540 C.ar      1 1WY         0.0180
      5 C8         52.2530    0.4500  -17.0070 C.ar      1 1WY         0.0827
      6 C11        50.8200    2.3410  -16.5080 C.ar      1 1WY         0.0458
      7 C12        50.9830    0.4840  -14.9700 C.ar      1 1WY        -0.0545
      8 O14        52.4320   -1.3750  -15.5260 O.3       1 1WY        -0.3346
      9 C15        51.9170   -2.3220  -14.5970 C.3       1 1WY         0.0538
     10 C17        50.6250    4.6110  -17.6770 C.2       1 1WY         0.2004
     11 C19        49.8520    5.8760  -17.7220 C.3       1 1WY         0.0398
     12 C23        51.8320    2.4400  -23.1570 C.2       1 1WY         0.0501
     13 C24        50.4530    2.2880  -21.4350 C.ar      1 1WY        -0.0098
     14 C27        49.7600    2.0180  -20.2620 C.ar      1 1WY        -0.0720
     15 C30        48.0480    3.5930  -20.9510 C.ar      1 1WY        -0.0749
     16 CL1        53.6460    0.0600  -23.6260 Cl        1 1WY        -0.0719
     17 C22        51.6540    1.8140  -21.9310 C.2       1 1WY         0.0120
     18 C28        48.5520    2.6780  -20.0210 C.ar      1 1WY        -0.0775
     19 C29        48.7570    3.8550  -22.1250 C.ar      1 1WY        -0.0408
     20 C26        49.9530    3.1920  -22.3420 C.ar      1 1WY         0.0712
     21 N25        50.7950    3.2740  -23.3780 N.pl3     1 1WY        -0.2669
     22 N1         52.4170    0.6820  -19.9270 N.ar      1 1WY        -0.2630
     23 N4         54.0700   -1.0330  -19.8920 N.ar      1 1WY        -0.2627
     24 N7         53.0990   -0.3220  -17.8420 N.pl3     1 1WY        -0.2490
     25 C10        51.8760   -0.1600  -15.8150 C.ar      1 1WY         0.0998
     26 C13        50.4590    1.7160  -15.3190 C.ar      1 1WY        -0.0608
     27 C9         51.7230    1.7000  -17.3580 C.ar      1 1WY        -0.0256
     28 N16        50.2460    3.6200  -16.7720 N.am      1 1WY        -0.2426
     29 O18        51.5540    4.4310  -18.4350 O.2       1 1WY        -0.3863
     30 C20        50.7370    7.1310  -17.6870 C.3       1 1WY        -0.0478
     31 H1         54.8928   -1.5592  -21.7874 H         1 1WY         0.0867
     32 H2         50.6951    0.0202  -14.0335 H         1 1WY         0.0474
     33 H3         52.5719   -3.2054  -14.5729 H         1 1WY         0.0568
     34 H4         50.9050   -2.6242  -14.9043 H         1 1WY         0.0568
     35 H5         51.8761   -1.8685  -13.5957 H         1 1WY         0.0568
     36 H6         49.1748    5.9023  -16.8556 H         1 1WY         0.0504
     37 H7         49.2613    5.8913  -18.6498 H         1 1WY         0.0504
     38 H8         52.6727    2.2833  -23.8313 H         1 1WY         0.1099
     39 H9         50.1504    1.3058  -19.5440 H         1 1WY         0.0544
     40 H10        47.1080    4.0982  -20.7606 H         1 1WY         0.0538
     41 H11        48.0024    2.4796  -19.1080 H         1 1WY         0.0522
     42 H12        48.3784    4.5638  -22.8525 H         1 1WY         0.0552
     43 H13        50.6721    3.8738  -24.2063 H         1 1WY         0.2339
     44 H14        53.7021   -1.0217  -17.3864 H         1 1WY         0.2148
     45 H15        49.7547    2.2028  -14.6541 H         1 1WY         0.0384
     46 H16        52.0149    2.1691  -18.2906 H         1 1WY         0.0390
     47 H17        49.4427    3.8416  -16.2192 H         1 1WY         0.2218
     48 H18        50.1020    8.0285  -17.7231 H         1 1WY         0.0254
     49 H19        51.4146    7.1262  -18.5535 H         1 1WY         0.0254
     50 H20        51.3281    7.1371  -16.7593 H         1 1WY         0.0254
@<TRIPOS>BOND
     1   22    1 ar 
     2    1   23 ar 
     3    1   24 1  
     4    2    3 ar 
     5   17    2 1  
     6    2   22 ar 
     7    3    4 ar 
     8    3   16 1  
     9    4   23 ar 
    10   24    5 1  
    11    5   25 ar 
    12    5   27 ar 
    13    6   26 ar 
    14   27    6 ar 
    15    6   28 1  
    16   25    7 ar 
    17    7   26 ar 
    18    8    9 1  
    19   25    8 1  
    20   10   11 1  
    21   28   10 am 
    22   10   29 2  
    23   11   30 1  
    24   17   12 2  
    25   12   21 1  
    26   13   14 ar 
    27   13   17 1  
    28   13   20 ar 
    29   14   18 ar 
    30   18   15 ar 
    31   15   19 ar 
    32   19   20 ar 
    33   20   21 1  
    34    4   31 1  
    35    7   32 1  
    36    9   33 1  
    37    9   34 1  
    38    9   35 1  
    39   11   36 1  
    40   11   37 1  
    41   12   38 1  
    42   14   39 1  
    43   15   40 1  
    44   18   41 1  
    45   19   42 1  
    46   21   43 1  
    47   24   44 1  
    48   26   45 1  
    49   27   46 1  
    50   28   47 1  
    51   30   48 1  
    52   30   49 1  
    53   30   50 1  
@<TRIPOS>SUBSTRUCTURE
     1 1WY         1

