### 
### Created by X-TOOL on Mon Sep 10 21:13:13 2018
### 

@<TRIPOS>MOLECULE
4li6_ligand
   50    53     1     0     0
SMALL
GAST_HUCK


@<TRIPOS>ATOM
      1 S1        -23.8510   -3.9880    6.1040 S.3       1 1XO        -0.0423
      2 C2        -25.5300   -4.1180    6.4980 C.2       1 1XO         0.0348
      3 C3        -26.2090   -3.0000    6.2410 C.2       1 1XO        -0.0797
      4 C5        -25.3470   -1.9480    5.6950 C.2       1 1XO        -0.0931
      5 C7        -24.0840   -2.3560    5.5820 C.2       1 1XO        -0.0195
      6 C9        -26.1730   -5.3660    7.0370 C.3       1 1XO         0.0824
      7 N12       -25.4330   -6.0630    8.0930 N.am      1 1XO        -0.2371
      8 C13       -24.2870   -6.9120    7.7630 C.3       1 1XO         0.1263
      9 C16       -24.4410   -8.3980    7.8930 C.2       1 1XO         0.1662
     10 N17       -25.5290   -8.9750    7.5440 N.2       1 1XO        -0.3064
     11 C18       -25.6820  -10.3130    7.6370 C.ar      1 1XO         0.0126
     12 C19       -24.6120  -11.1060    8.0860 C.ar      1 1XO         0.0597
     13 C20       -24.7640  -12.4920    8.1920 C.ar      1 1XO        -0.0503
     14 C22       -25.9930  -13.0650    7.8410 C.ar      1 1XO        -0.0653
     15 C24       -27.0610  -12.2760    7.3910 C.ar      1 1XO        -0.0665
     16 C26       -26.9070  -10.8900    7.2870 C.ar      1 1XO        -0.0538
     17 C28       -23.3230  -10.3940    8.4210 C.2       1 1XO         0.2358
     18 N29       -23.3360   -9.0550    8.3000 N.am      1 1XO        -0.1922
     19 O31       -22.3070  -11.0120    8.7640 O.2       1 1XO        -0.3858
     20 C32       -25.8180   -5.9170    9.3930 C.2       1 1XO         0.1854
     21 O33       -25.2180   -6.4920   10.3030 O.2       1 1XO        -0.3963
     22 C34       -26.9590   -5.0040    9.8080 C.3       1 1XO         0.0474
     23 C37       -26.4440   -3.5300    9.9030 C.3       1 1XO        -0.0022
     24 C40       -25.3640   -3.3570   10.9970 C.ar      1 1XO        -0.0408
     25 C41       -25.7070   -2.8090   12.2450 C.ar      1 1XO        -0.0602
     26 C43       -24.7380   -2.6470   13.2470 C.ar      1 1XO        -0.0686
     27 C45       -23.4140   -3.0340   13.0060 C.ar      1 1XO        -0.0687
     28 C47       -23.0590   -3.5790   11.7710 C.ar      1 1XO        -0.0686
     29 C49       -24.0290   -3.7350   10.7780 C.ar      1 1XO        -0.0602
     30 H1        -27.2774   -2.8823    6.4160 H         1 1XO         0.0277
     31 H2        -25.6961   -0.9549    5.4160 H         1 1XO         0.0371
     32 H3        -23.2812   -1.7268    5.2004 H         1 1XO         0.0598
     33 H4        -26.3042   -6.0664    6.1990 H         1 1XO         0.0715
     34 H5        -27.1578   -5.0898    7.4417 H         1 1XO         0.0715
     35 H6        -23.4590   -6.6118    8.4220 H         1 1XO         0.0830
     36 H7        -24.0176   -6.7030    6.7172 H         1 1XO         0.0830
     37 H8        -23.9454  -13.1119    8.5396 H         1 1XO         0.0643
     38 H9        -26.1208  -14.1386    7.9188 H         1 1XO         0.0553
     39 H10       -28.0040  -12.7393    7.1243 H         1 1XO         0.0627
     40 H11       -27.7263  -10.2710    6.9397 H         1 1XO         0.0554
     41 H12       -22.5092   -8.5357    8.5163 H         1 1XO         0.2533
     42 H13       -27.3436   -5.3212   10.7885 H         1 1XO         0.0525
     43 H14       -27.7648   -5.0627    9.0616 H         1 1XO         0.0525
     44 H15       -27.2940   -2.8723   10.1374 H         1 1XO         0.0451
     45 H16       -26.0141   -3.2418    8.9324 H         1 1XO         0.0451
     46 H17       -26.7309   -2.5083   12.4355 H         1 1XO         0.0557
     47 H18       -25.0139   -2.2231   14.2058 H         1 1XO         0.0599
     48 H19       -22.6643   -2.9102   13.7791 H         1 1XO         0.0559
     49 H20       -22.0347   -3.8800   11.5832 H         1 1XO         0.0599
     50 H21       -23.7460   -4.1559    9.8200 H         1 1XO         0.0557
@<TRIPOS>BOND
     1    1    2 1  
     2    1    5 1  
     3    2    3 2  
     4    2    6 1  
     5    3    4 1  
     6    4    5 2  
     7    6    7 1  
     8    7    8 1  
     9    7   20 am 
    10    8    9 1  
    11    9   10 2  
    12    9   18 1  
    13   10   11 1  
    14   11   12 ar 
    15   11   16 ar 
    16   12   13 ar 
    17   12   17 1  
    18   13   14 ar 
    19   14   15 ar 
    20   15   16 ar 
    21   17   18 am 
    22   17   19 2  
    23   20   21 2  
    24   20   22 1  
    25   22   23 1  
    26   23   24 1  
    27   24   25 ar 
    28   24   29 ar 
    29   25   26 ar 
    30   26   27 ar 
    31   27   28 ar 
    32   28   29 ar 
    33    3   30 1  
    34    4   31 1  
    35    5   32 1  
    36    6   33 1  
    37    6   34 1  
    38    8   35 1  
    39    8   36 1  
    40   13   37 1  
    41   14   38 1  
    42   15   39 1  
    43   16   40 1  
    44   18   41 1  
    45   22   42 1  
    46   22   43 1  
    47   23   44 1  
    48   23   45 1  
    49   25   46 1  
    50   26   47 1  
    51   27   48 1  
    52   28   49 1  
    53   29   50 1  
@<TRIPOS>SUBSTRUCTURE
     1 1XO         1

