### 
### Created by X-TOOL on Mon Sep 10 21:13:14 2018
### 

@<TRIPOS>MOLECULE
4li7_ligand
   55    57     1     0     0
SMALL
GAST_HUCK


@<TRIPOS>ATOM
      1 C1        -24.9610   -6.9050    7.5170 C.ar      1 1XP         0.0905
      2 C2        -26.2280   -7.4830    7.1220 C.ar      1 1XP         0.1231
      3 C3        -23.8440   -7.8140    7.9080 C.ar      1 1XP        -0.0143
      4 C4        -24.7290   -5.4210    7.5440 C.2       1 1XP         0.2021
      5 C5        -26.3650   -8.9360    7.1080 C.ar      1 1XP        -0.0011
      6 O1        -27.2490   -6.5920    6.7680 O.3       1 1XP        -0.3093
      7 C6        -24.0010   -9.2280    7.8920 C.ar      1 1XP         0.1034
      8 N1        -25.7640   -4.5980    7.4400 N.am      1 1XP        -0.2827
      9 O2        -23.5870   -4.9710    7.6590 O.2       1 1XP        -0.3905
     10 C7        -25.2780   -9.7940    7.4830 C.ar      1 1XP         0.0724
     11 C8        -28.6470   -6.9030    6.8880 C.3       1 1XP         0.0635
     12 C9        -22.8920  -10.1090    8.2750 C.1       1 1XP         0.0903
     13 C10       -25.6920   -3.1330    7.4450 C.3       1 1XP         0.0701
     14 CL1       -25.5410  -11.5200    7.4350 Cl        1 1XP        -0.0580
     15 N2        -22.0570  -10.8550    8.5620 N.1       1 1XP        -0.3373
     16 C11       -26.1980   -2.5100    8.7800 C.3       1 1XP        -0.0113
     17 N3        -25.3010   -2.6430    9.9590 N.4       1 1XP         0.2369
     18 C12       -25.9270   -1.9010   11.0760 C.3       1 1XP        -0.0295
     19 C13       -23.9460   -2.1020    9.7180 C.3       1 1XP        -0.0295
     20 C14       -25.1010   -1.9070   12.3730 C.3       1 1XP         0.0057
     21 C15       -23.0140   -2.1650   10.9940 C.3       1 1XP         0.0057
     22 C16       -23.7230   -1.3080   12.0980 C.3       1 1XP         0.0429
     23 C17       -22.8600   -1.2180   13.4010 C.2       1 1XP         0.1333
     24 C18       -22.0350    0.0630   13.5950 C.ar      1 1XP         0.0287
     25 O3        -22.9070   -2.0930   14.2700 O.2       1 1XP        -0.3802
     26 C19       -21.3210    0.3390   14.8490 C.ar      1 1XP        -0.0448
     27 C20       -21.9690    1.0280   12.5270 C.ar      1 1XP        -0.0448
     28 C21       -20.5940    1.5630   14.9570 C.ar      1 1XP        -0.0220
     29 C22       -21.2300    2.2460   12.6640 C.ar      1 1XP        -0.0220
     30 C23       -20.5490    2.5200   13.8690 C.ar      1 1XP         0.1379
     31 F1        -19.8630    3.6920   13.9700 F         1 1XP        -0.1791
     32 H1        -22.8939   -7.3885    8.2103 H         1 1XP         0.0748
     33 H2        -27.3088   -9.3766    6.8077 H         1 1XP         0.0587
     34 H3        -26.6702   -5.0113    7.3506 H         1 1XP         0.1843
     35 H4        -29.2442   -6.0442    6.5476 H         1 1XP         0.0586
     36 H5        -28.8851   -7.1214    7.9395 H         1 1XP         0.0586
     37 H6        -28.8817   -7.7813    6.2688 H         1 1XP         0.0586
     38 H7        -26.3099   -2.7476    6.6206 H         1 1XP         0.0572
     39 H8        -24.6454   -2.8317    7.2907 H         1 1XP         0.0572
     40 H9        -27.1541   -2.9921    9.0320 H         1 1XP         0.0834
     41 H10       -26.3633   -1.4365    8.6059 H         1 1XP         0.0834
     42 H11       -25.2200   -3.6182   10.2007 H         1 1XP         0.2034
     43 H12       -26.9059   -2.3559   11.2876 H         1 1XP         0.0816
     44 H13       -26.0683   -0.8566   10.7610 H         1 1XP         0.0816
     45 H14       -24.0395   -1.0517    9.4049 H         1 1XP         0.0816
     46 H15       -23.4753   -2.6843    8.9122 H         1 1XP         0.0816
     47 H16       -24.9872   -2.9408   12.7312 H         1 1XP         0.0343
     48 H17       -25.6155   -1.3081   13.1389 H         1 1XP         0.0343
     49 H18       -22.0236   -1.7455   10.7636 H         1 1XP         0.0343
     50 H19       -22.9018   -3.2054   11.3329 H         1 1XP         0.0343
     51 H20       -23.8585   -0.2868   11.7123 H         1 1XP         0.0524
     52 H21       -21.3455   -0.3679   15.6704 H         1 1XP         0.0662
     53 H22       -22.4910    0.8269   11.5985 H         1 1XP         0.0662
     54 H23       -20.0622    1.7823   15.8758 H         1 1XP         0.0617
     55 H24       -21.1936    2.9553   11.8451 H         1 1XP         0.0617
@<TRIPOS>BOND
     1    1    2 ar 
     2    1    3 ar 
     3    1    4 1  
     4    2    5 ar 
     5    2    6 1  
     6    3    7 ar 
     7    4    8 am 
     8    4    9 2  
     9    5   10 ar 
    10    6   11 1  
    11    7   10 ar 
    12    7   12 1  
    13    8   13 1  
    14   10   14 1  
    15   12   15 3  
    16   13   16 1  
    17   16   17 1  
    18   17   18 1  
    19   17   19 1  
    20   18   20 1  
    21   19   21 1  
    22   20   22 1  
    23   21   22 1  
    24   22   23 1  
    25   23   24 1  
    26   23   25 2  
    27   24   26 ar 
    28   24   27 ar 
    29   26   28 ar 
    30   27   29 ar 
    31   28   30 ar 
    32   29   30 ar 
    33   30   31 1  
    34    3   32 1  
    35    5   33 1  
    36    8   34 1  
    37   11   35 1  
    38   11   36 1  
    39   11   37 1  
    40   13   38 1  
    41   13   39 1  
    42   16   40 1  
    43   16   41 1  
    44   17   42 1  
    45   18   43 1  
    46   18   44 1  
    47   19   45 1  
    48   19   46 1  
    49   20   47 1  
    50   20   48 1  
    51   21   49 1  
    52   21   50 1  
    53   22   51 1  
    54   26   52 1  
    55   27   53 1  
    56   28   54 1  
    57   29   55 1  
@<TRIPOS>SUBSTRUCTURE
     1 1XP         1

