### 
### Created by X-TOOL on Mon Sep 10 21:13:15 2018
### 

@<TRIPOS>MOLECULE
4li8_ligand
   67    71     1     0     0
SMALL
GAST_HUCK


@<TRIPOS>ATOM
      1 O1        -25.9700  -13.1140    7.9420 O.3       1 1XQ        -0.3720
      2 C1        -26.7240  -12.6230    6.8380 C.3       1 1XQ         0.0597
      3 C2        -27.0870  -11.1610    7.1360 C.3       1 1XQ         0.0087
      4 C3        -24.6800  -12.5130    8.0880 C.3       1 1XQ         0.0715
      5 C4        -24.7020  -11.0060    7.8750 C.2       1 1XQ         0.0402
      6 C5        -25.8260  -10.3820    7.4360 C.2       1 1XQ        -0.0060
      7 N1        -25.8590   -9.0040    7.2310 N.2       1 1XQ        -0.3033
      8 C6        -24.7820   -8.3360    7.4830 C.2       1 1XQ         0.1681
      9 N2        -23.5990   -8.9100    7.9370 N.am      1 1XQ        -0.1992
     10 C7        -23.4860  -10.2260    8.1490 C.2       1 1XQ         0.2035
     11 C8        -24.6680   -6.8450    7.2950 C.3       1 1XQ         0.1261
     12 N3        -25.6350   -5.9840    7.9860 N.am      1 1XQ        -0.2332
     13 O2        -22.4270  -10.6910    8.5480 O.2       1 1XQ        -0.4174
     14 C9        -25.7360   -6.0000    9.3410 C.2       1 1XQ         0.2290
     15 O3        -25.0600   -6.7660   10.0420 O.2       1 1XQ        -0.3906
     16 C10       -26.7040   -5.0440   10.0540 C.3       1 1XQ         0.0585
     17 N4        -25.9000   -4.2460   11.0240 N.4       1 1XQ         0.2523
     18 C11       -26.6280   -3.1120   11.5970 C.3       1 1XQ        -0.0278
     19 C12       -25.8030   -2.5710   12.7750 C.3       1 1XQ         0.0057
     20 C13       -24.3870   -2.1170   12.3520 C.3       1 1XQ         0.0429
     21 C14       -23.7010   -3.2240   11.5170 C.3       1 1XQ         0.0057
     22 C15       -24.6310   -3.7940   10.4370 C.3       1 1XQ        -0.0278
     23 C16       -23.5060   -1.7430   13.5600 C.2       1 1XQ         0.1333
     24 O4        -23.5020   -2.4920   14.5360 O.2       1 1XQ        -0.3802
     25 C17       -22.6670   -0.5020   13.4840 C.ar      1 1XQ         0.0287
     26 C18       -21.7160   -0.2320   14.5040 C.ar      1 1XQ        -0.0448
     27 C19       -21.0480    1.8310   13.3710 C.ar      1 1XQ         0.1379
     28 C20       -21.9820    1.5680   12.3570 C.ar      1 1XQ        -0.0220
     29 C21       -20.9120    0.9310   14.4540 C.ar      1 1XQ        -0.0220
     30 C22       -22.7840    0.4160   12.4180 C.ar      1 1XQ        -0.0448
     31 F1        -20.2870    2.9500   13.2880 F         1 1XQ        -0.1791
     32 C23       -26.3580   -5.1150    7.0400 C.3       1 1XQ         0.0825
     33 C24       -25.6560   -3.8720    6.6000 C.2       1 1XQ         0.0348
     34 C25       -26.1120   -2.5750    6.6260 C.2       1 1XQ        -0.0797
     35 C26       -25.1680   -1.6440    6.0960 C.2       1 1XQ        -0.0931
     36 C27       -24.0160   -2.2490    5.6670 C.2       1 1XQ        -0.0195
     37 S1        -24.0570   -3.9740    5.9040 S.3       1 1XQ        -0.0423
     38 H1        -27.6402  -13.2191    6.7149 H         1 1XQ         0.0586
     39 H2        -26.1230  -12.6801    5.9185 H         1 1XQ         0.0586
     40 H3        -27.7596  -11.1196    8.0054 H         1 1XQ         0.0464
     41 H4        -27.5903  -10.7222    6.2618 H         1 1XQ         0.0464
     42 H5        -23.9980  -12.9618    7.3508 H         1 1XQ         0.0641
     43 H6        -24.3096  -12.7187    9.1031 H         1 1XQ         0.0641
     44 H7        -22.8094   -8.3213    8.1101 H         1 1XQ         0.2551
     45 H8        -24.7632   -6.6436    6.2178 H         1 1XQ         0.0825
     46 H9        -23.6651   -6.5487    7.6362 H         1 1XQ         0.0825
     47 H10       -27.4765   -5.6178   10.5868 H         1 1XQ         0.1063
     48 H11       -27.1824   -4.3767    9.3220 H         1 1XQ         0.1063
     49 H12       -25.6730   -4.8640   11.7873 H         1 1XQ         0.2053
     50 H13       -27.6154   -3.4421   11.9521 H         1 1XQ         0.0816
     51 H14       -26.7552   -2.3266   10.8374 H         1 1XQ         0.0816
     52 H15       -25.7072   -3.3640   13.5313 H         1 1XQ         0.0343
     53 H16       -26.3330   -1.7111   13.2105 H         1 1XQ         0.0343
     54 H17       -24.4931   -1.2224   11.7208 H         1 1XQ         0.0524
     55 H18       -23.3980   -4.0394   12.1902 H         1 1XQ         0.0343
     56 H19       -22.8103   -2.8002   11.0301 H         1 1XQ         0.0343
     57 H20       -24.8373   -3.0129    9.6905 H         1 1XQ         0.0816
     58 H21       -24.1361   -4.6464    9.9487 H         1 1XQ         0.0816
     59 H22       -21.6050   -0.9250   15.3301 H         1 1XQ         0.0662
     60 H23       -22.0849    2.2552   11.5250 H         1 1XQ         0.0617
     61 H24       -20.1950    1.1316   15.2419 H         1 1XQ         0.0617
     62 H25       -23.5062    0.2286   11.6317 H         1 1XQ         0.0662
     63 H26       -27.3013   -4.8133    7.5187 H         1 1XQ         0.0715
     64 H27       -26.5768   -5.7101    6.1411 H         1 1XQ         0.0715
     65 H28       -27.0898   -2.2882    7.0102 H         1 1XQ         0.0277
     66 H29       -25.3443   -0.5709    6.0390 H         1 1XQ         0.0371
     67 H30       -23.1741   -1.7144    5.2295 H         1 1XQ         0.0598
@<TRIPOS>BOND
     1    2    1 1  
     2    4    1 1  
     3    3    2 1  
     4    6    3 1  
     5    5    4 1  
     6    6    5 2  
     7   10    5 1  
     8    7    6 1  
     9    8    7 2  
    10    8    9 1  
    11   11    8 1  
    12    9   10 am 
    13   10   13 2  
    14   12   11 1  
    15   14   12 am 
    16   12   32 1  
    17   14   15 2  
    18   16   14 1  
    19   17   16 1  
    20   18   17 1  
    21   22   17 1  
    22   19   18 1  
    23   20   19 1  
    24   20   21 1  
    25   23   20 1  
    26   21   22 1  
    27   23   24 2  
    28   25   23 1  
    29   26   25 ar 
    30   25   30 ar 
    31   29   26 ar 
    32   27   28 ar 
    33   27   29 ar 
    34   27   31 1  
    35   28   30 ar 
    36   32   33 1  
    37   33   34 2  
    38   33   37 1  
    39   34   35 1  
    40   35   36 2  
    41   36   37 1  
    42    2   38 1  
    43    2   39 1  
    44    3   40 1  
    45    3   41 1  
    46    4   42 1  
    47    4   43 1  
    48    9   44 1  
    49   11   45 1  
    50   11   46 1  
    51   16   47 1  
    52   16   48 1  
    53   17   49 1  
    54   18   50 1  
    55   18   51 1  
    56   19   52 1  
    57   19   53 1  
    58   20   54 1  
    59   21   55 1  
    60   21   56 1  
    61   22   57 1  
    62   22   58 1  
    63   26   59 1  
    64   28   60 1  
    65   29   61 1  
    66   30   62 1  
    67   32   63 1  
    68   32   64 1  
    69   34   65 1  
    70   35   66 1  
    71   36   67 1  
@<TRIPOS>SUBSTRUCTURE
     1 1XQ         1

