### 
### Created by X-TOOL on Mon Sep 10 21:13:14 2018
### 

@<TRIPOS>MOLECULE
4ljh_ligand
   41    43     1     0     0
SMALL
GAST_HUCK


@<TRIPOS>ATOM
      1 C10        17.1490   16.6180   35.2720 C.3       1 MHD         0.0353
      2 N3         16.4580   15.3420   35.4700 N.pl3     1 MHD        -0.2814
      3 C2         16.9010   14.1450   35.0280 C.2       1 MHD         0.0411
      4 C4         15.2670   15.2030   36.1290 C.ar      1 MHD         0.0626
      5 C5         14.3780   16.1850   36.7920 C.ar      1 MHD        -0.0447
      6 C6         13.1880   15.7440   37.4120 C.ar      1 MHD        -0.0770
      7 C7         12.8310   14.3650   37.4000 C.ar      1 MHD        -0.0792
      8 C8         13.7130   13.3920   36.7380 C.ar      1 MHD        -0.0723
      9 C9         14.9150   13.8400   36.1250 C.ar      1 MHD         0.0082
     10 C1         15.9520   13.1770   35.4240 C.2       1 MHD         0.0876
     11 O1         15.9720   11.7520   35.1930 O.3       1 MHD        -0.3117
     12 C1         17.1190   11.3650   34.5910 C.3       1 GAL         0.2013
     13 C2         17.1720    9.8860   34.5630 C.3       1 GAL         0.1373
     14 C3         18.3440    9.4480   33.8740 C.3       1 GAL         0.1144
     15 C4         18.4780   10.0110   32.5380 C.3       1 GAL         0.1119
     16 C5         18.3000   11.4900   32.5600 C.3       1 GAL         0.1133
     17 C6         18.2510   12.0620   31.1560 C.3       1 GAL         0.0730
     18 O2         17.1890    9.4040   35.9400 O.3       1 GAL        -0.3838
     19 O3         18.3310    7.9820   33.8090 O.3       1 GAL        -0.3864
     20 O4         17.5000    9.3780   31.6690 O.3       1 GAL        -0.3865
     21 O5         17.1270   11.8850   33.2320 O.3       1 GAL        -0.3378
     22 O6         18.2650   13.4560   31.1270 O.3       1 GAL        -0.3924
     23 H1         18.0810   16.4474   34.7132 H         1 MHD         0.0554
     24 H2         17.3841   17.0633   36.2500 H         1 MHD         0.0554
     25 H3         16.5009   17.3017   34.7041 H         1 MHD         0.0554
     26 H4         17.8182   13.9608   34.4706 H         1 MHD         0.0732
     27 H5         14.6394   17.2370   36.8013 H         1 MHD         0.0539
     28 H6         12.5401   16.4619   37.9017 H         1 MHD         0.0530
     29 H7         11.9148   14.0348   37.8759 H         1 MHD         0.0507
     30 H8         13.4486   12.3409   36.7176 H         1 MHD         0.0545
     31 H9         17.9848   11.7569   35.1449 H         1 MHD         0.0978
     32 H10        16.2825    9.4954   34.0471 H         1 MHD         0.0674
     33 H11        19.2197    9.7656   34.4590 H         1 MHD         0.0648
     34 H12        19.4863    9.7894   32.1584 H         1 MHD         0.0647
     35 H13        19.1635   11.9232   33.0860 H         1 MHD         0.0647
     36 H14        17.3291   11.7120   30.6685 H         1 MHD         0.0584
     37 H15        19.1239   11.6926   30.5979 H         1 MHD         0.0584
     38 H16        16.4056    9.7010   36.3880 H         1 MHD         0.2101
     39 H17        17.5982    7.6962   33.2762 H         1 MHD         0.2100
     40 H18        17.6022    9.7097   30.7846 H         1 MHD         0.2100
     41 H19        18.2328   13.7532   30.2253 H         1 MHD         0.2095
@<TRIPOS>BOND
     1    1    2 1  
     2    2    3 1  
     3    2    4 1  
     4    3   10 2  
     5    4    5 ar 
     6    4    9 ar 
     7    5    6 ar 
     8    6    7 ar 
     9    7    8 ar 
    10    8    9 ar 
    11    9   10 1  
    12   10   11 1  
    13   11   12 1  
    14   12   13 1  
    15   12   21 1  
    16   13   14 1  
    17   13   18 1  
    18   14   15 1  
    19   14   19 1  
    20   15   16 1  
    21   15   20 1  
    22   16   17 1  
    23   16   21 1  
    24   17   22 1  
    25    1   23 1  
    26    1   24 1  
    27    1   25 1  
    28    3   26 1  
    29    5   27 1  
    30    6   28 1  
    31    7   29 1  
    32    8   30 1  
    33   12   31 1  
    34   13   32 1  
    35   14   33 1  
    36   15   34 1  
    37   16   35 1  
    38   17   36 1  
    39   17   37 1  
    40   18   38 1  
    41   19   39 1  
    42   20   40 1  
    43   22   41 1  
@<TRIPOS>SUBSTRUCTURE
     1 MHD         1

