### 
### Created by X-TOOL on Mon Sep 10 21:13:15 2018
### 

@<TRIPOS>MOLECULE
4lk6_ligand
   61    64     1     0     0
SMALL
GAST_HUCK


@<TRIPOS>ATOM
      1 OBL       -23.9800   44.2910  -44.0320 O.co2     1 LRD        -0.4807
      2 SBA       -23.3660   44.1410  -45.3550 S.o2      1 LRD        -0.1653
      3 OBJ       -22.1090   43.3880  -45.2320 O.co2     1 LRD        -0.4807
      4 OBK       -23.0750   45.4740  -45.8850 O.co2     1 LRD        -0.4807
      5 CAW       -24.4290   43.2920  -46.4750 C.ar      1 LRD         0.0561
      6 CAV       -24.4490   43.7430  -47.7910 C.ar      1 LRD        -0.0462
      7 CAU       -25.2530   43.1270  -48.7490 C.ar      1 LRD        -0.0667
      8 CAZ       -26.0510   42.0520  -48.3950 C.ar      1 LRD        -0.0679
      9 CAY       -26.0360   41.5910  -47.0790 C.ar      1 LRD        -0.0550
     10 CAX       -25.2390   42.2000  -46.1190 C.ar      1 LRD         0.0003
     11 CAS       -25.3080   41.5850  -44.7000 C.3       1 LRD         0.0498
     12 CBE       -26.0580   42.3800  -43.6120 C.ar      1 LRD        -0.0298
     13 CBF       -26.0720   41.8810  -42.3080 C.ar      1 LRD        -0.0508
     14 CBG       -26.7570   42.5700  -41.2880 C.ar      1 LRD         0.0620
     15 CLB       -26.7500   41.9400  -39.6780 Cl        1 LRD        -0.0804
     16 CBB       -27.4360   43.7500  -41.5860 C.ar      1 LRD         0.0954
     17 OBH       -28.1080   44.4280  -40.5900 O.3       1 LRD        -0.3363
     18 CBC       -27.4320   44.2480  -42.8960 C.ar      1 LRD        -0.0383
     19 CBD       -26.7460   43.5570  -43.9160 C.ar      1 LRD        -0.0645
     20 CAM       -23.9200   41.0020  -44.2890 C.ar      1 LRD        -0.0298
     21 CAN       -23.4540   39.8960  -44.9970 C.ar      1 LRD        -0.0508
     22 CAO       -22.2100   39.3120  -44.6740 C.ar      1 LRD         0.0624
     23 CLA       -21.6410   37.9350  -45.5640 Cl        1 LRD        -0.0804
     24 CAR       -23.1490   41.5470  -43.2430 C.ar      1 LRD        -0.0645
     25 CAQ       -21.9010   40.9670  -42.9210 C.ar      1 LRD        -0.0379
     26 CAP       -21.4370   39.8510  -43.6370 C.ar      1 LRD         0.1023
     27 O1        -20.1950   39.2550  -43.3340 O.3       1 LRD        -0.2884
     28 C1        -19.8610   39.4770  -42.0440 C.3       1 GAL         0.2085
     29 C2        -19.6200   38.1580  -41.3920 C.3       1 GAL         0.1383
     30 C3        -18.9960   38.2750  -40.1180 C.3       1 GAL         0.1144
     31 C4        -17.7970   39.1110  -40.1680 C.3       1 GAL         0.1119
     32 C5        -18.1040   40.4710  -40.7440 C.3       1 GAL         0.1133
     33 C6        -16.8450   41.2700  -40.8550 C.3       1 GAL         0.0730
     34 O2        -20.8720   37.4710  -41.2460 O.3       1 GAL        -0.3837
     35 O3        -18.6390   36.9480  -39.6490 O.3       1 GAL        -0.3864
     36 O4        -16.8220   38.4840  -40.9630 O.3       1 GAL        -0.3865
     37 O5        -18.6760   40.3690  -42.0140 O.3       1 GAL        -0.3370
     38 O6        -16.7130   42.0790  -41.9780 O.3       1 GAL        -0.3924
     39 H1        -23.8301   44.5861  -48.0758 H         1 LRD         0.0618
     40 H2        -25.2535   43.4894  -49.7706 H         1 LRD         0.0562
     41 H3        -26.6821   41.5729  -49.1347 H         1 LRD         0.0600
     42 H4        -26.6551   40.7455  -46.8017 H         1 LRD         0.0563
     43 H5        -25.9429   40.6963  -44.8308 H         1 LRD         0.0732
     44 H6        -25.5525   40.9576  -42.0791 H         1 LRD         0.0543
     45 H7        -28.5142   45.2050  -40.9559 H         1 LRD         0.2464
     46 H8        -27.9580   45.1675  -43.1259 H         1 LRD         0.0527
     47 H9        -26.7525   43.9374  -44.9311 H         1 LRD         0.0540
     48 H10       -24.0508   39.4812  -45.8013 H         1 LRD         0.0543
     49 H11       -23.5107   42.4056  -42.6889 H         1 LRD         0.0540
     50 H12       -21.3009   41.3840  -42.1203 H         1 LRD         0.0527
     51 H13       -20.6924   39.9790  -41.5275 H         1 LRD         0.0991
     52 H14       -18.9612   37.5663  -42.0445 H         1 LRD         0.0675
     53 H15       -19.7106   38.7281  -39.4151 H         1 LRD         0.0648
     54 H16       -17.4076   39.2356  -39.1468 H         1 LRD         0.0647
     55 H17       -18.8067   40.9887  -40.0745 H         1 LRD         0.0647
     56 H18       -16.0015   40.5640  -40.8525 H         1 LRD         0.0584
     57 H19       -16.7831   41.9185  -39.9686 H         1 LRD         0.0584
     58 H20       -20.7169   36.6054  -40.8866 H         1 LRD         0.2101
     59 H21       -18.2595   37.0118  -38.7805 H         1 LRD         0.2100
     60 H22       -16.0333   39.0135  -40.9713 H         1 LRD         0.2100
     61 H23       -15.8808   42.5357  -41.9419 H         1 LRD         0.2095
@<TRIPOS>BOND
     1    1    2 ar 
     2    2    3 ar 
     3    2    4 ar 
     4    2    5 1  
     5    5    6 ar 
     6    5   10 ar 
     7    6    7 ar 
     8    7    8 ar 
     9    8    9 ar 
    10    9   10 ar 
    11   10   11 1  
    12   11   12 1  
    13   11   20 1  
    14   12   13 ar 
    15   12   19 ar 
    16   13   14 ar 
    17   14   15 1  
    18   14   16 ar 
    19   16   17 1  
    20   16   18 ar 
    21   18   19 ar 
    22   20   21 ar 
    23   20   24 ar 
    24   21   22 ar 
    25   22   23 1  
    26   22   26 ar 
    27   24   25 ar 
    28   25   26 ar 
    29   26   27 1  
    30   27   28 1  
    31   28   29 1  
    32   28   37 1  
    33   29   30 1  
    34   29   34 1  
    35   30   31 1  
    36   30   35 1  
    37   31   32 1  
    38   31   36 1  
    39   32   33 1  
    40   32   37 1  
    41   33   38 1  
    42    6   39 1  
    43    7   40 1  
    44    8   41 1  
    45    9   42 1  
    46   11   43 1  
    47   13   44 1  
    48   17   45 1  
    49   18   46 1  
    50   19   47 1  
    51   21   48 1  
    52   24   49 1  
    53   25   50 1  
    54   28   51 1  
    55   29   52 1  
    56   30   53 1  
    57   31   54 1  
    58   32   55 1  
    59   33   56 1  
    60   33   57 1  
    61   34   58 1  
    62   35   59 1  
    63   36   60 1  
    64   38   61 1  
@<TRIPOS>SUBSTRUCTURE
     1 LRD         1

