### 
### Created by X-TOOL on Mon Sep 10 21:13:14 2018
### 

@<TRIPOS>MOLECULE
4lk7_ligand
   46    49     1     0     0
SMALL
GAST_HUCK


@<TRIPOS>ATOM
      1 O4         18.2890   22.1740   35.1890 O.3       1 04G        -0.3438
      2 O5         16.9260   17.5360   35.1840 O.3       1 04G        -0.2706
      3 N6         14.9430   18.0740   37.0510 N.pl3     1 04G        -0.2911
      4 O6         15.6150   12.8500   35.1010 O.3       1 04G        -0.2960
      5 C21        15.6290   20.4470   37.0610 C.ar      1 04G        -0.0565
      6 C22        16.4680   21.4650   36.5920 C.ar      1 04G        -0.0554
      7 C23        17.4620   21.1700   35.6480 C.ar      1 04G         0.0667
      8 C24        17.6150   19.8610   35.1770 C.ar      1 04G        -0.0101
      9 C25        16.7580   18.8180   35.6560 C.ar      1 04G         0.1283
     10 C26        15.7890   19.1120   36.5810 C.ar      1 04G         0.0788
     11 C27        15.1290   16.7540   36.5460 C.ar      1 04G         0.0788
     12 C28        16.1160   16.5140   35.6280 C.ar      1 04G         0.1283
     13 C29        16.3110   15.1860   35.1140 C.ar      1 04G        -0.0097
     14 C30        15.4820   14.1480   35.5700 C.ar      1 04G         0.0736
     15 C31        14.4740   14.3990   36.5120 C.ar      1 04G        -0.0551
     16 C32        14.2890   15.6940   37.0070 C.ar      1 04G        -0.0565
     17 C1         16.8220   12.5730   34.5680 C.3       1 GAL         0.2069
     18 C2         16.9710   11.0890   34.5930 C.3       1 GAL         0.1381
     19 C3         18.1520   10.6430   33.9200 C.3       1 GAL         0.1144
     20 C4         18.2460   11.1600   32.5490 C.3       1 GAL         0.1119
     21 C5         18.0570   12.6640   32.5230 C.3       1 GAL         0.1133
     22 C6         18.0120   13.1720   31.1160 C.3       1 GAL         0.0730
     23 O2         16.9840   10.6580   35.9750 O.3       1 GAL        -0.3837
     24 O3         18.1680    9.1820   33.9120 O.3       1 GAL        -0.3864
     25 O4         17.2610   10.5520   31.7480 O.3       1 GAL        -0.3865
     26 O5         16.8730   13.0570   33.1710 O.3       1 GAL        -0.3371
     27 O6         17.9220   14.5460   30.9910 O.3       1 GAL        -0.3924
     28 H1         18.9028   21.8142   34.5596 H         1 04G         0.2439
     29 H2         14.2076   18.2709   37.7448 H         1 04G         0.1955
     30 H3         14.8578   20.6725   37.7887 H         1 04G         0.0457
     31 H4         16.3495   22.4786   36.9577 H         1 04G         0.0418
     32 H5         18.3845   19.6358   34.4474 H         1 04G         0.0437
     33 H6         17.0876   14.9882   34.3841 H         1 04G         0.0437
     34 H7         13.8391   13.5905   36.8560 H         1 04G         0.0418
     35 H8         13.5123   15.8925   37.7367 H         1 04G         0.0457
     36 H9         17.6201   13.0488   35.1568 H         1 04G         0.0988
     37 H10        16.1016   10.6426   34.0882 H         1 04G         0.0675
     38 H11        19.0268   11.0035   34.4810 H         1 04G         0.0648
     39 H12        19.2402   10.9186   32.1450 H         1 04G         0.0647
     40 H13        18.9110   13.1253   33.0406 H         1 04G         0.0647
     41 H14        17.1365   12.7268   30.6208 H         1 04G         0.0584
     42 H15        18.9290   12.8428   30.6054 H         1 04G         0.0584
     43 H16        16.1946   10.9614   36.4076 H         1 04G         0.2101
     44 H17        17.4299    8.8611   33.4073 H         1 04G         0.2100
     45 H18        17.3412   10.8673   30.8555 H         1 04G         0.2100
     46 H19        17.1283   14.8502   31.4153 H         1 04G         0.2095
@<TRIPOS>BOND
     1    7    1 1  
     2    2    9 1  
     3   12    2 1  
     4    3   10 1  
     5   11    3 1  
     6   14    4 1  
     7    4   17 1  
     8    5    6 ar 
     9   10    5 ar 
    10    7    6 ar 
    11    8    7 ar 
    12    9    8 ar 
    13    9   10 ar 
    14   12   11 ar 
    15   11   16 ar 
    16   13   12 ar 
    17   13   14 ar 
    18   14   15 ar 
    19   15   16 ar 
    20   17   18 1  
    21   17   26 1  
    22   18   19 1  
    23   18   23 1  
    24   19   20 1  
    25   19   24 1  
    26   20   21 1  
    27   20   25 1  
    28   21   22 1  
    29   21   26 1  
    30   22   27 1  
    31    1   28 1  
    32    3   29 1  
    33    5   30 1  
    34    6   31 1  
    35    8   32 1  
    36   13   33 1  
    37   15   34 1  
    38   16   35 1  
    39   17   36 1  
    40   18   37 1  
    41   19   38 1  
    42   20   39 1  
    43   21   40 1  
    44   22   41 1  
    45   22   42 1  
    46   23   43 1  
    47   24   44 1  
    48   25   45 1  
    49   27   46 1  
@<TRIPOS>SUBSTRUCTURE
     1 04G         1

