### 
### Created by X-TOOL on Mon Sep 10 21:13:15 2018
### 

@<TRIPOS>MOLECULE
4lkd_ligand
   90    91     1     0     0
SMALL
GAST_HUCK


@<TRIPOS>ATOM
      1 N         -19.4200   20.7010   22.7950 N.am      1 GLN        -0.2664
      2 CA        -19.1300   19.6850   21.7890 C.3       1 GLN         0.1323
      3 C         -20.3220   18.7440   21.6310 C.2       1 GLN         0.2040
      4 O         -20.3960   17.7040   22.2830 O.2       1 GLN        -0.3944
      5 CB        -17.8710   18.8960   22.1600 C.3       1 GLN         0.0044
      6 CG        -17.0920   18.3650   20.9610 C.3       1 GLN         0.0412
      7 CD        -16.3950   19.4660   20.1770 C.2       1 GLN         0.1737
      8 OE1       -16.8930   20.5880   20.0760 O.2       1 GLN        -0.3973
      9 NE2       -15.2300   19.1490   19.6250 N.am      1 GLN        -0.3009
     10 N         -21.2510   19.1210   20.7560 N.am      1 ARG        -0.2637
     11 CA        -22.5010   18.3890   20.5870 C.3       1 ARG         0.1311
     12 C         -23.1260   18.1650   21.9580 C.2       1 ARG         0.2040
     13 O         -23.5090   17.0440   22.3030 O.2       1 ARG        -0.3944
     14 CB        -22.2530   17.0550   19.8720 C.3       1 ARG        -0.0092
     15 CG        -21.2750   17.1610   18.7150 C.3       1 ARG        -0.0156
     16 CD        -21.6880   18.2530   17.7420 C.3       1 ARG         0.0627
     17 NE        -20.5610   18.7170   16.9370 N.pl3     1 ARG        -0.2723
     18 CZ        -19.7830   19.7440   17.2650 C.cat     1 ARG         0.2882
     19 NH1       -20.0110   20.4190   18.3830 N.pl3     1 ARG        -0.2849
     20 NH2       -18.7770   20.0970   16.4770 N.pl3     1 ARG        -0.2849
     21 N         -23.2160   19.2480   22.7280 N.am      1 SER        -0.2616
     22 CA        -23.7140   19.2290   24.1020 C.3       1 SER         0.1536
     23 C         -22.6520   18.6560   25.0350 C.2       1 SER         0.2015
     24 O         -21.9700   17.6900   24.6910 O.2       1 SER        -0.3947
     25 CB        -25.0260   18.4610   24.2320 C.3       1 SER         0.0843
     26 OG        -25.9970   18.9590   23.3460 O.3       1 SER        -0.3903
     27 N         -22.5080   19.2620   26.2100 N.am      1 ALA        -0.2989
     28 C1        -24.9370   25.0130   24.8140 C.3       1 GAL         0.2107
     29 C2        -25.6080   25.8960   25.8980 C.3       1 GAL         0.1387
     30 C3        -27.1020   25.5500   25.8690 C.3       1 GAL         0.1145
     31 C4        -27.6830   25.8320   24.4710 C.3       1 GAL         0.1119
     32 C5        -26.8880   25.0220   23.4150 C.3       1 GAL         0.1134
     33 C6        -27.2930   25.3600   21.9690 C.3       1 GAL         0.0730
     34 O2        -25.1350   25.5910   27.2020 O.3       1 GAL        -0.3837
     35 O3        -27.7520   26.2860   26.8950 O.3       1 GAL        -0.3864
     36 O4        -27.6320   27.2210   24.1590 O.3       1 GAL        -0.3865
     37 O5        -25.4820   25.2720   23.5500 O.3       1 GAL        -0.3367
     38 O6        -26.7200   24.4130   21.0850 O.3       1 GAL        -0.3924
     39 C1'       -20.1470   21.5400   22.0580 C.2       1 PHB         0.1990
     40 O1'       -20.1270   21.5400   20.8260 O.2       1 PHB        -0.3896
     41 C1        -21.0140   22.5140   22.8030 C.ar      1 PHB         0.0386
     42 C2        -22.4100   22.3170   22.8810 C.ar      1 PHB        -0.0504
     43 C3        -23.2210   23.2320   23.5770 C.ar      1 PHB        -0.0268
     44 C4        -22.6620   24.3640   24.2040 C.ar      1 PHB         0.1001
     45 C5        -21.2600   24.5610   24.1220 C.ar      1 PHB        -0.0268
     46 C6        -20.4480   23.6470   23.4300 C.ar      1 PHB        -0.0504
     47 O4        -23.5480   25.2020   24.8590 O.3       1 PHB        -0.2814
     48 H1        -19.1515   20.7527   23.7569 H         1 GLN         0.1873
     49 H2        -18.9529   20.1885   20.8272 H         1 GLN         0.0801
     50 H3        -18.1707   18.0406   22.7833 H         1 GLN         0.0337
     51 H4        -17.2075   19.5562   22.7379 H         1 GLN         0.0337
     52 H5        -17.7912   17.8444   20.2901 H         1 GLN         0.0504
     53 H6        -16.3326   17.6555   21.3214 H         1 GLN         0.0504
     54 H7        -14.7246   19.8316   19.0972 H         1 GLN         0.1814
     55 H8        -14.8579   18.2276   19.7370 H         1 GLN         0.1814
     56 H9        -21.0866   19.9330   20.1959 H         1 ARG         0.1883
     57 H10       -23.1889   18.9913   19.9754 H         1 ARG         0.0800
     58 H11       -23.2130   16.6843   19.4836 H         1 ARG         0.0313
     59 H12       -21.8514   16.3376   20.6028 H         1 ARG         0.0313
     60 H13       -21.2444   16.1991   18.1823 H         1 ARG         0.0301
     61 H14       -20.2753   17.3930   19.1108 H         1 ARG         0.0301
     62 H15       -22.0926   19.1028   18.3113 H         1 ARG         0.0689
     63 H16       -22.4653   17.8573   17.0717 H         1 ARG         0.0689
     64 H17       -20.3561   18.2171   16.0601 H         1 ARG         0.2642
     65 H18       -19.4078   21.2145   18.6364 H         1 ARG         0.2615
     66 H19       -20.7913   20.1479   18.9982 H         1 ARG         0.2615
     67 H20       -18.5963   19.5753   15.6075 H         1 ARG         0.2615
     68 H21       -18.1761   20.8930   16.7343 H         1 ARG         0.2615
     69 H22       -22.9262   20.1246   22.3439 H         1 SER         0.1884
     70 H23       -23.9067   20.2692   24.4035 H         1 SER         0.0823
     71 H24       -25.3977   18.5578   25.2628 H         1 SER         0.0606
     72 H25       -24.8445   17.3999   24.0057 H         1 SER         0.0606
     73 H26       -26.8012   18.4637   23.4483 H         1 SER         0.2097
     74 H27       -21.8272   18.9307   26.8633 H         1 ALA         0.1815
     75 H28       -23.0805   20.0489   26.4402 H         1 ALA         0.1815
     76 H29       -25.1417   23.9590   25.0531 H         1 GLN         0.0995
     77 H30       -25.4418   26.9606   25.6766 H         1 GLN         0.0675
     78 H31       -27.2248   24.4774   26.0798 H         1 GLN         0.0648
     79 H32       -28.7340   25.5077   24.4537 H         1 GLN         0.0647
     80 H33       -27.0804   23.9533   23.5903 H         1 GLN         0.0647
     81 H34       -26.9313   26.3667   21.7126 H         1 GLN         0.0584
     82 H35       -28.3888   25.3299   21.8785 H         1 GLN         0.0584
     83 H36       -24.2085   25.7937   27.2570 H         1 GLN         0.2101
     84 H37       -27.3568   26.0758   27.7330 H         1 GLN         0.2100
     85 H38       -28.0133   27.3659   23.3011 H         1 GLN         0.2100
     86 H39       -25.7736   24.4398   21.1640 H         1 GLN         0.2095
     87 H40       -22.8598   21.4551   22.4015 H         1 GLN         0.0642
     88 H41       -24.2905   23.0642   23.6319 H         1 GLN         0.0556
     89 H42       -20.8106   25.4251   24.5978 H         1 GLN         0.0556
     90 H43       -19.3780   23.8122   23.3765 H         1 GLN         0.0642
@<TRIPOS>BOND
     1    1    2 1  
     2   39    1 am 
     3    2    3 1  
     4    2    5 1  
     5    3    4 2  
     6    3   10 am 
     7    5    6 1  
     8    6    7 1  
     9    7    8 2  
    10    7    9 am 
    11   10   11 1  
    12   11   12 1  
    13   11   14 1  
    14   12   13 2  
    15   12   21 am 
    16   14   15 1  
    17   15   16 1  
    18   16   17 1  
    19   17   18 ar 
    20   18   19 ar 
    21   18   20 ar 
    22   21   22 1  
    23   22   23 1  
    24   22   25 1  
    25   23   24 2  
    26   23   27 am 
    27   25   26 1  
    28   28   29 1  
    29   28   37 1  
    30   47   28 1  
    31   29   30 1  
    32   29   34 1  
    33   30   31 1  
    34   30   35 1  
    35   32   31 1  
    36   31   36 1  
    37   32   33 1  
    38   37   32 1  
    39   33   38 1  
    40   39   40 2  
    41   41   39 1  
    42   42   41 ar 
    43   41   46 ar 
    44   43   42 ar 
    45   44   43 ar 
    46   44   45 ar 
    47   44   47 1  
    48   45   46 ar 
    49    1   48 1  
    50    2   49 1  
    51    5   50 1  
    52    5   51 1  
    53    6   52 1  
    54    6   53 1  
    55    9   54 1  
    56    9   55 1  
    57   10   56 1  
    58   11   57 1  
    59   14   58 1  
    60   14   59 1  
    61   15   60 1  
    62   15   61 1  
    63   16   62 1  
    64   16   63 1  
    65   17   64 1  
    66   19   65 1  
    67   19   66 1  
    68   20   67 1  
    69   20   68 1  
    70   21   69 1  
    71   22   70 1  
    72   25   71 1  
    73   25   72 1  
    74   26   73 1  
    75   27   74 1  
    76   27   75 1  
    77   28   76 1  
    78   29   77 1  
    79   30   78 1  
    80   31   79 1  
    81   32   80 1  
    82   33   81 1  
    83   33   82 1  
    84   34   83 1  
    85   35   84 1  
    86   36   85 1  
    87   38   86 1  
    88   42   87 1  
    89   43   88 1  
    90   45   89 1  
    91   46   90 1  
@<TRIPOS>SUBSTRUCTURE
     1 GLN         1

