### 
### Created by X-TOOL on Mon Sep 10 21:13:15 2018
### 

@<TRIPOS>MOLECULE
4lke_ligand
   69    72     1     0     0
SMALL
GAST_HUCK


@<TRIPOS>ATOM
      1 N          21.4220  -40.3190   29.6620 N.am      1 TRP        -0.2655
      2 CA         22.3890  -40.0840   30.7290 C.3       1 TRP         0.1345
      3 C          23.3190  -41.2830   30.8310 C.2       1 TRP         0.2049
      4 O          22.8650  -42.4200   30.9610 O.2       1 TRP        -0.3943
      5 CB         21.6680  -39.8580   32.0610 C.3       1 TRP         0.0042
      6 CG         22.5470  -39.3600   33.1700 C.2       1 TRP        -0.0418
      7 CD1        22.7930  -38.0520   33.5060 C.2       1 TRP         0.0167
      8 CD2        23.2810  -40.1580   34.1080 C.ar      1 TRP        -0.0214
      9 NE1        23.6420  -37.9950   34.5840 N.pl3     1 TRP        -0.2890
     10 CE2        23.9540  -39.2720   34.9740 C.ar      1 TRP         0.0603
     11 CE3        23.4370  -41.5340   34.2960 C.ar      1 TRP        -0.0747
     12 CZ2        24.7730  -39.7190   36.0110 C.ar      1 TRP        -0.0443
     13 CZ3        24.2510  -41.9790   35.3320 C.ar      1 TRP        -0.0792
     14 CH2        24.9070  -41.0730   36.1750 C.ar      1 TRP        -0.0768
     15 N          24.6200  -41.0270   30.7550 N.am      1 ARG        -0.2663
     16 CA         25.6160  -42.0890   30.8520 C.3       1 ARG         0.1198
     17 C          26.5070  -41.8720   32.0720 C.2       1 ARG         0.1960
     18 O          26.8380  -40.7340   32.4200 O.2       1 ARG        -0.3951
     19 N          26.8910  -42.9680   32.7190 N.am      1 ILE        -0.2992
     20 C1         17.1830  -41.0640   24.1120 C.3       1 GAL         0.2107
     21 C2         15.7580  -41.1820   23.5190 C.3       1 GAL         0.1387
     22 C3         15.7650  -42.3270   22.4970 C.3       1 GAL         0.1145
     23 C4         16.8280  -42.0520   21.4290 C.3       1 GAL         0.1119
     24 C5         18.2140  -41.8340   22.0910 C.3       1 GAL         0.1134
     25 C6         19.2870  -41.3750   21.0850 C.3       1 GAL         0.0730
     26 O2         14.8280  -41.4820   24.5580 O.3       1 GAL        -0.3837
     27 O3         14.4840  -42.3770   21.8900 O.3       1 GAL        -0.3864
     28 O4         16.4230  -40.9200   20.6490 O.3       1 GAL        -0.3865
     29 O5         18.1380  -40.8370   23.1250 O.3       1 GAL        -0.3367
     30 O6         20.5670  -41.4440   21.6960 O.3       1 GAL        -0.3924
     31 C1'        21.1220  -39.3150   28.9950 C.2       1 PHB         0.1991
     32 O1'        21.3790  -38.1630   29.3550 O.2       1 PHB        -0.3896
     33 C1         20.0740  -39.5220   27.9480 C.ar      1 PHB         0.0386
     34 C2         20.0880  -40.6490   27.1020 C.ar      1 PHB        -0.0504
     35 C3         19.0820  -40.7960   26.1220 C.ar      1 PHB        -0.0268
     36 C4         18.0750  -39.8110   25.9880 C.ar      1 PHB         0.1001
     37 C5         18.0740  -38.6840   26.8410 C.ar      1 PHB        -0.0268
     38 C6         19.0720  -38.5430   27.8060 C.ar      1 PHB        -0.0504
     39 O4         17.1290  -40.0080   25.0190 O.3       1 PHB        -0.2814
     40 H1         21.0300  -41.2210   29.4812 H         1 TRP         0.1874
     41 H2         22.9805  -39.1884   30.4880 H         1 TRP         0.0814
     42 H3         21.2244  -40.8135   32.3776 H         1 TRP         0.0396
     43 H4         20.8695  -39.1192   31.8980 H         1 TRP         0.0396
     44 H5         22.3761  -37.1865   32.9930 H         1 TRP         0.0795
     45 H6         23.9884  -37.1325   35.0278 H         1 TRP         0.2216
     46 H7         22.9332  -42.2409   33.6467 H         1 TRP         0.0540
     47 H8         25.2848  -39.0208   36.6634 H         1 TRP         0.0541
     48 H9         24.3798  -43.0437   35.4896 H         1 TRP         0.0510
     49 H10        25.5342  -41.4509   36.9743 H         1 TRP         0.0530
     50 H11        24.9246  -40.0830   30.6281 H         1 ARG         0.1881
     51 H12        26.2374  -42.0873   29.9444 H         1 ARG         0.0763
     52 H13        25.1045  -43.0584   30.9445 H         1 ARG         0.0763
     53 H14        27.4758  -42.8928   33.5266 H         1 ILE         0.1815
     54 H15        26.5950  -43.8677   32.3980 H         1 ILE         0.1815
     55 H16        17.4411  -41.9937   24.6402 H         1 TRP         0.0995
     56 H17        15.4751  -40.2391   23.0282 H         1 TRP         0.0675
     57 H18        15.9817  -43.2809   23.0000 H         1 TRP         0.0648
     58 H19        16.8978  -42.9261   20.7649 H         1 TRP         0.0647
     59 H20        18.5327  -42.7884   22.5354 H         1 TRP         0.0647
     60 H21        19.0825  -40.3388   20.7776 H         1 TRP         0.0584
     61 H22        19.2662  -42.0304   20.2018 H         1 TRP         0.0584
     62 H23        14.8229  -40.7737   25.1912 H         1 TRP         0.2101
     63 H24        13.8265  -42.5476   22.5542 H         1 TRP         0.2100
     64 H25        17.0603  -40.7662   19.9615 H         1 TRP         0.2100
     65 H26        20.7423  -42.3392   21.9611 H         1 TRP         0.2095
     66 H27        20.8654  -41.3977   27.2028 H         1 TRP         0.0642
     67 H28        19.0812  -41.6637   25.4722 H         1 TRP         0.0556
     68 H29        17.2999  -37.9311   26.7458 H         1 TRP         0.0556
     69 H30        19.0759  -37.6724   28.4518 H         1 TRP         0.0642
@<TRIPOS>BOND
     1    1    2 1  
     2   31    1 am 
     3    2    3 1  
     4    2    5 1  
     5    3    4 2  
     6    3   15 am 
     7    5    6 1  
     8    6    7 2  
     9    6    8 1  
    10    7    9 1  
    11    8   10 ar 
    12    8   11 ar 
    13   10    9 1  
    14   10   12 ar 
    15   11   13 ar 
    16   12   14 ar 
    17   13   14 ar 
    18   15   16 1  
    19   16   17 1  
    20   17   18 2  
    21   17   19 am 
    22   20   21 1  
    23   20   29 1  
    24   39   20 1  
    25   21   22 1  
    26   21   26 1  
    27   22   23 1  
    28   22   27 1  
    29   24   23 1  
    30   23   28 1  
    31   24   25 1  
    32   29   24 1  
    33   25   30 1  
    34   31   32 2  
    35   33   31 1  
    36   34   33 ar 
    37   33   38 ar 
    38   35   34 ar 
    39   36   35 ar 
    40   36   37 ar 
    41   36   39 1  
    42   37   38 ar 
    43    1   40 1  
    44    2   41 1  
    45    5   42 1  
    46    5   43 1  
    47    7   44 1  
    48    9   45 1  
    49   11   46 1  
    50   12   47 1  
    51   13   48 1  
    52   14   49 1  
    53   15   50 1  
    54   16   51 1  
    55   16   52 1  
    56   19   53 1  
    57   19   54 1  
    58   20   55 1  
    59   21   56 1  
    60   22   57 1  
    61   23   58 1  
    62   24   59 1  
    63   25   60 1  
    64   25   61 1  
    65   26   62 1  
    66   27   63 1  
    67   28   64 1  
    68   30   65 1  
    69   34   66 1  
    70   35   67 1  
    71   37   68 1  
    72   38   69 1  
@<TRIPOS>SUBSTRUCTURE
     1 TRP         1

