### 
### Created by X-TOOL on Mon Sep 10 21:13:14 2018
### 

@<TRIPOS>MOLECULE
4lkf_ligand
  105   109     1     0     0
SMALL
GAST_HUCK


@<TRIPOS>ATOM
      1 N          -4.3260   -1.1760   11.3400 N.am      1 TRP        -0.2655
      2 CA         -3.3180   -2.1660   10.9480 C.3       1 TRP         0.1345
      3 C          -1.9020   -1.5960   10.9570 C.2       1 TRP         0.2051
      4 O          -1.6570   -0.4840   10.4830 O.2       1 TRP        -0.3943
      5 CB         -3.6050   -2.7480    9.5610 C.3       1 TRP         0.0042
      6 CG         -2.6250   -3.8430    9.1810 C.2       1 TRP        -0.0418
      7 CD1        -1.9730   -4.6940   10.0360 C.2       1 TRP         0.0167
      8 CD2        -2.1800   -4.1910    7.8600 C.ar      1 TRP        -0.0214
      9 NE1        -1.1560   -5.5500    9.3280 N.pl3     1 TRP        -0.2890
     10 CE2        -1.2670   -5.2630    7.9920 C.ar      1 TRP         0.0603
     11 CE3        -2.4650   -3.7040    6.5800 C.ar      1 TRP        -0.0747
     12 CZ2        -0.6400   -5.8510    6.8930 C.ar      1 TRP        -0.0443
     13 CZ3        -1.8390   -4.2910    5.4900 C.ar      1 TRP        -0.0792
     14 CH2        -0.9400   -5.3530    5.6550 C.ar      1 TRP        -0.0768
     15 N          -0.9770   -2.3710   11.5140 N.am      1 LYS        -0.2636
     16 CA          0.4440   -2.0970   11.3850 C.3       1 LYS         0.1310
     17 C           0.7160   -2.2970    9.9070 C.2       1 LYS         0.2040
     18 O           0.3270   -3.3230    9.3550 O.2       1 LYS        -0.3944
     19 CB          1.2350   -3.1130   12.2130 C.3       1 LYS        -0.0122
     20 CG          2.7390   -2.8990   12.2660 C.3       1 LYS        -0.0440
     21 CD          3.3810   -3.9920   13.1280 C.3       1 LYS        -0.0124
     22 CE          4.8050   -3.6450   13.5410 C.3       1 LYS        -0.0354
     23 NZ          5.2940   -4.5950   14.5890 N.4       1 LYS         0.2185
     24 N           1.3400   -1.3100    9.2650 N.am      1 TYR        -0.2621
     25 CA          1.5920   -1.3410    7.8150 C.3       1 TYR         0.1387
     26 C           0.5230   -0.6190    6.9930 C.2       1 TYR         0.2010
     27 O           0.1220   -1.0900    5.9260 O.2       1 TYR        -0.3946
     28 CB          1.7950   -2.7790    7.3080 C.3       1 TYR         0.0163
     29 CG          2.9800   -3.4340    7.9670 C.ar      1 TYR        -0.0493
     30 CD1         4.2660   -3.0240    7.6550 C.ar      1 TYR        -0.0685
     31 CD2         2.8170   -4.4300    8.9260 C.ar      1 TYR        -0.0685
     32 CE1         5.3500   -3.5880    8.2530 C.ar      1 TYR        -0.0398
     33 CE2         3.9100   -5.0050    9.5380 C.ar      1 TYR        -0.0398
     34 CZ          5.1720   -4.5710    9.1910 C.ar      1 TYR         0.0805
     35 OH          6.2870   -5.1100    9.7690 O.3       1 TYR        -0.3376
     36 N           0.0810    0.5340    7.4900 N.am      1 LEU        -0.2988
     37 C1         -9.3120    2.4810   15.2190 C.3       1 GAL         0.2107
     38 C2         -9.8450    3.9060   15.5260 C.3       1 GAL         0.1387
     39 C3        -10.5580    3.8830   16.8850 C.3       1 GAL         0.1145
     40 C4        -11.6780    2.8350   16.8510 C.3       1 GAL         0.1119
     41 C5        -11.1040    1.4610   16.4170 C.3       1 GAL         0.1134
     42 C6        -12.2050    0.3940   16.2450 C.3       1 GAL         0.0730
     43 O2         -8.7950    4.8610   15.5940 O.3       1 GAL        -0.3837
     44 O3        -11.0950    5.1870   17.1210 O.3       1 GAL        -0.3864
     45 O4        -12.6950    3.2950   15.9620 O.3       1 GAL        -0.3865
     46 O5        -10.3710    1.5650   15.1880 O.3       1 GAL        -0.3367
     47 O6        -11.6210   -0.8650   15.9680 O.3       1 GAL        -0.3924
     48 C1'        -4.7070   -1.3290   12.6150 C.2       1 PHB         0.1991
     49 O1'        -3.9130   -1.6900   13.4880 O.2       1 PHB        -0.3896
     50 C1         -5.7590   -0.3150   12.9620 C.ar      1 PHB         0.0386
     51 C2         -6.1390    0.6480   12.0080 C.ar      1 PHB        -0.0504
     52 C3         -7.1080    1.6070   12.3430 C.ar      1 PHB        -0.0268
     53 C4         -7.7160    1.6070   13.6160 C.ar      1 PHB         0.1001
     54 C5         -7.3410    0.6440   14.5710 C.ar      1 PHB        -0.0268
     55 C6         -6.3540   -0.3100   14.2380 C.ar      1 PHB        -0.0504
     56 O4         -8.6600    2.5340   13.9920 O.3       1 PHB        -0.2814
     57 H1         -4.6859   -0.4711   10.7288 H         1 TRP         0.1874
     58 H2         -3.3594   -2.9861   11.6799 H         1 TRP         0.0814
     59 H3         -3.5380   -1.9400    8.8176 H         1 TRP         0.0396
     60 H4         -4.6222   -3.1668    9.5568 H         1 TRP         0.0396
     61 H5         -2.0845   -4.6938   11.1193 H         1 TRP         0.0795
     62 H6         -0.5601   -6.2845    9.7359 H         1 TRP         0.2216
     63 H7         -3.1610   -2.8844    6.4426 H         1 TRP         0.0540
     64 H8          0.0582   -6.6711    7.0156 H         1 TRP         0.0541
     65 H9         -2.0491   -3.9215    4.4928 H         1 TRP         0.0510
     66 H10        -0.4712   -5.7902    4.7808 H         1 TRP         0.0530
     67 H11        -1.2690   -3.1699   12.0398 H         1 LYS         0.1883
     68 H12         0.6891   -1.0729   11.7031 H         1 LYS         0.0800
     69 H13         1.0513   -4.1106   11.7875 H         1 LYS         0.0312
     70 H14         0.8531   -3.0780   13.2440 H         1 LYS         0.0312
     71 H15         2.9538   -1.9132   12.7042 H         1 LYS         0.0269
     72 H16         3.1520   -2.9455   11.2476 H         1 LYS         0.0269
     73 H17         3.3986   -4.9299   12.5536 H         1 LYS         0.0317
     74 H18         2.7737   -4.1287   14.0349 H         1 LYS         0.0317
     75 H19         4.8260   -2.6212   13.9427 H         1 LYS         0.0813
     76 H20         5.4623   -3.7073   12.6612 H         1 LYS         0.0813
     77 H21         6.2365   -4.3510   14.8502 H         1 LYS         0.1994
     78 H22         5.2790   -5.5345   14.2242 H         1 LYS         0.1994
     79 H23         4.6959   -4.5393   15.3985 H         1 LYS         0.1994
     80 H24         1.6494   -0.5166    9.7892 H         1 TYR         0.1885
     81 H25         2.5366   -0.8025    7.6486 H         1 TYR         0.0821
     82 H26         1.9588   -2.7549    6.2205 H         1 TYR         0.0453
     83 H27         0.8923   -3.3671    7.5299 H         1 TYR         0.0453
     84 H28         4.4111   -2.2396    6.9211 H         1 TYR         0.0530
     85 H29         1.8190   -4.7571    9.1945 H         1 TYR         0.0530
     86 H30         6.3493   -3.2615    7.9889 H         1 TYR         0.0525
     87 H31         3.7797   -5.7850   10.2794 H         1 TYR         0.0525
     88 H32         7.0614   -4.6922    9.4108 H         1 TYR         0.2458
     89 H33        -0.6181    1.0545    6.9998 H         1 LEU         0.1815
     90 H34         0.4480    0.8797    8.3536 H         1 LEU         0.1815
     91 H35        -8.5995    2.1765   15.9997 H         1 TRP         0.0995
     92 H36       -10.5530    4.2025   14.7381 H         1 TRP         0.0675
     93 H37        -9.8423    3.6276   17.6803 H         1 TRP         0.0648
     94 H38       -12.1078    2.7311   17.8582 H         1 TRP         0.0647
     95 H39       -10.4156    1.1218   17.2051 H         1 TRP         0.0647
     96 H40       -12.8634    0.6811   15.4119 H         1 TRP         0.0584
     97 H41       -12.7942    0.3261   17.1714 H         1 TRP         0.0584
     98 H42        -8.3405    4.8902   14.7603 H         1 TRP         0.2101
     99 H43       -10.3878    5.8211   17.1386 H         1 TRP         0.2100
    100 H44       -13.4077    2.6670   15.9459 H         1 TRP         0.2100
    101 H45       -11.0531   -1.1146   16.6876 H         1 TRP         0.2095
    102 H46        -5.6870    0.6490   11.0227 H         1 TRP         0.0642
    103 H47        -7.3927    2.3572   11.6141 H         1 TRP         0.0556
    104 H48        -7.8042    0.6344   15.5510 H         1 TRP         0.0556
    105 H49        -6.0512   -1.0467   14.9733 H         1 TRP         0.0642
@<TRIPOS>BOND
     1    1    2 1  
     2   48    1 am 
     3    2    3 1  
     4    2    5 1  
     5    3    4 2  
     6    3   15 am 
     7    5    6 1  
     8    6    7 2  
     9    6    8 1  
    10    7    9 1  
    11    8   10 ar 
    12    8   11 ar 
    13   10    9 1  
    14   10   12 ar 
    15   11   13 ar 
    16   12   14 ar 
    17   13   14 ar 
    18   15   16 1  
    19   16   17 1  
    20   16   19 1  
    21   17   18 2  
    22   17   24 am 
    23   19   20 1  
    24   20   21 1  
    25   21   22 1  
    26   22   23 1  
    27   24   25 1  
    28   25   26 1  
    29   25   28 1  
    30   26   27 2  
    31   26   36 am 
    32   28   29 1  
    33   29   30 ar 
    34   29   31 ar 
    35   30   32 ar 
    36   31   33 ar 
    37   32   34 ar 
    38   33   34 ar 
    39   34   35 1  
    40   37   38 1  
    41   37   46 1  
    42   56   37 1  
    43   38   39 1  
    44   38   43 1  
    45   39   40 1  
    46   39   44 1  
    47   41   40 1  
    48   40   45 1  
    49   41   42 1  
    50   46   41 1  
    51   42   47 1  
    52   48   49 2  
    53   50   48 1  
    54   51   50 ar 
    55   50   55 ar 
    56   52   51 ar 
    57   53   52 ar 
    58   53   54 ar 
    59   53   56 1  
    60   54   55 ar 
    61    1   57 1  
    62    2   58 1  
    63    5   59 1  
    64    5   60 1  
    65    7   61 1  
    66    9   62 1  
    67   11   63 1  
    68   12   64 1  
    69   13   65 1  
    70   14   66 1  
    71   15   67 1  
    72   16   68 1  
    73   19   69 1  
    74   19   70 1  
    75   20   71 1  
    76   20   72 1  
    77   21   73 1  
    78   21   74 1  
    79   22   75 1  
    80   22   76 1  
    81   23   77 1  
    82   23   78 1  
    83   23   79 1  
    84   24   80 1  
    85   25   81 1  
    86   28   82 1  
    87   28   83 1  
    88   30   84 1  
    89   31   85 1  
    90   32   86 1  
    91   33   87 1  
    92   35   88 1  
    93   36   89 1  
    94   36   90 1  
    95   37   91 1  
    96   38   92 1  
    97   39   93 1  
    98   40   94 1  
    99   41   95 1  
   100   42   96 1  
   101   42   97 1  
   102   43   98 1  
   103   44   99 1  
   104   45  100 1  
   105   47  101 1  
   106   51  102 1  
   107   52  103 1  
   108   54  104 1  
   109   55  105 1  
@<TRIPOS>SUBSTRUCTURE
     1 TRP         1

