### 
### Created by X-TOOL on Mon Sep 10 21:13:16 2018
### 

@<TRIPOS>MOLECULE
4lkg_ligand
   87    89     1     0     0
SMALL
GAST_HUCK


@<TRIPOS>ATOM
      1 C1         29.9380  -23.6890   34.6090 C.2       1 SIA         0.1041
      2 C2         30.2100  -23.4010   36.0630 C.3       1 SIA         0.2208
      3 C3         29.1160  -24.0290   36.9180 C.3       1 SIA         0.0353
      4 C4         29.1320  -25.5480   36.7930 C.3       1 SIA         0.0850
      5 C5         30.5390  -26.0990   36.9940 C.3       1 SIA         0.0964
      6 C6         31.5480  -25.3450   36.1370 C.3       1 SIA         0.1143
      7 C7         32.9650  -25.8430   36.3960 C.3       1 SIA         0.1114
      8 C8         33.9970  -24.8680   35.8420 C.3       1 SIA         0.1065
      9 C9         35.2860  -25.5900   35.4680 C.3       1 SIA         0.0727
     10 C10        31.2520  -28.3810   37.4080 C.2       1 SIA         0.1733
     11 C11        31.1650  -29.8140   36.9730 C.3       1 SIA         0.0257
     12 N5         30.5690  -27.5120   36.6690 N.am      1 SIA        -0.2790
     13 O1A        28.7570  -23.6480   34.2030 O.co2     1 SIA        -0.5426
     14 O1B        30.9050  -23.9580   33.8630 O.co2     1 SIA        -0.5426
     15 O4         28.2530  -26.1160   37.7700 O.3       1 SIA        -0.3893
     16 O6         31.4740  -23.9510   36.4280 O.3       1 SIA        -0.3384
     17 O7         33.1650  -26.0000   37.8050 O.3       1 SIA        -0.3865
     18 O8         33.4630  -24.2140   34.6860 O.3       1 SIA        -0.3869
     19 O9         36.3100  -24.6270   35.1930 O.3       1 SIA        -0.3924
     20 O10        31.9070  -28.0350   38.3770 O.2       1 SIA        -0.3974
     21 C1         32.1270  -19.0370   35.5470 C.3       1 GAL         0.1884
     22 C2         31.6410  -20.2420   36.3560 C.3       1 GAL         0.1344
     23 C3         30.6720  -21.0930   35.5530 C.3       1 GAL         0.1197
     24 C4         29.5830  -20.2790   34.8850 C.3       1 GAL         0.1121
     25 C5         30.1940  -19.0840   34.1670 C.3       1 GAL         0.1130
     26 C6         29.1210  -18.1860   33.5650 C.3       1 GAL         0.0730
     27 O2         32.7310  -21.0490   36.7470 O.3       1 GAL        -0.3841
     28 O3         30.0450  -22.0010   36.4110 O.3       1 GAL        -0.3380
     29 O4         28.6530  -19.8760   35.8600 O.3       1 GAL        -0.3865
     30 O5         30.9940  -18.3370   35.0630 O.3       1 GAL        -0.3405
     31 O6         29.7410  -17.0330   33.0410 O.3       1 GAL        -0.3924
     32 C1         36.5130  -16.3620   37.0360 C.3       1 NAG         0.1823
     33 C2         35.7160  -15.7340   35.8950 C.3       1 NAG         0.1208
     34 C3         34.3770  -16.4290   35.6230 C.3       1 NAG         0.1114
     35 C4         34.3180  -17.9300   35.9270 C.3       1 NAG         0.1181
     36 C5         35.2720  -18.3500   37.0420 C.3       1 NAG         0.1133
     37 C6         35.4510  -19.8630   37.0510 C.3       1 NAG         0.0730
     38 C7         35.8450  -13.3370   35.4640 C.2       1 NAG         0.1733
     39 C8         34.8790  -12.2010   35.2780 C.3       1 NAG         0.0257
     40 N2         35.4170  -14.3520   36.2090 N.am      1 NAG        -0.2766
     41 O1         37.8340  -15.8690   37.0480 O.3       1 NAG        -0.3651
     42 O3         34.0300  -16.2150   34.2690 O.3       1 NAG        -0.3867
     43 O4         33.0020  -18.2170   36.3580 O.3       1 NAG        -0.3401
     44 O5         36.5440  -17.7620   36.8920 O.3       1 NAG        -0.3409
     45 O6         36.1890  -20.2590   38.1850 O.3       1 NAG        -0.3924
     46 O7         36.9590  -13.3110   34.9390 O.2       1 NAG        -0.3974
     47 H1         28.1379  -23.6507   36.5861 H         1 SIA         0.0336
     48 H2         29.2782  -23.7526   37.9703 H         1 SIA         0.0336
     49 H3         28.7820  -25.8255   35.7878 H         1 SIA         0.0618
     50 H4         30.8158  -25.9739   38.0512 H         1 SIA         0.0608
     51 H5         31.3032  -25.5054   35.0767 H         1 SIA         0.0646
     52 H6         33.0953  -26.8172   35.9020 H         1 SIA         0.0647
     53 H7         34.2224  -24.1144   36.6109 H         1 SIA         0.0643
     54 H8         35.1142  -26.2078   34.5743 H         1 SIA         0.0584
     55 H9         35.6018  -26.2327   36.3030 H         1 SIA         0.0584
     56 H10        31.7638  -30.4399   37.6509 H         1 SIA         0.0467
     57 H11        31.5518  -29.9101   35.9477 H         1 SIA         0.0467
     58 H12        30.1157  -30.1428   37.0014 H         1 SIA         0.0467
     59 H13        30.0643  -27.8404   35.8706 H         1 SIA         0.1856
     60 H14        27.3765  -25.7720   37.6439 H         1 SIA         0.2099
     61 H15        32.5213  -26.6079   38.1493 H         1 SIA         0.2100
     62 H16        32.6597  -23.7645   34.9206 H         1 SIA         0.2100
     63 H17        36.4576  -24.0940   35.9654 H         1 SIA         0.2095
     64 H18        32.7046  -19.3971   34.6829 H         1 SIA         0.0938
     65 H19        31.1278  -19.8729   37.2562 H         1 SIA         0.0671
     66 H20        31.2367  -21.6374   34.7818 H         1 SIA         0.0650
     67 H21        29.0681  -20.9072   34.1432 H         1 SIA         0.0647
     68 H22        30.8316  -19.4580   33.3524 H         1 SIA         0.0647
     69 H23        28.3997  -17.8973   34.3437 H         1 SIA         0.0584
     70 H24        28.5970  -18.7229   32.7606 H         1 SIA         0.0584
     71 H25        32.4151  -21.7699   37.2791 H         1 SIA         0.2101
     72 H26        28.2917  -20.6434   36.2878 H         1 SIA         0.2100
     73 H27        30.1939  -16.5737   33.7384 H         1 SIA         0.2095
     74 H28        36.0271  -16.1088   37.9898 H         1 SIA         0.0932
     75 H29        36.3291  -15.7793   34.9828 H         1 SIA         0.0633
     76 H30        33.6233  -15.9419   36.2592 H         1 SIA         0.0645
     77 H31        34.5551  -18.4963   35.0143 H         1 SIA         0.0650
     78 H32        34.8435  -18.0315   38.0038 H         1 SIA         0.0647
     79 H33        35.9886  -20.1708   36.1420 H         1 SIA         0.0584
     80 H34        34.4629  -20.3457   37.0738 H         1 SIA         0.0584
     81 H35        35.3410  -11.4262   34.6486 H         1 SIA         0.0467
     82 H36        34.6234  -11.7727   36.2584 H         1 SIA         0.0467
     83 H37        33.9655  -12.5725   34.7907 H         1 SIA         0.0467
     84 H38        34.8660  -14.1529   37.0194 H         1 SIA         0.1857
     85 H39        38.3082  -16.2548   37.7752 H         1 SIA         0.2126
     86 H40        34.0656  -15.2852   34.0773 H         1 SIA         0.2100
     87 H41        36.2938  -21.2032   38.1794 H         1 SIA         0.2095
@<TRIPOS>BOND
     1    2    1 1  
     2    1   13 ar 
     3    1   14 ar 
     4    2    3 1  
     5    2   16 1  
     6   28    2 1  
     7    3    4 1  
     8    4    5 1  
     9    4   15 1  
    10    6    5 1  
    11    5   12 1  
    12    6    7 1  
    13   16    6 1  
    14    7    8 1  
    15    7   17 1  
    16    8    9 1  
    17    8   18 1  
    18    9   19 1  
    19   10   11 1  
    20   12   10 am 
    21   10   20 2  
    22   21   22 1  
    23   21   30 1  
    24   43   21 1  
    25   22   23 1  
    26   22   27 1  
    27   23   24 1  
    28   23   28 1  
    29   25   24 1  
    30   24   29 1  
    31   25   26 1  
    32   30   25 1  
    33   26   31 1  
    34   33   32 1  
    35   32   41 1  
    36   32   44 1  
    37   33   34 1  
    38   40   33 1  
    39   34   35 1  
    40   34   42 1  
    41   35   36 1  
    42   35   43 1  
    43   36   37 1  
    44   44   36 1  
    45   37   45 1  
    46   38   39 1  
    47   38   40 am 
    48   38   46 2  
    49    3   47 1  
    50    3   48 1  
    51    4   49 1  
    52    5   50 1  
    53    6   51 1  
    54    7   52 1  
    55    8   53 1  
    56    9   54 1  
    57    9   55 1  
    58   11   56 1  
    59   11   57 1  
    60   11   58 1  
    61   12   59 1  
    62   15   60 1  
    63   17   61 1  
    64   18   62 1  
    65   19   63 1  
    66   21   64 1  
    67   22   65 1  
    68   23   66 1  
    69   24   67 1  
    70   25   68 1  
    71   26   69 1  
    72   26   70 1  
    73   27   71 1  
    74   29   72 1  
    75   31   73 1  
    76   32   74 1  
    77   33   75 1  
    78   34   76 1  
    79   35   77 1  
    80   36   78 1  
    81   37   79 1  
    82   37   80 1  
    83   39   81 1  
    84   39   82 1  
    85   39   83 1  
    86   40   84 1  
    87   41   85 1  
    88   42   86 1  
    89   45   87 1  
@<TRIPOS>SUBSTRUCTURE
     1 SIA         1

