### 
### Created by X-TOOL on Mon Sep 10 21:13:15 2018
### 

@<TRIPOS>MOLECULE
4lkh_ligand
   39    39     1     0     0
SMALL
GAST_HUCK


@<TRIPOS>ATOM
      1 C1         12.7870   23.4590   13.4840 C.2       1 SIA         0.1039
      2 C2         12.5550   23.3340   12.0110 C.3       1 SIA         0.2179
      3 C3         13.8660   23.6010   11.2860 C.3       1 SIA         0.0351
      4 C4         14.8150   22.4720   11.4930 C.3       1 SIA         0.0850
      5 C5         14.2950   21.1840   11.1810 C.3       1 SIA         0.0964
      6 C6         12.9610   20.9230   11.8620 C.3       1 SIA         0.1143
      7 C7         12.2860   19.6390   11.5330 C.3       1 SIA         0.1114
      8 C8         10.8490   19.7260   11.9600 C.3       1 SIA         0.1065
      9 C9         10.3550   18.3890   12.4330 C.3       1 SIA         0.0727
     10 C10        15.6160   19.0120   10.7680 C.2       1 SIA         0.1733
     11 C11        16.7040   18.1000   11.1980 C.3       1 SIA         0.0257
     12 N5         15.3810   20.2030   11.5370 N.am      1 SIA        -0.2790
     13 O1A        12.1250   22.7780   14.3110 O.co2     1 SIA        -0.5426
     14 O1B        13.6570   24.2670   13.9070 O.co2     1 SIA        -0.5426
     15 O2         11.6380   24.2940   11.6940 O.3       1 SIA        -0.3631
     16 O4         16.0110   22.7380   10.7230 O.3       1 SIA        -0.3893
     17 O6         12.0070   22.0740   11.7090 O.3       1 SIA        -0.3385
     18 O7         12.3420   19.4060   10.1700 O.3       1 SIA        -0.3865
     19 O8         10.7200   20.6280   12.9940 O.3       1 SIA        -0.3869
     20 O9          9.1240   18.3450   13.0610 O.3       1 SIA        -0.3924
     21 O10        14.9440   18.7260    9.7880 O.2       1 SIA        -0.3974
     22 H1         14.3138   24.5267   11.6766 H         1 SIA         0.0336
     23 H2         13.6681   23.7150   10.2100 H         1 SIA         0.0336
     24 H3         15.0855   22.4599   12.5591 H         1 SIA         0.0618
     25 H4         14.1204   21.1264   10.0965 H         1 SIA         0.0608
     26 H5         13.1966   20.8611   12.9347 H         1 SIA         0.0646
     27 H6         12.7828   18.8150   12.0662 H         1 SIA         0.0647
     28 H7         10.2404   20.0577   11.1058 H         1 SIA         0.0643
     29 H8         11.0993   17.9952   13.1408 H         1 SIA         0.0584
     30 H9         10.2995   17.7295   11.5544 H         1 SIA         0.0584
     31 H10        16.7557   17.2418   10.5118 H         1 SIA         0.0467
     32 H11        16.5008   17.7421   12.2181 H         1 SIA         0.0467
     33 H12        17.6624   18.6397   11.1828 H         1 SIA         0.0467
     34 H13        15.9568   20.3863   12.3338 H         1 SIA         0.1856
     35 H14        10.8469   24.1545   12.2012 H         1 SIA         0.2112
     36 H15        16.3433   23.6002   10.9439 H         1 SIA         0.2099
     37 H16        13.2500   19.3504    9.8964 H         1 SIA         0.2100
     38 H17        11.0290   21.4802   12.7097 H         1 SIA         0.2100
     39 H18         9.1459   18.8926   13.8369 H         1 SIA         0.2095
@<TRIPOS>BOND
     1    2    1 1  
     2    1   13 ar 
     3    1   14 ar 
     4    3    2 1  
     5    2   15 1  
     6   17    2 1  
     7    4    3 1  
     8    5    4 1  
     9    4   16 1  
    10    5    6 1  
    11   12    5 1  
    12    6    7 1  
    13    6   17 1  
    14    7    8 1  
    15    7   18 1  
    16    8    9 1  
    17    8   19 1  
    18    9   20 1  
    19   10   11 1  
    20   10   12 am 
    21   10   21 2  
    22    3   22 1  
    23    3   23 1  
    24    4   24 1  
    25    5   25 1  
    26    6   26 1  
    27    7   27 1  
    28    8   28 1  
    29    9   29 1  
    30    9   30 1  
    31   11   31 1  
    32   11   32 1  
    33   11   33 1  
    34   12   34 1  
    35   15   35 1  
    36   16   36 1  
    37   18   37 1  
    38   19   38 1  
    39   20   39 1  
@<TRIPOS>SUBSTRUCTURE
     1 SIA         1

