### 
### Created by X-TOOL on Mon Sep 10 21:13:15 2018
### 

@<TRIPOS>MOLECULE
4lkj_ligand
   87    89     1     0     0
SMALL
GAST_HUCK


@<TRIPOS>ATOM
      1 C1        -45.1270   10.6870  -35.6230 C.2       1 SIA         0.1041
      2 C2        -44.8840   11.0710  -37.0590 C.3       1 SIA         0.2208
      3 C3        -45.2780    9.9140  -37.9690 C.3       1 SIA         0.0353
      4 C4        -46.7710    9.6270  -37.8700 C.3       1 SIA         0.0850
      5 C5        -47.5850   10.9060  -38.0230 C.3       1 SIA         0.0964
      6 C6        -47.0510   12.0070  -37.1130 C.3       1 SIA         0.1143
      7 C7        -47.8150   13.3080  -37.3250 C.3       1 SIA         0.1114
      8 C8        -47.2680   14.4140  -36.4290 C.3       1 SIA         0.1065
      9 C9        -48.1720   15.6410  -36.4630 C.3       1 SIA         0.0727
     10 C10       -49.9600   11.2300  -38.4020 C.2       1 SIA         0.1733
     11 C11       -51.3410   10.7130  -38.1270 C.3       1 SIA         0.0257
     12 N5        -48.9790   10.6460  -37.7200 N.am      1 SIA        -0.2790
     13 O1A       -44.6320    9.6200  -35.1980 O.co2     1 SIA        -0.5426
     14 O1B       -45.8160   11.4480  -34.9100 O.co2     1 SIA        -0.5426
     15 O4        -47.1470    8.6970  -38.8930 O.3       1 SIA        -0.3893
     16 O6        -45.6670   12.2180  -37.3830 O.3       1 SIA        -0.3384
     17 O7        -47.7060   13.7080  -38.6960 O.3       1 SIA        -0.3865
     18 O8        -47.1670   13.9330  -35.0840 O.3       1 SIA        -0.3869
     19 O9        -47.3740   16.8250  -36.3690 O.3       1 SIA        -0.3924
     20 O10       -49.7490   12.1300  -39.1990 O.2       1 SIA        -0.3974
     21 C1        -40.7750   12.0460  -39.8610 C.3       1 GAL         0.1884
     22 C2        -41.6880   11.3320  -38.8510 C.3       1 GAL         0.1344
     23 C3        -43.0620   11.9940  -38.6290 C.3       1 GAL         0.1197
     24 C4        -42.9710   13.5230  -38.6700 C.3       1 GAL         0.1121
     25 C5        -42.1530   13.9450  -39.8840 C.3       1 GAL         0.1130
     26 C6        -42.1230   15.4600  -40.0530 C.3       1 GAL         0.0730
     27 O2        -41.8760    9.9970  -39.2830 O.3       1 GAL        -0.3841
     28 O3        -43.5600   11.5410  -37.3780 O.3       1 GAL        -0.3380
     29 O4        -42.4120   14.0340  -37.4740 O.3       1 GAL        -0.3865
     30 O5        -40.8410   13.4510  -39.7320 O.3       1 GAL        -0.3405
     31 O6        -41.3860   15.7670  -41.2170 O.3       1 GAL        -0.3924
     32 C1        -36.5300   11.4780  -43.1800 C.3       1 NAG         0.1823
     33 C2        -37.2850   12.8150  -43.1190 C.3       1 NAG         0.1208
     34 C3        -38.1910   12.9950  -41.8910 C.3       1 NAG         0.1114
     35 C4        -38.8600   11.6880  -41.4490 C.3       1 NAG         0.1181
     36 C5        -37.8780   10.5230  -41.4090 C.3       1 NAG         0.1133
     37 C6        -38.6780    9.2640  -41.0470 C.3       1 NAG         0.0730
     38 C7        -35.8570   14.4050  -44.2710 C.2       1 NAG         0.1733
     39 C8        -34.8670   15.5540  -44.1500 C.3       1 NAG         0.0257
     40 N2        -36.2690   13.8610  -43.1030 N.am      1 NAG        -0.2766
     41 O1        -36.1490   11.2610  -44.5430 O.3       1 NAG        -0.3651
     42 O3        -39.1730   14.0070  -42.1460 O.3       1 NAG        -0.3867
     43 O4        -39.3880   11.8390  -40.1360 O.3       1 NAG        -0.3401
     44 O5        -37.2680   10.3520  -42.6830 O.3       1 NAG        -0.3409
     45 O6        -39.7770    9.1960  -41.9540 O.3       1 NAG        -0.3924
     46 O7        -36.2550   14.0020  -45.4040 O.2       1 NAG        -0.3974
     47 H1        -44.7182    9.0151  -37.6713 H         1 SIA         0.0336
     48 H2        -45.0295   10.1731  -39.0088 H         1 SIA         0.0336
     49 H3        -46.9837    9.1859  -36.8850 H         1 SIA         0.0618
     50 H4        -47.5078   11.2466  -39.0661 H         1 SIA         0.0608
     51 H5        -47.1701   11.6916  -36.0660 H         1 SIA         0.0646
     52 H6        -48.8745   13.1425  -37.0800 H         1 SIA         0.0647
     53 H7        -46.2676   14.6992  -36.7865 H         1 SIA         0.0643
     54 H8        -48.8731   15.6034  -35.6162 H         1 SIA         0.0584
     55 H9        -48.7371   15.6539  -37.4066 H         1 SIA         0.0584
     56 H10       -52.0680   11.2642  -38.7416 H         1 SIA         0.0467
     57 H11       -51.5799   10.8533  -37.0625 H         1 SIA         0.0467
     58 H12       -51.3880    9.6424  -38.3753 H         1 SIA         0.0467
     59 H13       -49.2081   10.0126  -36.9808 H         1 SIA         0.1856
     60 H14       -46.6392    7.9000  -38.7970 H         1 SIA         0.2099
     61 H15       -48.0468   13.0188  -39.2538 H         1 SIA         0.2100
     62 H16       -46.6035   13.1684  -35.0638 H         1 SIA         0.2100
     63 H17       -46.8864   16.8130  -35.5538 H         1 SIA         0.2095
     64 H18       -41.2612   11.7899  -40.8139 H         1 SIA         0.0938
     65 H19       -41.1673   11.3205  -37.8821 H         1 SIA         0.0671
     66 H20       -43.7469   11.6694  -39.4262 H         1 SIA         0.0650
     67 H21       -43.9872   13.9308  -38.7745 H         1 SIA         0.0647
     68 H22       -42.6031   13.5028  -40.7850 H         1 SIA         0.0647
     69 H23       -41.6428   15.9215  -39.1775 H         1 SIA         0.0584
     70 H24       -43.1495   15.8426  -40.1523 H         1 SIA         0.0584
     71 H25       -41.0298    9.5876  -39.4203 H         1 SIA         0.2101
     72 H26       -42.9404   13.7564  -36.7349 H         1 SIA         0.2100
     73 H27       -40.5012   15.4329  -41.1276 H         1 SIA         0.2095
     74 H28       -35.6212   11.5727  -42.5676 H         1 SIA         0.0932
     75 H29       -37.9065   12.9091  -44.0217 H         1 SIA         0.0633
     76 H30       -37.5581   13.3387  -41.0596 H         1 SIA         0.0645
     77 H31       -39.6731   11.4523  -42.1513 H         1 SIA         0.0650
     78 H32       -37.1026   10.7097  -40.6515 H         1 SIA         0.0647
     79 H33       -39.0452    9.3337  -40.0125 H         1 SIA         0.0584
     80 H34       -38.0451    8.3705  -41.1521 H         1 SIA         0.0584
     81 H35       -34.6023   15.9172  -45.1540 H         1 SIA         0.0467
     82 H36       -33.9598   15.2038  -43.6359 H         1 SIA         0.0467
     83 H37       -35.3231   16.3718  -43.5728 H         1 SIA         0.0467
     84 H38       -35.8803   14.1734  -42.2362 H         1 SIA         0.1857
     85 H39       -35.6620   12.0134  -44.8581 H         1 SIA         0.2126
     86 H40       -39.6715   14.1697  -41.3538 H         1 SIA         0.2100
     87 H41       -39.4489    9.1424  -42.8439 H         1 SIA         0.2095
@<TRIPOS>BOND
     1    2    1 1  
     2    1   13 ar 
     3    1   14 ar 
     4    2    3 1  
     5    2   16 1  
     6   28    2 1  
     7    3    4 1  
     8    4    5 1  
     9    4   15 1  
    10    6    5 1  
    11    5   12 1  
    12    6    7 1  
    13   16    6 1  
    14    7    8 1  
    15    7   17 1  
    16    8    9 1  
    17    8   18 1  
    18    9   19 1  
    19   10   11 1  
    20   12   10 am 
    21   10   20 2  
    22   21   22 1  
    23   21   30 1  
    24   43   21 1  
    25   22   23 1  
    26   22   27 1  
    27   23   24 1  
    28   23   28 1  
    29   25   24 1  
    30   24   29 1  
    31   25   26 1  
    32   30   25 1  
    33   26   31 1  
    34   33   32 1  
    35   32   41 1  
    36   32   44 1  
    37   33   34 1  
    38   40   33 1  
    39   34   35 1  
    40   34   42 1  
    41   35   36 1  
    42   35   43 1  
    43   36   37 1  
    44   44   36 1  
    45   37   45 1  
    46   38   39 1  
    47   38   40 am 
    48   38   46 2  
    49    3   47 1  
    50    3   48 1  
    51    4   49 1  
    52    5   50 1  
    53    6   51 1  
    54    7   52 1  
    55    8   53 1  
    56    9   54 1  
    57    9   55 1  
    58   11   56 1  
    59   11   57 1  
    60   11   58 1  
    61   12   59 1  
    62   15   60 1  
    63   17   61 1  
    64   18   62 1  
    65   19   63 1  
    66   21   64 1  
    67   22   65 1  
    68   23   66 1  
    69   24   67 1  
    70   25   68 1  
    71   26   69 1  
    72   26   70 1  
    73   27   71 1  
    74   29   72 1  
    75   31   73 1  
    76   32   74 1  
    77   33   75 1  
    78   34   76 1  
    79   35   77 1  
    80   36   78 1  
    81   37   79 1  
    82   37   80 1  
    83   39   81 1  
    84   39   82 1  
    85   39   83 1  
    86   40   84 1  
    87   41   85 1  
    88   42   86 1  
    89   45   87 1  
@<TRIPOS>SUBSTRUCTURE
     1 SIA         1

