### 
### Created by X-TOOL on Mon Sep 10 21:13:15 2018
### 

@<TRIPOS>MOLECULE
4lkk_ligand
   60    61     1     0     0
SMALL
GAST_HUCK


@<TRIPOS>ATOM
      1 C1        -26.7290   -0.0180   13.9990 C.2       1 SIA         0.1041
      2 C2        -26.5670   -0.4000   12.5510 C.3       1 SIA         0.2204
      3 C3        -27.3320    0.5860   11.6770 C.3       1 SIA         0.0353
      4 C4        -26.7480    1.9890   11.7970 C.3       1 SIA         0.0850
      5 C5        -25.2350    1.9690   11.6160 C.3       1 SIA         0.0964
      6 C6        -24.5950    0.8970   12.4920 C.3       1 SIA         0.1143
      7 C7        -23.0910    0.8230   12.2530 C.3       1 SIA         0.1114
      8 C8        -22.4620   -0.2960   13.0720 C.3       1 SIA         0.1065
      9 C9        -20.9410   -0.2150   13.0320 C.3       1 SIA         0.0727
     10 C10       -23.7180    3.8150   11.2020 C.2       1 SIA         0.1733
     11 C11       -23.3630    5.2320   11.5440 C.3       1 SIA         0.0257
     12 N5        -24.6800    3.2680   11.9390 N.am      1 SIA        -0.2790
     13 O1A       -25.7020    0.1140   14.7000 O.co2     1 SIA        -0.5426
     14 O1B       -27.8840    0.1530   14.4450 O.co2     1 SIA        -0.5426
     15 O4        -27.3350    2.8370   10.8040 O.3       1 SIA        -0.3893
     16 O6        -25.1840   -0.3680   12.2030 O.3       1 SIA        -0.3384
     17 O7        -22.8400    0.5950   10.8610 O.3       1 SIA        -0.3865
     18 O8        -22.9090   -0.2040   14.4290 O.3       1 SIA        -0.3869
     19 O9        -20.3850   -1.4750   13.4260 O.3       1 SIA        -0.3924
     20 O10       -23.1600    3.2050   10.3050 O.2       1 SIA        -0.3974
     21 C1        -26.5010   -6.2610   11.3830 C.3       1 GAL         0.1854
     22 C2        -27.0160   -6.9050   12.6630 C.3       1 GAL         0.1339
     23 C3        -27.9750   -5.9760   13.3960 C.3       1 GAL         0.1141
     24 C4        -27.3790   -4.5850   13.5410 C.3       1 GAL         0.1119
     25 C5        -26.8420   -4.0770   12.2090 C.3       1 GAL         0.1132
     26 C6        -26.1770   -2.7150   12.3710 C.3       1 GAL         0.0786
     27 O1        -25.5320   -7.1220   10.7730 O.3       1 GAL        -0.3649
     28 O2        -27.6880   -8.1290   12.3440 O.3       1 GAL        -0.3841
     29 O3        -28.2600   -6.5110   14.6930 O.3       1 GAL        -0.3864
     30 O4        -26.3160   -4.6200   14.5010 O.3       1 GAL        -0.3865
     31 O5        -25.8950   -5.0100   11.6910 O.3       1 GAL        -0.3407
     32 O6        -27.1790   -1.6920   12.3670 O.3       1 GAL        -0.3441
     33 H1        -28.3850    0.6063   11.9944 H         1 SIA         0.0336
     34 H2        -27.2713    0.2595   10.6283 H         1 SIA         0.0336
     35 H3        -26.9815    2.3869   12.7956 H         1 SIA         0.0618
     36 H4        -25.0113    1.7407   10.5635 H         1 SIA         0.0608
     37 H5        -24.7755    1.1464   13.5480 H         1 SIA         0.0646
     38 H6        -22.6363    1.7796   12.5500 H         1 SIA         0.0647
     39 H7        -22.7773   -1.2630   12.6531 H         1 SIA         0.0643
     40 H8        -20.5973    0.5693   13.7224 H         1 SIA         0.0584
     41 H9        -20.6135    0.0267   12.0101 H         1 SIA         0.0584
     42 H10       -22.5616    5.5806   10.8760 H         1 SIA         0.0467
     43 H11       -23.0183    5.2821   12.5874 H         1 SIA         0.0467
     44 H12       -24.2487    5.8722   11.4193 H         1 SIA         0.0467
     45 H13       -25.0284    3.7643   12.7342 H         1 SIA         0.1856
     46 H14       -28.2782    2.8493   10.9171 H         1 SIA         0.2099
     47 H15       -23.2328    1.2936   10.3510 H         1 SIA         0.2100
     48 H16       -23.8573   -0.2546   14.4530 H         1 SIA         0.2100
     49 H17       -20.6684   -1.6828   14.3085 H         1 SIA         0.2095
     50 H18       -27.3395   -6.1017   10.6891 H         1 SIA         0.0935
     51 H19       -26.1610   -7.1231   13.3198 H         1 SIA         0.0671
     52 H20       -28.9102   -5.9044   12.8214 H         1 SIA         0.0648
     53 H21       -28.1621   -3.8978   13.8938 H         1 SIA         0.0647
     54 H22       -27.6789   -3.9819   11.5015 H         1 SIA         0.0647
     55 H23       -25.4778   -2.5468   11.5386 H         1 SIA         0.0586
     56 H24       -25.6272   -2.6862   13.3233 H         1 SIA         0.0586
     57 H25       -25.9365   -7.9567   10.5675 H         1 SIA         0.2126
     58 H26       -27.0893   -8.7078   11.8869 H         1 SIA         0.2101
     59 H27       -27.4564   -6.5613   15.1971 H         1 SIA         0.2100
     60 H28       -26.6512   -4.9368   15.3315 H         1 SIA         0.2100
@<TRIPOS>BOND
     1    2    1 1  
     2    1   13 ar 
     3    1   14 ar 
     4    2    3 1  
     5    2   16 1  
     6   32    2 1  
     7    3    4 1  
     8    4    5 1  
     9    4   15 1  
    10    6    5 1  
    11    5   12 1  
    12    6    7 1  
    13   16    6 1  
    14    7    8 1  
    15    7   17 1  
    16    8    9 1  
    17    8   18 1  
    18    9   19 1  
    19   10   11 1  
    20   12   10 am 
    21   10   20 2  
    22   21   22 1  
    23   21   27 1  
    24   31   21 1  
    25   23   22 1  
    26   22   28 1  
    27   24   23 1  
    28   23   29 1  
    29   25   24 1  
    30   24   30 1  
    31   26   25 1  
    32   25   31 1  
    33   26   32 1  
    34    3   33 1  
    35    3   34 1  
    36    4   35 1  
    37    5   36 1  
    38    6   37 1  
    39    7   38 1  
    40    8   39 1  
    41    9   40 1  
    42    9   41 1  
    43   11   42 1  
    44   11   43 1  
    45   11   44 1  
    46   12   45 1  
    47   15   46 1  
    48   17   47 1  
    49   18   48 1  
    50   19   49 1  
    51   21   50 1  
    52   22   51 1  
    53   23   52 1  
    54   24   53 1  
    55   25   54 1  
    56   26   55 1  
    57   26   56 1  
    58   27   57 1  
    59   28   58 1  
    60   29   59 1  
    61   30   60 1  
@<TRIPOS>SUBSTRUCTURE
     1 SIA         1

