### 
### Created by X-TOOL on Mon Sep 10 21:13:15 2018
### 

@<TRIPOS>MOLECULE
4lko_ligand
   45    47     1     0     0
SMALL
GAST_HUCK


@<TRIPOS>ATOM
      1 C          49.9950   49.6810   34.5850 C.2       1 1WH         0.2050
      2 C7A        48.6350   50.2440   34.3470 C.ar      1 1WH         0.0729
      3 N          45.3600   52.3630   36.4630 N.4       1 1WH         0.2304
      4 C1         45.0760   51.5240   35.3020 C.3       1 1WH         0.0009
      5 C2         47.4870   50.4390   35.1820 C.ar      1 1WH         0.0141
      6 C3         46.4170   51.2180   34.6130 C.ar      1 1WH         0.0359
      7 C4         45.5570   52.7440   32.8740 C.3       1 1WH        -0.0180
      8 C5         46.6060   51.8080   33.3310 C.ar      1 1WH         0.0280
      9 N1         47.7250   51.6300   32.5680 N.ar      1 1WH        -0.2995
     10 C3A        48.7020   50.8470   33.0800 C.ar      1 1WH         0.0545
     11 C6         50.0500   50.5510   32.4260 C.3       1 1WH         0.0803
     12 N2         50.7050   49.7760   33.4670 N.am      1 1WH        -0.2583
     13 C7         51.9160   48.9820   33.2770 C.3       1 1WH         0.0590
     14 C8         51.3470   47.6430   32.8360 C.3       1 1WH         0.0677
     15 O1         52.3580   46.6720   32.8370 O.3       1 1WH        -0.3810
     16 C10        52.7770   46.0650   31.6120 C.3       1 1WH         0.0365
     17 C14        47.4630   50.0220   36.6160 C.ar      1 1WH         0.0012
     18 C15        48.0120   50.8170   37.6780 C.ar      1 1WH         0.0505
     19 CL         48.7800   52.2410   37.4830 Cl        1 1WH        -0.0683
     20 C16        47.9730   50.5450   39.0640 C.ar      1 1WH        -0.0321
     21 C17        47.3180   49.3600   39.3560 C.ar      1 1WH         0.0422
     22 CL1        47.2800   49.1330   40.9790 Cl        1 1WH        -0.0693
     23 C18        46.7610   48.4770   38.3590 C.ar      1 1WH        -0.0460
     24 C19        46.8300   48.8050   36.9640 C.ar      1 1WH        -0.0515
     25 O2         50.5160   49.1950   35.5820 O.2       1 1WH        -0.3893
     26 H1         44.4984   52.5820   36.9381 H         1 1WH         0.2007
     27 H2         45.8032   53.2163   36.1606 H         1 1WH         0.2007
     28 H3         45.9744   51.8698   37.0918 H         1 1WH         0.2007
     29 H4         44.4100   52.0570   34.6074 H         1 1WH         0.0971
     30 H5         44.5968   50.5875   35.6236 H         1 1WH         0.0971
     31 H6         45.8179   53.1287   31.8771 H         1 1WH         0.0412
     32 H7         45.4799   53.5824   33.5819 H         1 1WH         0.0412
     33 H8         44.5926   52.2174   32.8229 H         1 1WH         0.0412
     34 H9         50.6023   51.4761   32.2044 H         1 1WH         0.0713
     35 H10        49.9301   49.9654   31.5026 H         1 1WH         0.0713
     36 H11        52.4830   48.8864   34.2147 H         1 1WH         0.0546
     37 H12        52.5622   49.4173   32.5005 H         1 1WH         0.0546
     38 H13        50.9340   47.7386   31.8210 H         1 1WH         0.0580
     39 H14        50.5490   47.3394   33.5295 H         1 1WH         0.0580
     40 H15        53.5732   45.3346   31.8183 H         1 1WH         0.0523
     41 H16        53.1578   46.8398   30.9303 H         1 1WH         0.0523
     42 H17        51.9224   45.5536   31.1450 H         1 1WH         0.0523
     43 H18        48.4081   51.1928   39.8164 H         1 1WH         0.0632
     44 H19        46.2843   47.5539   38.6684 H         1 1WH         0.0627
     45 H20        46.4147   48.1482   36.2082 H         1 1WH         0.0633
@<TRIPOS>BOND
     1    2    1 1  
     2    1   12 am 
     3    1   25 2  
     4    5    2 ar 
     5    2   10 ar 
     6    4    3 1  
     7    6    4 1  
     8    5    6 ar 
     9    5   17 1  
    10    6    8 ar 
    11    8    7 1  
    12    8    9 ar 
    13    9   10 ar 
    14   10   11 1  
    15   11   12 1  
    16   12   13 1  
    17   13   14 1  
    18   14   15 1  
    19   15   16 1  
    20   17   18 ar 
    21   17   24 ar 
    22   18   19 1  
    23   18   20 ar 
    24   20   21 ar 
    25   21   22 1  
    26   21   23 ar 
    27   23   24 ar 
    28    3   26 1  
    29    3   27 1  
    30    3   28 1  
    31    4   29 1  
    32    4   30 1  
    33    7   31 1  
    34    7   32 1  
    35    7   33 1  
    36   11   34 1  
    37   11   35 1  
    38   13   36 1  
    39   13   37 1  
    40   14   38 1  
    41   14   39 1  
    42   16   40 1  
    43   16   41 1  
    44   16   42 1  
    45   20   43 1  
    46   23   44 1  
    47   24   45 1  
@<TRIPOS>SUBSTRUCTURE
     1 1WH         1

