### 
### Created by X-TOOL on Mon Sep 10 21:13:19 2018
### 

@<TRIPOS>MOLECULE
4lkq_ligand
   16    17     1     0     0
SMALL
GAST_HUCK


@<TRIPOS>ATOM
      1 N1          2.8330   15.0380   41.9400 N.pl3     1 1XM        -0.3132
      2 C2          3.4240   14.0610   42.6520 C.ar      1 1XM         0.1217
      3 N3          3.5250   14.1120   44.0120 N.ar      1 1XM        -0.2544
      4 C4          4.1170   13.1170   44.7420 C.ar      1 1XM         0.1285
      5 S5          4.2210   13.2160   46.5140 S.3       1 1XM        -0.0813
      6 N6          4.6560   12.0130   44.1540 N.ar      1 1XM        -0.2612
      7 C7          4.5750   11.9270   42.8030 C.ar      1 1XM         0.1503
      8 N8          4.9900   10.9810   41.9380 N.pl3     1 1XM        -0.2021
      9 N9          4.6720   11.3500   40.6970 N.2       1 1XM        -0.2080
     10 C10         4.0420   12.5480   40.7130 C.2       1 1XM         0.0253
     11 C11         3.9680   12.9360   42.0430 C.ar      1 1XM         0.0730
     12 H           2.7754   14.9649   40.9142 H         1 1XM         0.1846
     13 H           2.4382   15.8589   42.4208 H         1 1XM         0.1846
     14 H           4.6873   12.3956   46.8684 H         1 1XM         0.1301
     15 H           5.4762   10.1101   42.1950 H         1 1XM         0.2493
     16 H           3.6671   13.0988   39.8516 H         1 1XM         0.0727
@<TRIPOS>BOND
     1    1    2 1  
     2    2    3 ar 
     3    2   11 ar 
     4    3    4 ar 
     5    4    5 1  
     6    4    6 ar 
     7    6    7 ar 
     8    7    8 1  
     9    7   11 ar 
    10    8    9 1  
    11    9   10 2  
    12   10   11 1  
    13    1   12 1  
    14    1   13 1  
    15    5   14 1  
    16    8   15 1  
    17   10   16 1  
@<TRIPOS>SUBSTRUCTURE
     1 1XM         1

