### 
### Created by X-TOOL on Mon Sep 10 21:13:19 2018
### 

@<TRIPOS>MOLECULE
4lkt_ligand
   53    52     1     0     0
SMALL
GAST_HUCK


@<TRIPOS>ATOM
      1 C1         31.7330   -7.3400   -6.5580 C.2       1 EIC         0.0348
      2 C2         33.1060   -7.0000   -6.0850 C.3       1 EIC         0.0002
      3 C3         33.0960   -5.6860   -5.3790 C.3       1 EIC        -0.0414
      4 C4         33.7850   -5.8370   -4.0650 C.3       1 EIC        -0.0516
      5 C5         34.8050   -4.7600   -3.9010 C.3       1 EIC        -0.0530
      6 C6         35.2450   -4.7090   -2.4770 C.3       1 EIC        -0.0531
      7 C7         36.6130   -5.2880   -2.3450 C.3       1 EIC        -0.0531
      8 C8         36.6180   -6.3020   -1.2500 C.3       1 EIC        -0.0529
      9 C9         38.0100   -6.7850   -1.0210 C.3       1 EIC        -0.0515
     10 C10        38.2590   -8.1050   -0.7690 C.3       1 EIC        -0.0464
     11 C11        37.4910   -8.8520    0.2710 C.3       1 EIC        -0.0365
     12 C12        38.4490   -9.5310    1.1920 C.2       1 EIC        -0.0987
     13 C13        38.0340  -10.4670    2.0990 C.2       1 EIC        -0.0987
     14 C14        36.7360  -11.1880    1.9440 C.3       1 EIC        -0.0365
     15 C15        36.9850  -12.6200    1.6000 C.3       1 EIC        -0.0464
     16 C16        37.2180  -13.4370    2.8270 C.3       1 EIC        -0.0518
     17 C17        36.9660  -14.8690    2.4980 C.3       1 EIC        -0.0558
     18 C18        37.5650  -15.7350    3.5510 C.3       1 EIC        -0.0653
     19 O1         30.7350   -6.7250   -6.1000 O.co2     1 EIC        -0.5690
     20 O2         31.5750   -8.2480   -7.4160 O.co2     1 EIC        -0.5690
     21 H          33.7845   -6.9433   -6.9490 H         1 EIC         0.0430
     22 H          33.4564   -7.7811   -5.3943 H         1 EIC         0.0430
     23 H          32.0574   -5.3625   -5.2160 H         1 EIC         0.0283
     24 H          33.6224   -4.9360   -5.9876 H         1 EIC         0.0283
     25 H          34.2804   -6.8182   -4.0233 H         1 EIC         0.0266
     26 H          33.0449   -5.7651   -3.2544 H         1 EIC         0.0266
     27 H          34.3660   -3.7921   -4.1845 H         1 EIC         0.0265
     28 H          35.6707   -4.9728   -4.5454 H         1 EIC         0.0265
     29 H          34.5434   -5.2873   -1.8579 H         1 EIC         0.0265
     30 H          35.2578   -3.6630   -2.1369 H         1 EIC         0.0265
     31 H          37.3291   -4.4875   -2.1073 H         1 EIC         0.0265
     32 H          36.9011   -5.7686   -3.2916 H         1 EIC         0.0265
     33 H          35.9783   -7.1506   -1.5341 H         1 EIC         0.0265
     34 H          36.2326   -5.8453   -0.3265 H         1 EIC         0.0265
     35 H          38.4000   -6.2221   -0.1602 H         1 EIC         0.0267
     36 H          38.5852   -6.5234   -1.9214 H         1 EIC         0.0267
     37 H          39.3189   -8.1733   -0.4829 H         1 EIC         0.0285
     38 H          38.1000   -8.6389   -1.7175 H         1 EIC         0.0285
     39 H          36.8502   -9.6036   -0.2132 H         1 EIC         0.0388
     40 H          36.8657   -8.1501    0.8422 H         1 EIC         0.0388
     41 H          39.5061   -9.2746    1.1406 H         1 EIC         0.0450
     42 H          38.6668  -10.6921    2.9563 H         1 EIC         0.0450
     43 H          36.1512  -10.7167    1.1403 H         1 EIC         0.0388
     44 H          36.1735  -11.1326    2.8877 H         1 EIC         0.0388
     45 H          37.8717  -12.6845    0.9523 H         1 EIC         0.0285
     46 H          36.1102  -13.0179    1.0648 H         1 EIC         0.0285
     47 H          36.5322  -13.1134    3.6238 H         1 EIC         0.0267
     48 H          38.2574  -13.3114    3.1644 H         1 EIC         0.0267
     49 H          37.4212  -15.1070    1.5253 H         1 EIC         0.0263
     50 H          35.8818  -15.0484    2.4492 H         1 EIC         0.0263
     51 H          37.3783  -16.7912    3.3070 H         1 EIC         0.0230
     52 H          37.1099  -15.4975    4.5238 H         1 EIC         0.0230
     53 H          38.6492  -15.5561    3.5999 H         1 EIC         0.0230
@<TRIPOS>BOND
     1    1    2 1  
     2    1   19 ar 
     3    1   20 ar 
     4    2    3 1  
     5    3    4 1  
     6    4    5 1  
     7    5    6 1  
     8    6    7 1  
     9    7    8 1  
    10    8    9 1  
    11    9   10 1  
    12   10   11 1  
    13   11   12 1  
    14   12   13 2  
    15   13   14 1  
    16   14   15 1  
    17   15   16 1  
    18   16   17 1  
    19   17   18 1  
    20    2   21 1  
    21    2   22 1  
    22    3   23 1  
    23    3   24 1  
    24    4   25 1  
    25    4   26 1  
    26    5   27 1  
    27    5   28 1  
    28    6   29 1  
    29    6   30 1  
    30    7   31 1  
    31    7   32 1  
    32    8   33 1  
    33    8   34 1  
    34    9   35 1  
    35    9   36 1  
    36   10   37 1  
    37   10   38 1  
    38   11   39 1  
    39   11   40 1  
    40   12   41 1  
    41   13   42 1  
    42   14   43 1  
    43   14   44 1  
    44   15   45 1  
    45   15   46 1  
    46   16   47 1  
    47   16   48 1  
    48   17   49 1  
    49   17   50 1  
    50   18   51 1  
    51   18   52 1  
    52   18   53 1  
@<TRIPOS>SUBSTRUCTURE
     1 EIC         1

