### 
### Created by X-TOOL on Mon Sep 10 21:13:18 2018
### 

@<TRIPOS>MOLECULE
4ll3_ligand
   75    78     1     0     0
SMALL
GAST_HUCK


@<TRIPOS>ATOM
      1 N1         -8.7280   16.1900   18.4900 N.pl3     1 017        -0.3369
      2 C2         -8.6590   15.9120   19.8190 C.ar      1 017         0.0353
      3 C3         -9.8260   15.8320   20.5830 C.ar      1 017        -0.0429
      4 C4         -9.7470   15.5250   21.9410 C.ar      1 017        -0.0471
      5 C5         -8.5060   15.3090   22.5460 C.ar      1 017         0.0949
      6 C6         -7.3390   15.3710   21.7760 C.ar      1 017        -0.0471
      7 C7         -7.4180   15.6730   20.4120 C.ar      1 017        -0.0429
      8 S8         -8.4250   14.9710   24.1160 S.o2      1 017         0.0648
      9 O9         -9.5890   14.2270   24.4950 O.2       1 017        -0.1518
     10 O10        -7.2730   14.1690   24.3740 O.2       1 017        -0.1518
     11 N11        -8.3020   16.3060   25.0580 N.am      1 017        -0.2327
     12 C12        -7.1690   17.1940   24.7030 C.3       1 017         0.0319
     13 C13        -6.5900   17.9220   25.9210 C.3       1 017        -0.0296
     14 C14        -6.2160   16.9660   27.0530 C.3       1 017        -0.0612
     15 C15        -5.3960   18.8010   25.5250 C.3       1 017        -0.0612
     16 C16        -9.5550   17.0850   25.1760 C.3       1 017         0.0578
     17 C17       -10.0020   17.1050   26.6460 C.3       1 017         0.0967
     18 O18       -11.0830   18.0300   26.8900 O.3       1 017        -0.3877
     19 C19       -10.4000   15.7310   27.1610 C.3       1 017         0.0807
     20 N20       -10.4980   15.9210   28.6040 N.am      1 017        -0.2550
     21 C21        -9.7140   15.2600   29.4470 C.2       1 017         0.3203
     22 O22        -8.8440   14.4450   29.1150 O.2       1 017        -0.3775
     23 O23        -9.9400   15.5810   30.8450 O.3       1 017        -0.2578
     24 C24        -9.3450   14.7250   31.7950 C.3       1 017         0.1189
     25 C25        -9.0900   15.6300   32.9840 C.3       1 017         0.0815
     26 O26       -10.3190   15.6340   33.7110 O.3       1 017        -0.3480
     27 C27       -11.1070   14.4780   33.3920 C.3       1 017         0.1648
     28 O28       -12.3680   14.8560   32.8400 O.3       1 017        -0.3509
     29 C29       -12.7230   13.9900   31.7550 C.3       1 017         0.0512
     30 C30       -11.4400   13.3300   31.2910 C.3       1 017        -0.0191
     31 C31       -10.3790   13.7390   32.3000 C.3       1 017         0.0449
     32 C32       -11.7920   15.2870   26.7040 C.3       1 017         0.0064
     33 C33       -13.2800   13.8750   28.1470 C.ar      1 017        -0.0603
     34 C34       -13.6490   12.6530   28.7060 C.ar      1 017        -0.0686
     35 C35       -12.8910   11.5160   28.4230 C.ar      1 017        -0.0687
     36 C36       -11.7820   11.6020   27.5810 C.ar      1 017        -0.0686
     37 C37       -11.4090   12.8190   27.0170 C.ar      1 017        -0.0603
     38 C38       -12.1600   13.9570   27.3060 C.ar      1 017        -0.0408
     39 H          -9.6412   16.3671   18.0476 H         1 017         0.1719
     40 H          -7.8671   16.2235   17.9255 H         1 017         0.1719
     41 H         -10.7907   16.0082   20.1212 H         1 017         0.0515
     42 H         -10.6537   15.4535   22.5308 H         1 017         0.0602
     43 H          -6.3750   15.1853   22.2357 H         1 017         0.0602
     44 H          -6.5145   15.7214   19.8151 H         1 017         0.0515
     45 H          -7.5215   17.9433   23.9789 H         1 017         0.0480
     46 H          -6.3747   16.5864   24.2448 H         1 017         0.0480
     47 H          -7.3768   18.5880   26.3050 H         1 017         0.0311
     48 H          -5.8075   17.5400   27.8978 H         1 017         0.0233
     49 H          -5.4597   16.2519   26.6951 H         1 017         0.0233
     50 H          -7.1115   16.4180   27.3811 H         1 017         0.0233
     51 H          -5.6931   19.4776   24.7102 H         1 017         0.0233
     52 H          -4.5666   18.1623   25.1871 H         1 017         0.0233
     53 H          -5.0725   19.3931   26.3937 H         1 017         0.0233
     54 H         -10.3377   16.6182   24.5600 H         1 017         0.0504
     55 H          -9.3818   18.1148   24.8303 H         1 017         0.0504
     56 H          -9.1374   17.4424   27.2364 H         1 017         0.0634
     57 H         -11.8334   17.7849   26.3614 H         1 017         0.2100
     58 H          -9.6475   14.9771   26.8865 H         1 017         0.0604
     59 H         -11.1719   16.5646   28.9669 H         1 017         0.1873
     60 H          -8.4404   14.2301   31.4119 H         1 017         0.0675
     61 H          -8.8347   16.6463   32.6495 H         1 017         0.0590
     62 H          -8.2739   15.2326   33.6053 H         1 017         0.0590
     63 H         -11.2457   13.8478   34.2828 H         1 017         0.0913
     64 H         -13.1686   14.5720   30.9348 H         1 017         0.0561
     65 H         -13.4398   13.2285   32.0959 H         1 017         0.0561
     66 H         -11.1690   13.6831   30.2851 H         1 017         0.0293
     67 H         -11.5546   12.2361   31.2771 H         1 017         0.0293
     68 H          -9.8757   12.8399   32.6851 H         1 017         0.0380
     69 H         -11.7996   15.1997   25.6075 H         1 017         0.0449
     70 H         -12.5303   16.0399   27.0170 H         1 017         0.0449
     71 H         -13.8601   14.7650   28.3626 H         1 017         0.0557
     72 H         -14.5156   12.5863   29.3538 H         1 017         0.0599
     73 H         -13.1650   10.5622   28.8592 H         1 017         0.0559
     74 H         -11.2041   10.7111   27.3634 H         1 017         0.0599
     75 H         -10.5470   12.8806   26.3626 H         1 017         0.0557
@<TRIPOS>BOND
     1    2    1 1  
     2    3    2 ar 
     3    7    2 ar 
     4    4    3 ar 
     5    5    4 ar 
     6    5    6 ar 
     7    8    5 1  
     8    6    7 ar 
     9    8    9 2  
    10    8   10 2  
    11   11    8 am 
    12   11   12 1  
    13   16   11 1  
    14   12   13 1  
    15   13   14 1  
    16   13   15 1  
    17   17   16 1  
    18   17   18 1  
    19   19   17 1  
    20   19   20 1  
    21   32   19 1  
    22   20   21 am 
    23   21   22 2  
    24   21   23 1  
    25   23   24 1  
    26   24   25 1  
    27   24   31 1  
    28   25   26 1  
    29   27   26 1  
    30   27   28 1  
    31   31   27 1  
    32   29   28 1  
    33   30   29 1  
    34   31   30 1  
    35   38   32 1  
    36   33   34 ar 
    37   33   38 ar 
    38   34   35 ar 
    39   35   36 ar 
    40   36   37 ar 
    41   37   38 ar 
    42    1   39 1  
    43    1   40 1  
    44    3   41 1  
    45    4   42 1  
    46    6   43 1  
    47    7   44 1  
    48   12   45 1  
    49   12   46 1  
    50   13   47 1  
    51   14   48 1  
    52   14   49 1  
    53   14   50 1  
    54   15   51 1  
    55   15   52 1  
    56   15   53 1  
    57   16   54 1  
    58   16   55 1  
    59   17   56 1  
    60   18   57 1  
    61   19   58 1  
    62   20   59 1  
    63   24   60 1  
    64   25   61 1  
    65   25   62 1  
    66   27   63 1  
    67   29   64 1  
    68   29   65 1  
    69   30   66 1  
    70   30   67 1  
    71   31   68 1  
    72   32   69 1  
    73   32   70 1  
    74   33   71 1  
    75   34   72 1  
    76   35   73 1  
    77   36   74 1  
    78   37   75 1  
@<TRIPOS>SUBSTRUCTURE
     1 017         1

