### 
### Created by X-TOOL on Mon Sep 10 21:13:19 2018
### 

@<TRIPOS>MOLECULE
4llj_ligand
   20    21     1     0     0
SMALL
GAST_HUCK


@<TRIPOS>ATOM
      1 N1          3.4930   13.9410   40.7790 N.pl3     1 1XN        -0.3590
      2 C2          3.6800   13.7560   42.0320 C.2       1 1XN         0.0939
      3 N3          3.2710   14.6080   42.9980 N.pl3     1 1XN        -0.3118
      4 C4          3.6110   14.1420   44.2220 C.2       1 1XN         0.0939
      5 N5          3.3500   14.7300   45.3390 N.pl3     1 1XN        -0.3590
      6 C6          4.2700   12.9280   44.0380 C.ar      1 1XN        -0.0121
      7 C7          4.8240   12.0310   44.9560 C.ar      1 1XN        -0.0599
      8 C8          5.4250   10.8870   44.4220 C.ar      1 1XN        -0.0619
      9 C9          5.4620   10.6520   43.0450 C.ar      1 1XN        -0.0619
     10 C10         4.9110   11.5430   42.1270 C.ar      1 1XN        -0.0599
     11 C11         4.3130   12.6850   42.6540 C.ar      1 1XN        -0.0121
     12 H           3.8338   13.2462   40.0993 H         1 1XN         0.1575
     13 H           3.0017   14.7847   40.4506 H         1 1XN         0.1575
     14 H           2.7693   15.4910   42.8261 H         1 1XN         0.2328
     15 H           3.6471   14.3025   46.2278 H         1 1XN         0.1575
     16 H           2.8443   15.6273   45.3428 H         1 1XN         0.1575
     17 H           4.7895   12.2125   46.0241 H         1 1XN         0.0616
     18 H           5.8737   10.1639   45.0934 H         1 1XN         0.0618
     19 H           5.9346    9.7475   42.6796 H         1 1XN         0.0618
     20 H           4.9458   11.3574   41.0596 H         1 1XN         0.0616
@<TRIPOS>BOND
     1    1    2 1  
     2    2    3 1  
     3    2   11 2  
     4    3    4 1  
     5    4    5 1  
     6    4    6 2  
     7    6    7 ar 
     8    6   11 ar 
     9    7    8 ar 
    10    8    9 ar 
    11    9   10 ar 
    12   10   11 ar 
    13    1   12 1  
    14    1   13 1  
    15    3   14 1  
    16    5   15 1  
    17    5   16 1  
    18    7   17 1  
    19    8   18 1  
    20    9   19 1  
    21   10   20 1  
@<TRIPOS>SUBSTRUCTURE
     1 1XN         1

