### 
### Created by X-TOOL on Mon Sep 10 21:13:19 2018
### 

@<TRIPOS>MOLECULE
4llp_ligand
   18    18     1     0     0
SMALL
GAST_HUCK


@<TRIPOS>ATOM
      1 C1          3.3340   13.8450   40.3470 C.3       1 4ZE        -0.0358
      2 C2          3.9090   13.3150   41.6390 C.ar      1 4ZE        -0.0281
      3 C3          4.3690   12.0040   41.7310 C.ar      1 4ZE        -0.0516
      4 C4          4.8960   11.5230   42.9280 C.ar      1 4ZE         0.0173
      5 N5          5.3410   10.2590   43.0300 N.pl3     1 4ZE        -0.3441
      6 C6          4.9670   12.3520   44.0480 C.ar      1 4ZE        -0.0600
      7 C7          4.5040   13.6580   43.9540 C.ar      1 4ZE        -0.0511
      8 C8          3.9790   14.1370   42.7570 C.ar      1 4ZE         0.0755
      9 O9          3.5410   15.3900   42.6840 O.3       1 4ZE        -0.3454
     10 H           3.3620   13.0551   39.5819 H         1 4ZE         0.0366
     11 H           3.9283   14.7059   40.0070 H         1 4ZE         0.0366
     12 H           2.2929   14.1599   40.5109 H         1 4ZE         0.0366
     13 H           4.3168   11.3532   40.8657 H         1 4ZE         0.0426
     14 H           5.7276    9.9196   43.9223 H         1 4ZE         0.1685
     15 H           5.2955    9.6297   42.2159 H         1 4ZE         0.1685
     16 H           5.3784   11.9813   44.9799 H         1 4ZE         0.0432
     17 H           4.5518   14.3093   44.8192 H         1 4ZE         0.0490
     18 H           3.2164   15.5603   41.8075 H         1 4ZE         0.2413
@<TRIPOS>BOND
     1    1    2 1  
     2    2    3 ar 
     3    2    8 ar 
     4    3    4 ar 
     5    4    5 1  
     6    4    6 ar 
     7    6    7 ar 
     8    7    8 ar 
     9    8    9 1  
    10    1   10 1  
    11    1   11 1  
    12    1   12 1  
    13    3   13 1  
    14    5   14 1  
    15    5   15 1  
    16    6   16 1  
    17    7   17 1  
    18    9   18 1  
@<TRIPOS>SUBSTRUCTURE
     1 4ZE         1

