### 
### Created by X-TOOL on Mon Sep 10 21:13:19 2018
### 

@<TRIPOS>MOLECULE
4llx_ligand
   18    18     1     0     0
SMALL
GAST_HUCK


@<TRIPOS>ATOM
      1 C1          5.6930   11.0820   44.7630 C.3       1 5ZE        -0.0147
      2 C2          4.8910   12.2030   44.1300 C.ar      1 5ZE         0.0191
      3 C3          4.7850   12.3370   42.7290 C.ar      1 5ZE        -0.0232
      4 C4          4.0160   13.3940   42.2120 C.ar      1 5ZE         0.0191
      5 C5          3.8390   13.6130   40.7220 C.3       1 5ZE        -0.0147
      6 N6          3.4170   14.2640   43.0660 N.ar      1 5ZE        -0.2659
      7 C7          3.5370   14.1190   44.4090 C.ar      1 5ZE         0.1696
      8 N8          2.9160   14.9900   45.2130 N.pl3     1 5ZE        -0.3063
      9 N9          4.2530   13.0910   44.9400 N.ar      1 5ZE        -0.2659
     10 H           6.1403   10.4601   43.9735 H         1 5ZE         0.0440
     11 H           5.0302   10.4633   45.3857 H         1 5ZE         0.0440
     12 H           6.4903   11.5096   45.3887 H         1 5ZE         0.0440
     13 H           5.2855   11.6402   42.0664 H         1 5ZE         0.0537
     14 H           3.2016   14.4937   40.5540 H         1 5ZE         0.0440
     15 H           3.3650   12.7268   40.2749 H         1 5ZE         0.0440
     16 H           4.8218   13.7775   40.2562 H         1 5ZE         0.0440
     17 H           2.3744   15.7676   44.8094 H         1 5ZE         0.1824
     18 H           2.9796   14.8828   46.2354 H         1 5ZE         0.1824
@<TRIPOS>BOND
     1    1    2 1  
     2    2    3 ar 
     3    2    9 ar 
     4    3    4 ar 
     5    4    5 1  
     6    4    6 ar 
     7    6    7 ar 
     8    7    8 1  
     9    7    9 ar 
    10    1   10 1  
    11    1   11 1  
    12    1   12 1  
    13    3   13 1  
    14    5   14 1  
    15    5   15 1  
    16    5   16 1  
    17    8   17 1  
    18    8   18 1  
@<TRIPOS>SUBSTRUCTURE
     1 5ZE         1

