### 
### Created by X-TOOL on Mon Sep 10 21:13:19 2018
### 

@<TRIPOS>MOLECULE
4lm1_ligand
   19    20     1     0     0
SMALL
GAST_HUCK


@<TRIPOS>ATOM
      1 O1          5.3090   10.5380   43.0340 O.2       1 7ZE        -0.1236
      2 N2          5.2630   11.3310   43.9720 N.2       1 7ZE         0.0951
      3 O3          5.8000   11.0470   45.0360 O.2       1 7ZE        -0.1236
      4 C4          4.6320   12.5150   43.8840 C.ar      1 7ZE         0.2239
      5 C5          4.3520   13.2130   45.0630 C.ar      1 7ZE         0.0531
      6 C6          3.7000   14.4450   45.0080 C.ar      1 7ZE         0.0238
      7 C7          3.3240   14.9750   43.7770 C.ar      1 7ZE         0.0375
      8 C8          3.6010   14.2810   42.5970 C.ar      1 7ZE         0.1388
      9 N9          3.2270   14.8210   41.4130 N.ar      1 7ZE        -0.2212
     10 C10         3.4700   14.1620   40.2550 C.ar      1 7ZE         0.0709
     11 C11         4.1170   12.9260   40.2430 C.ar      1 7ZE         0.0234
     12 C12         4.5200   12.3670   41.4500 C.ar      1 7ZE         0.0251
     13 C13         4.2560   13.0440   42.6450 C.ar      1 7ZE         0.1203
     14 H           4.6419   12.7962   46.0207 H         1 7ZE         0.1062
     15 H           3.4867   14.9882   45.9215 H         1 7ZE         0.0978
     16 H           2.8140   15.9306   43.7340 H         1 7ZE         0.1280
     17 H           3.1549   14.6046   39.3170 H         1 7ZE         0.1070
     18 H           4.3023   12.4102   39.3078 H         1 7ZE         0.1001
     19 H           5.0351   11.4133   41.4651 H         1 7ZE         0.1172
@<TRIPOS>BOND
     1    1    2 2  
     2    2    3 2  
     3    2    4 1  
     4    4    5 ar 
     5    4   13 ar 
     6    5    6 ar 
     7    6    7 ar 
     8    7    8 ar 
     9    8    9 ar 
    10    8   13 ar 
    11    9   10 ar 
    12   10   11 ar 
    13   11   12 ar 
    14   12   13 ar 
    15    5   14 1  
    16    6   15 1  
    17    7   16 1  
    18   10   17 1  
    19   11   18 1  
    20   12   19 1  
@<TRIPOS>SUBSTRUCTURE
     1 7ZE         1

