### 
### Created by X-TOOL on Mon Sep 10 21:13:19 2018
### 

@<TRIPOS>MOLECULE
4lm2_ligand
   22    23     1     0     0
SMALL
GAST_HUCK


@<TRIPOS>ATOM
      1 O1          5.3340   12.2930   48.0430 O.3       1 8ZE        -0.3844
      2 C2          4.2710   12.9400   47.3470 C.3       1 8ZE         0.0709
      3 C3          4.4550   12.8250   45.8530 C.ar      1 8ZE        -0.0375
      4 C4          5.0880   11.6930   45.3360 C.ar      1 8ZE        -0.0779
      5 C5          5.2640   11.5670   43.9580 C.ar      1 8ZE        -0.0478
      6 C6          4.8050   12.5800   43.1150 C.ar      1 8ZE         0.1127
      7 O7          4.9780   12.4500   41.7980 O.3       1 8ZE        -0.3236
      8 C8          4.1540   13.2160   40.8650 C.3       1 8ZE         0.0937
      9 C9          3.9790   14.6500   41.3780 C.3       1 8ZE         0.0948
     10 O10         3.7400   14.6830   42.8160 O.3       1 8ZE        -0.3207
     11 C11         4.1670   13.7210   43.6350 C.ar      1 8ZE         0.1137
     12 C12         3.9890   13.8530   45.0140 C.ar      1 8ZE        -0.0377
     13 H           5.1965   12.3786   48.9791 H         1 8ZE         0.2123
     14 H           4.2526   14.0037   47.6265 H         1 8ZE         0.0699
     15 H           3.3173   12.4701   47.6294 H         1 8ZE         0.0699
     16 H           5.4414   10.9150   46.0030 H         1 8ZE         0.0437
     17 H           5.7523   10.6912   43.5462 H         1 8ZE         0.0493
     18 H           3.1672   12.7386   40.7735 H         1 8ZE         0.0633
     19 H           4.6433   13.2384   39.8801 H         1 8ZE         0.0633
     20 H           3.1227   15.1106   40.8637 H         1 8ZE         0.0636
     21 H           4.8916   15.2222   41.1552 H         1 8ZE         0.0636
     22 H           3.5024   14.7285   45.4284 H         1 8ZE         0.0451
@<TRIPOS>BOND
     1    1    2 1  
     2    2    3 1  
     3    3    4 ar 
     4    3   12 ar 
     5    4    5 ar 
     6    5    6 ar 
     7    6    7 1  
     8    6   11 ar 
     9    7    8 1  
    10    8    9 1  
    11    9   10 1  
    12   10   11 1  
    13   11   12 ar 
    14    1   13 1  
    15    2   14 1  
    16    2   15 1  
    17    4   16 1  
    18    5   17 1  
    19    8   18 1  
    20    8   19 1  
    21    9   20 1  
    22    9   21 1  
    23   12   22 1  
@<TRIPOS>SUBSTRUCTURE
     1 8ZE         1

