### 
### Created by X-TOOL on Mon Sep 10 21:13:18 2018
### 

@<TRIPOS>MOLECULE
4lm3_ligand
   23    24     1     0     0
SMALL
GAST_HUCK


@<TRIPOS>ATOM
      1 C1          4.9360   12.2290   45.1140 C.ar      1 9ZE        -0.0625
      2 C2          4.9810   11.6270   43.7500 C.ar      1 9ZE        -0.0345
      3 C3          4.5920   13.5010   45.2750 C.ar      1 9ZE         0.0120
      4 C4          4.6740   12.3770   42.6990 C.ar      1 9ZE         0.1260
      5 C5          4.2430   14.3450   44.0880 C.ar      1 9ZE        -0.0228
      6 C6          4.2840   13.8130   42.8790 C.ar      1 9ZE         0.1260
      7 O7          4.4390   11.8050   41.5200 O.3       1 9ZE        -0.3152
      8 C8          4.2460   12.6010   40.3230 C.3       1 9ZE         0.0966
      9 O9          3.9340   14.5350   41.8090 O.3       1 9ZE        -0.3179
     10 C10         3.4290   13.8660   40.6190 C.3       1 9ZE         0.0955
     11 C11         4.9710   14.1450   46.5620 C.2       1 9ZE         0.1191
     12 C12         5.2940   15.6220   46.5790 C.3       1 9ZE         0.0089
     13 O13         5.0290   13.4780   47.5930 O.2       1 9ZE        -0.3843
     14 H           5.1856   11.6245   45.9785 H         1 9ZE         0.0554
     15 H           5.2614   10.5882   43.6186 H         1 9ZE         0.0525
     16 H           3.9593   15.3829   44.2194 H         1 9ZE         0.0560
     17 H           3.7128   11.9975   39.5737 H         1 9ZE         0.0639
     18 H           5.2289   12.8943   39.9256 H         1 9ZE         0.0639
     19 H           2.3770   13.5876   40.7798 H         1 9ZE         0.0636
     20 H           3.5001   14.5512   39.7614 H         1 9ZE         0.0636
     21 H           5.5512   15.9293   47.6034 H         1 9ZE         0.0447
     22 H           4.4193   16.1927   46.2338 H         1 9ZE         0.0447
     23 H           6.1465   15.8186   45.9123 H         1 9ZE         0.0447
@<TRIPOS>BOND
     1    1    2 ar 
     2    1    3 ar 
     3    2    4 ar 
     4    3    5 ar 
     5    3   11 1  
     6    4    6 ar 
     7    4    7 1  
     8    5    6 ar 
     9    6    9 1  
    10    7    8 1  
    11    8   10 1  
    12    9   10 1  
    13   11   12 1  
    14   11   13 2  
    15    1   14 1  
    16    2   15 1  
    17    5   16 1  
    18    8   17 1  
    19    8   18 1  
    20   10   19 1  
    21   10   20 1  
    22   12   21 1  
    23   12   22 1  
    24   12   23 1  
@<TRIPOS>SUBSTRUCTURE
     1 9ZE         1

