### 
### Created by X-TOOL on Mon Sep 10 21:13:18 2018
### 

@<TRIPOS>MOLECULE
4lm4_ligand
   17    18     1     0     0
SMALL
GAST_HUCK


@<TRIPOS>ATOM
      1 C9          4.7040   11.7380   46.6180 C.ar      1 JPZ        -0.0633
      2 C8          4.0400   12.8440   47.1510 C.ar      1 JPZ        -0.0643
      3 C10         4.8380   11.5900   45.2350 C.ar      1 JPZ        -0.0479
      4 C7          3.5020   13.8150   46.2980 C.ar      1 JPZ        -0.0499
      5 C4          3.2520   14.4650   42.7230 C.2       1 JPZ         0.1270
      6 C11         4.3050   12.5580   44.3770 C.ar      1 JPZ         0.0643
      7 C6          3.6390   13.6700   44.9120 C.ar      1 JPZ         0.0242
      8 C2          4.4200   12.4450   42.9830 C.2       1 JPZ         0.2384
      9 N5          3.1300   14.6050   44.0690 N.2       1 JPZ        -0.2958
     10 N3          3.8890   13.4030   42.1810 N.am      1 JPZ        -0.1980
     11 O1          5.0370   11.4060   42.4320 O.2       1 JPZ        -0.3848
     12 H1          5.1188   10.9882   47.2819 H         1 JPZ         0.0570
     13 H2          3.9409   12.9511   48.2251 H         1 JPZ         0.0633
     14 H3          5.3535   10.7276   44.8281 H         1 JPZ         0.0648
     15 H4          2.9826   14.6737   46.7079 H         1 JPZ         0.0573
     16 H5          2.8279   15.2240   42.0673 H         1 JPZ         0.1520
     17 H6          3.9692   13.3229   41.1874 H         1 JPZ         0.2558
@<TRIPOS>BOND
     1    2    1 ar 
     2    3    1 ar 
     3    4    2 ar 
     4    6    3 ar 
     5    7    4 ar 
     6    9    5 2  
     7    5   10 am 
     8    7    6 ar 
     9    6    8 1  
    10    7    9 1  
    11    8   10 am 
    12    8   11 2  
    13    1   12 1  
    14    2   13 1  
    15    3   14 1  
    16    4   15 1  
    17    5   16 1  
    18   10   17 1  
@<TRIPOS>SUBSTRUCTURE
     1 JPZ         1

