### 
### Created by X-TOOL on Mon Sep 10 21:13:16 2018
### 

@<TRIPOS>MOLECULE
4lm5_ligand
   41    43     1     0     0
SMALL
GAST_HUCK


@<TRIPOS>ATOM
      1 C1         37.5060    3.2390   -3.8860 C.ar      1 Q17        -0.0269
      2 C2         36.5520    3.3390   -2.8830 C.ar      1 Q17        -0.0662
      3 C3         36.8800    3.0930   -1.5520 C.ar      1 Q17        -0.0674
      4 C4         38.1800    2.7280   -1.1910 C.ar      1 Q17        -0.0540
      5 C5         39.1790    2.6040   -2.1580 C.ar      1 Q17         0.0454
      6 C6         38.8160    2.8980   -3.5440 C.ar      1 Q17         0.1065
      7 O7         39.7750    2.8240   -4.5040 O.3       1 Q17        -0.3271
      8 C8         40.5650    2.2400   -1.7100 C.ar      1 Q17         0.0930
      9 N9         40.7480    2.0360   -0.3350 N.ar      1 Q17        -0.2550
     10 C10        42.0210    1.7300    0.0430 C.ar      1 Q17         0.1404
     11 C11        43.1120    1.6120   -0.8910 C.ar      1 Q17         0.0525
     12 C12        42.7930    1.8440   -2.2450 C.ar      1 Q17         0.0393
     13 N13        41.5110    2.1640   -2.6720 N.ar      1 Q17        -0.2964
     14 C14        43.8090    1.7670   -3.2560 C.ar      1 Q17        -0.0419
     15 C15        45.0830    1.4640   -2.8680 C.ar      1 Q17        -0.0565
     16 C16        45.4000    1.2400   -1.4940 C.ar      1 Q17        -0.0554
     17 C17        44.4350    1.3120   -0.5220 C.ar      1 Q17        -0.0411
     18 N18        42.2470    1.5210    1.3540 N.pl3     1 Q17        -0.2928
     19 C19        41.2150    1.7440    2.3860 C.3       1 Q17         0.0378
     20 C20        41.0520    3.3070    2.5620 C.3       1 Q17         0.0085
     21 C21        39.8960    3.7150    3.4910 C.3       1 Q17        -0.0334
     22 N22        40.1540    5.0740    3.9940 N.4       1 Q17         0.2186
     23 H          37.2379    3.4230   -4.9201 H         1 Q17         0.0554
     24 H          35.5351    3.6130   -3.1397 H         1 Q17         0.0624
     25 H          36.1178    3.1857   -0.7868 H         1 Q17         0.0538
     26 H          38.4148    2.5393   -0.1497 H         1 Q17         0.0632
     27 H          39.3945    3.0395   -5.3474 H         1 Q17         0.2514
     28 H          43.5717    1.9444   -4.2987 H         1 Q17         0.0619
     29 H          45.8655    1.3925   -3.6147 H         1 Q17         0.0672
     30 H          46.4214    1.0089   -1.2141 H         1 Q17         0.0619
     31 H          44.6892    1.1398    0.5176 H         1 Q17         0.0685
     32 H          43.1776    1.1922    1.6487 H         1 Q17         0.1912
     33 H          41.5298    1.2895    3.3369 H         1 Q17         0.0535
     34 H          40.2608    1.3003    2.0656 H         1 Q17         0.0535
     35 H          40.8722    3.7497    1.5712 H         1 Q17         0.0338
     36 H          41.9880    3.7077    2.9783 H         1 Q17         0.0338
     37 H          39.8341    3.0130    4.3356 H         1 Q17         0.0814
     38 H          38.9488    3.7006    2.9320 H         1 Q17         0.0814
     39 H          39.4029    5.3543    4.6050 H         1 Q17         0.1994
     40 H          40.2122    5.7142    3.2176 H         1 Q17         0.1994
     41 H          41.0235    5.0842    4.5039 H         1 Q17         0.1994
@<TRIPOS>BOND
     1    1    2 ar 
     2    1    6 ar 
     3    2    3 ar 
     4    3    4 ar 
     5    4    5 ar 
     6    5    6 ar 
     7    5    8 1  
     8    6    7 1  
     9    8    9 ar 
    10    8   13 ar 
    11    9   10 ar 
    12   10   11 ar 
    13   10   18 1  
    14   11   12 ar 
    15   11   17 ar 
    16   12   13 ar 
    17   12   14 ar 
    18   14   15 ar 
    19   15   16 ar 
    20   16   17 ar 
    21   18   19 1  
    22   19   20 1  
    23   20   21 1  
    24   21   22 1  
    25    1   23 1  
    26    2   24 1  
    27    3   25 1  
    28    4   26 1  
    29    7   27 1  
    30   14   28 1  
    31   15   29 1  
    32   16   30 1  
    33   17   31 1  
    34   18   32 1  
    35   19   33 1  
    36   19   34 1  
    37   20   35 1  
    38   20   36 1  
    39   21   37 1  
    40   21   38 1  
    41   22   39 1  
    42   22   40 1  
    43   22   41 1  
@<TRIPOS>SUBSTRUCTURE
     1 Q17         1

