### 
### Created by X-TOOL on Mon Sep 10 21:13:14 2018
### 

@<TRIPOS>MOLECULE
4lmn_ligand
   52    55     1     0     0
SMALL
GAST_HUCK


@<TRIPOS>ATOM
      1 O20        31.0770   29.6450  -15.3670 O.2       1 EUI        -0.3933
      2 C18        31.5660   30.1470  -14.3750 C.2       1 EUI         0.1965
      3 C15        33.0200   30.5610  -14.3070 C.ar      1 EUI         0.0661
      4 C14        33.3750   31.5310  -13.3630 C.ar      1 EUI        -0.0575
      5 C13        34.6890   31.9550  -13.1910 C.ar      1 EUI        -0.0361
      6 C12        35.6640   31.4300  -14.0080 C.ar      1 EUI         0.1606
      7 F17        36.9300   31.8790  -13.9030 F         1 EUI        -0.1839
      8 C11        35.3220   30.5050  -14.9930 C.ar      1 EUI         0.1914
      9 F16        36.3240   30.0440  -15.7480 F         1 EUI        -0.1912
     10 C10        34.0150   30.0080  -15.1240 C.ar      1 EUI         0.1118
     11 N9         33.6740   29.0820  -16.0710 N.pl3     1 EUI        -0.2701
     12 C5         34.3230   27.9110  -16.4230 C.ar      1 EUI         0.0959
     13 C4         35.4650   27.4330  -15.7580 C.ar      1 EUI        -0.0381
     14 C3         36.1250   26.3000  -16.1910 C.ar      1 EUI        -0.0653
     15 C2         35.6280   25.5730  -17.2810 C.ar      1 EUI        -0.0049
     16 I8         36.5990   23.7960  -17.8720 I         1 EUI        -0.0608
     17 C6         33.8340   27.1870  -17.5190 C.ar      1 EUI         0.1560
     18 F7         32.7190   27.5980  -18.1550 F         1 EUI        -0.1906
     19 C1         34.4720   26.0160  -17.9340 C.ar      1 EUI        -0.0275
     20 N19        30.7180   30.3710  -13.2740 N.am      1 EUI        -0.2691
     21 C23        30.9470   29.9010  -11.8810 C.3       1 EUI         0.0691
     22 C22        29.4700   29.6760  -11.6830 C.3       1 EUI         0.1481
     23 C21        29.3090   29.9030  -13.1670 C.3       1 EUI         0.0691
     24 O24        29.2240   28.3190  -11.3270 O.3       1 EUI        -0.3791
     25 C25        28.7380   30.7080  -10.7950 C.3       1 EUI         0.0106
     26 C30        29.0730   32.2030  -11.0660 C.3       1 EUI        -0.0067
     27 C29        28.2980   33.1320  -10.1330 C.3       1 EUI        -0.0431
     28 C28        28.3950   32.7340   -8.6500 C.3       1 EUI        -0.0124
     29 C27        28.1470   31.2380   -8.4060 C.3       1 EUI        -0.0333
     30 N26        28.9000   30.4270   -9.3550 N.4       1 EUI         0.2313
     31 H1         32.5993   31.9673  -12.7442 H         1 EUI         0.0594
     32 H2         34.9396   32.6841  -12.4289 H         1 EUI         0.0506
     33 H3         32.8119   29.2847  -16.5970 H         1 EUI         0.2092
     34 H4         35.8349   27.9640  -14.8883 H         1 EUI         0.0524
     35 H5         37.0276   25.9729  -15.6877 H         1 EUI         0.0579
     36 H6         34.0703   25.4479  -18.7652 H         1 EUI         0.0598
     37 H7         31.3729   30.6678  -11.2173 H         1 EUI         0.0552
     38 H8         31.5494   28.9830  -11.8147 H         1 EUI         0.0552
     39 H9         29.0998   28.9861  -13.7375 H         1 EUI         0.0552
     40 H10        28.5641   30.6713  -13.4216 H         1 EUI         0.0552
     41 H11        29.3341   28.2138  -10.3893 H         1 EUI         0.2106
     42 H12        27.6690   30.5881  -11.0249 H         1 EUI         0.0880
     43 H13        28.8121   32.4441  -12.1070 H         1 EUI         0.0321
     44 H14        30.1507   32.3608  -10.9121 H         1 EUI         0.0321
     45 H15        27.2386   33.1175  -10.4286 H         1 EUI         0.0269
     46 H16        28.6965   34.1510  -10.2466 H         1 EUI         0.0269
     47 H17        27.6470   33.3089   -8.0844 H         1 EUI         0.0317
     48 H18        29.4023   32.9850   -8.2861 H         1 EUI         0.0317
     49 H19        27.0739   31.0265   -8.5228 H         1 EUI         0.0814
     50 H20        28.4620   30.9822   -7.3836 H         1 EUI         0.0814
     51 H21        29.8773   30.5412   -9.1363 H         1 EUI         0.2017
     52 H22        28.6323   29.4667   -9.2059 H         1 EUI         0.2017
@<TRIPOS>BOND
     1    1    2 2  
     2    2    3 1  
     3    2   20 am 
     4    3    4 ar 
     5    3   10 ar 
     6    4    5 ar 
     7    5    6 ar 
     8    6    7 1  
     9    6    8 ar 
    10    8    9 1  
    11    8   10 ar 
    12   10   11 1  
    13   11   12 1  
    14   12   13 ar 
    15   12   17 ar 
    16   13   14 ar 
    17   14   15 ar 
    18   15   16 1  
    19   15   19 ar 
    20   17   18 1  
    21   17   19 ar 
    22   20   21 1  
    23   20   23 1  
    24   21   22 1  
    25   22   23 1  
    26   22   24 1  
    27   22   25 1  
    28   25   26 1  
    29   25   30 1  
    30   26   27 1  
    31   27   28 1  
    32   28   29 1  
    33   29   30 1  
    34    4   31 1  
    35    5   32 1  
    36   11   33 1  
    37   13   34 1  
    38   14   35 1  
    39   19   36 1  
    40   21   37 1  
    41   21   38 1  
    42   23   39 1  
    43   23   40 1  
    44   24   41 1  
    45   25   42 1  
    46   26   43 1  
    47   26   44 1  
    48   27   45 1  
    49   27   46 1  
    50   28   47 1  
    51   28   48 1  
    52   29   49 1  
    53   29   50 1  
    54   30   51 1  
    55   30   52 1  
@<TRIPOS>SUBSTRUCTURE
     1 EUI         1

