### 
### Created by X-TOOL on Mon Sep 10 21:13:17 2018
### 

@<TRIPOS>MOLECULE
4lmu_ligand
   32    34     1     0     0
SMALL
GAST_HUCK


@<TRIPOS>ATOM
      1 C1        169.7150 -122.8210    0.6660 C.ar      1 QUE        -0.0095
      2 C2        169.7830 -122.9090   -0.7420 C.ar      1 QUE         0.0929
      3 C3        169.4160 -121.8060   -1.6030 C.ar      1 QUE         0.0821
      4 C4        168.9810 -120.6070   -1.0100 C.ar      1 QUE         0.1195
      5 C5        168.9080 -120.5050    0.4370 C.ar      1 QUE        -0.0058
      6 C6        169.2720 -121.5990    1.2900 C.ar      1 QUE         0.0765
      7 C9        169.4770 -121.8330   -3.1020 C.2       1 QUE         0.1514
      8 C10       169.0920 -120.6940   -3.9860 C.2       1 QUE         0.1690
      9 C11       168.8240 -119.5050   -3.2930 C.2       1 QUE         0.1629
     10 C14       168.5060 -118.1540   -4.0060 C.2       1 QUE         0.0079
     11 C15       168.8180 -117.9450   -5.3630 C.2       1 QUE        -0.0700
     12 C16       168.5160 -116.6890   -5.9740 C.2       1 QUE        -0.0388
     13 C17       167.9120 -115.6340   -5.2560 C.2       1 QUE         0.1377
     14 C18       167.5840 -115.7940   -3.8800 C.2       1 QUE         0.1590
     15 C19       167.9030 -117.0610   -3.3090 C.3       1 QUE         0.0562
     16 O12       168.6270 -119.5450   -1.8880 O.3       1 QUE        -0.2588
     17 O13       169.9130 -122.8830   -3.6500 O.2       1 QUE        -0.4115
     18 O23       167.0260 -114.8300   -3.1980 O.2       1 QUE        -0.3938
     19 O24       167.6520 -114.4560   -5.9200 O.3       1 QUE        -0.3273
     20 O27       169.3000 -120.7290   -5.3400 O.3       1 QUE        -0.3330
     21 O29       169.2040 -121.5070    2.6730 O.3       1 QUE        -0.3353
     22 O30       170.2020 -124.0420   -1.4190 O.3       1 QUE        -0.3328
     23 H         169.9956 -123.6714    1.2769 H         1 QUE         0.0396
     24 H         168.5694 -119.5774    0.8841 H         1 QUE         0.0393
     25 H         169.2875 -118.7371   -5.9444 H         1 QUE         0.0443
     26 H         168.7591 -116.5411   -7.0252 H         1 QUE         0.0494
     27 H         168.5801 -116.8407   -2.4705 H         1 QUE         0.0660
     28 H         166.9520 -117.4528   -2.9192 H         1 QUE         0.0660
     29 H         167.9366 -114.5334   -6.8231 H         1 QUE         0.2506
     30 H         169.4642 -121.6246   -5.6110 H         1 QUE         0.2465
     31 H         169.4841 -122.3290    3.0581 H         1 QUE         0.2494
     32 H         170.9651 -123.8316   -1.9443 H         1 QUE         0.2503
@<TRIPOS>BOND
     1    1    2 ar 
     2    1    6 ar 
     3    2    3 ar 
     4    2   22 1  
     5    3    4 ar 
     6    3    7 1  
     7    4    5 ar 
     8    4   16 1  
     9    5    6 ar 
    10    6   21 1  
    11    7    8 1  
    12    7   17 2  
    13    8    9 2  
    14    8   20 1  
    15    9   10 1  
    16    9   16 1  
    17   10   11 2  
    18   10   15 1  
    19   11   12 1  
    20   12   13 2  
    21   13   14 1  
    22   13   19 1  
    23   14   15 1  
    24   14   18 2  
    25    1   23 1  
    26    5   24 1  
    27   11   25 1  
    28   12   26 1  
    29   15   27 1  
    30   15   28 1  
    31   19   29 1  
    32   20   30 1  
    33   21   31 1  
    34   22   32 1  
@<TRIPOS>SUBSTRUCTURE
     1 QUE         1

