### 
### Created by X-TOOL on Mon Sep 10 21:13:13 2018
### 

@<TRIPOS>MOLECULE
4ln7_ligand
   33    35     1     0     0
SMALL
GAST_HUCK


@<TRIPOS>ATOM
      1 O01         9.3570   20.0570   -8.3030 O.3       1 1ZQ        -0.3186
      2 C02         9.9160   20.8670   -9.2440 C.ar      1 1ZQ         0.1924
      3 C03        10.3090   22.1210   -8.8160 C.ar      1 1ZQ         0.1458
      4 O04        10.1010   22.4330   -7.4890 O.3       1 1ZQ        -0.3285
      5 C05        10.9130   22.9900   -9.7160 C.ar      1 1ZQ        -0.0149
      6 C06        11.0970   22.5480  -11.0160 C.ar      1 1ZQ        -0.0069
      7 C07        11.7560   23.5070  -11.9400 C.ar      1 1ZQ        -0.0235
      8 C08        13.0430   23.2330  -12.3950 C.ar      1 1ZQ        -0.0565
      9 C09        13.6690   24.1450  -13.2430 C.ar      1 1ZQ        -0.0278
     10 C10        13.0180   25.3130  -13.6120 C.ar      1 1ZQ         0.1325
     11 F11        13.6280   26.1760  -14.4290 F         1 1ZQ        -0.1832
     12 C12        11.7370   25.5780  -13.1340 C.ar      1 1ZQ        -0.0278
     13 C13        11.1000   24.6810  -12.2770 C.ar      1 1ZQ        -0.0565
     14 C14        10.6790   21.2650  -11.3880 C.ar      1 1ZQ         0.0343
     15 C15        10.8590   20.6860  -12.7510 C.ar      1 1ZQ        -0.0143
     16 C16        11.4430   19.4220  -12.8600 C.ar      1 1ZQ        -0.0552
     17 C17        11.6480   18.8150  -14.1040 C.ar      1 1ZQ        -0.0270
     18 C18        11.2590   19.4960  -15.2450 C.ar      1 1ZQ         0.1333
     19 F19        11.4270   18.9520  -16.4620 F         1 1ZQ        -0.1826
     20 C20        10.6740   20.7510  -15.1320 C.ar      1 1ZQ        -0.0270
     21 C21        10.4690   21.3630  -13.9070 C.ar      1 1ZQ        -0.0552
     22 N22        10.1180   20.4630  -10.4770 N.ar      1 1ZQ        -0.2796
     23 H1          9.2944   20.5265   -7.4795 H         1 1ZQ         0.2503
     24 H2         10.5769   21.8190   -6.9421 H         1 1ZQ         0.2474
     25 H3         11.2298   23.9809   -9.4112 H         1 1ZQ         0.0618
     26 H4         13.5507   22.3237  -12.0942 H         1 1ZQ         0.0609
     27 H5         14.6666   23.9411  -13.6149 H         1 1ZQ         0.0605
     28 H6         11.2307   26.4894  -13.4307 H         1 1ZQ         0.0605
     29 H7         10.1135   24.8970  -11.8830 H         1 1ZQ         0.0609
     30 H8         11.7445   18.8989  -11.9597 H         1 1ZQ         0.0616
     31 H9         12.1016   17.8329  -14.1729 H         1 1ZQ         0.0606
     32 H10        10.3676   21.2688  -16.0337 H         1 1ZQ         0.0606
     33 H11        10.0158   22.3459  -13.8474 H         1 1ZQ         0.0616
@<TRIPOS>BOND
     1    1    2 1  
     2    2    3 ar 
     3    2   22 ar 
     4    3    4 1  
     5    3    5 ar 
     6    5    6 ar 
     7    6    7 1  
     8    6   14 ar 
     9    7    8 ar 
    10    7   13 ar 
    11    8    9 ar 
    12    9   10 ar 
    13   10   11 1  
    14   10   12 ar 
    15   12   13 ar 
    16   14   15 1  
    17   14   22 ar 
    18   15   16 ar 
    19   15   21 ar 
    20   16   17 ar 
    21   17   18 ar 
    22   18   19 1  
    23   18   20 ar 
    24   20   21 ar 
    25    1   23 1  
    26    4   24 1  
    27    5   25 1  
    28    8   26 1  
    29    9   27 1  
    30   12   28 1  
    31   13   29 1  
    32   16   30 1  
    33   17   31 1  
    34   20   32 1  
    35   21   33 1  
@<TRIPOS>SUBSTRUCTURE
     1 1ZQ         1

