### 
### Created by X-TOOL on Mon Sep 10 21:13:14 2018
### 

@<TRIPOS>MOLECULE
4lnf_ligand
   20    19     1     0     0
SMALL
GAST_HUCK


@<TRIPOS>ATOM
      1 N          17.0580   30.8560  -26.2610 N.4       1 GLN         0.2328
      2 CA         16.7050   32.0090  -27.0930 C.3       1 GLN         0.0304
      3 C          16.1930   31.6160  -28.4700 C.2       1 GLN         0.0846
      4 O          16.4080   32.3694  -29.4568 O.co2     1 GLN        -0.5643
      5 CB         17.8930   32.9590  -27.2370 C.3       1 GLN         0.0192
      6 CG         18.1240   33.8060  -26.0030 C.3       1 GLN         0.0437
      7 CD         19.4450   34.5370  -26.0410 C.2       1 GLN         0.1738
      8 OE1        20.3310   34.2830  -25.2290 O.2       1 GLN        -0.3973
      9 NE2        19.5870   35.4530  -26.9880 N.am      1 GLN        -0.3009
     10 O          15.5556   30.5400  -28.6236 O.co2     1 GLN        -0.5643
     11 H1         17.3892   31.1772  -25.3648 H         1 GLN         0.2010
     12 H2         17.7827   30.3229  -26.7156 H         1 GLN         0.2010
     13 H3         16.2450   30.2746  -26.1301 H         1 GLN         0.2010
     14 H4         15.8965   32.5498  -26.5793 H         1 GLN         0.1026
     15 H5         17.7068   33.6268  -28.0910 H         1 GLN         0.0363
     16 H6         18.7977   32.3631  -27.4279 H         1 GLN         0.0363
     17 H7         18.1082   33.1522  -25.1186 H         1 GLN         0.0505
     18 H8         17.3137   34.5460  -25.9265 H         1 GLN         0.0505
     19 H9         20.4408   35.9685  -27.0610 H         1 GLN         0.1814
     20 H10        18.8404   35.6288  -27.6296 H         1 GLN         0.1814
@<TRIPOS>BOND
     1    1    2 1  
     2    2    3 1  
     3    2    5 1  
     4    3    4 ar 
     5    5    6 1  
     6    6    7 1  
     7    7    8 2  
     8    7    9 am 
     9    3   10 ar 
    10    1   11 1  
    11    1   12 1  
    12    1   13 1  
    13    2   14 1  
    14    5   15 1  
    15    5   16 1  
    16    6   17 1  
    17    6   18 1  
    18    9   19 1  
    19    9   20 1  
@<TRIPOS>SUBSTRUCTURE
     1 GLN         1

