### 
### Created by X-TOOL on Mon Sep 10 21:13:16 2018
### 

@<TRIPOS>MOLECULE
4lng_ligand
   62    66     1     0     0
SMALL
GAST_HUCK


@<TRIPOS>ATOM
      1 C1         26.4840   -2.7060    6.8600 C.3       1 JAN         0.0523
      2 N1         25.1360   -2.2490    6.2880 N.2       1 JAN        -0.2722
      3 C2         24.2120   -1.9740    7.1620 C.2       1 JAN         0.2441
      4 N2         23.2430   -1.4340    6.5670 N.pl3     1 JAN        -0.2086
      5 C3         23.3160   -1.3510    5.1560 C.3       1 JAN         0.0935
      6 C4         24.7480   -1.7340    5.0100 C.3       1 JAN         0.0837
      7 C5         25.5990   -1.9410    3.5940 C.3       1 JAN        -0.0448
      8 C6         25.9760   -3.4610    3.6110 C.ar      1 JAN        -0.0850
      9 C7         24.9940   -4.3610    3.8350 C.ar      1 JAN        -0.0693
     10 C8         25.0850   -5.7530    3.6350 C.ar      1 JAN        -0.0411
     11 C9         26.4620   -5.8080    2.9500 C.ar      1 JAN         0.0490
     12 CL1        26.5860   -7.6860    2.4800 Cl        1 JAN        -0.0624
     13 C10        27.3760   -5.0460    2.7180 C.ar      1 JAN        -0.0411
     14 C11        27.1350   -3.6740    3.0940 C.ar      1 JAN        -0.0693
     15 N3         26.8180   -1.2690    3.9060 N.4       1 JAN         0.0810
     16 C12        24.5910   -1.3910    2.5750 C.2       1 JAN        -0.0779
     17 C13        24.2740   -2.1660    1.6540 C.2       1 JAN        -0.0301
     18 C14        23.6050   -1.5640    0.6080 C.2       1 JAN         0.0796
     19 C15        24.5260   -0.0180    2.7100 C.3       1 JAN        -0.0091
     20 C16        23.5720    0.6780    1.6170 C.3       1 JAN         0.0599
     21 C17        23.1010   -0.4510    0.6580 C.2       1 JAN         0.1623
     22 N4         22.3620    0.2910   -0.3730 N.am      1 JAN        -0.1626
     23 C18        21.9580    1.7970   -0.1870 C.3       1 JAN         0.0738
     24 C19        21.7100   -0.4820   -1.2810 C.2       1 JAN         0.2420
     25 O1         20.9700    0.1280   -2.0920 O.2       1 JAN        -0.3813
     26 C20        22.1260   -1.8020   -1.2470 C.2       1 JAN         0.0177
     27 C21        23.0900   -2.3800   -0.4950 C.2       1 JAN         0.0074
     28 C22        23.4000   -3.8110   -0.5700 C.ar      1 JAN        -0.0106
     29 C23        22.9000   -4.7160    0.4720 C.ar      1 JAN        -0.0365
     30 C24        23.3140   -6.0040    0.1460 C.ar      1 JAN         0.0436
     31 CL2        22.7950   -7.2130    1.3520 Cl        1 JAN        -0.0700
     32 C25        24.2280   -6.5380   -0.9120 C.ar      1 JAN        -0.0454
     33 C26        24.4220   -5.5200   -1.9230 C.ar      1 JAN        -0.0580
     34 C27        24.0910   -4.2940   -1.6380 C.ar      1 JAN        -0.0504
     35 H          26.3475   -3.0378    7.8998 H         1 JAN         0.0579
     36 H          27.1967   -1.8685    6.8330 H         1 JAN         0.0579
     37 H          26.8744   -3.5394    6.2575 H         1 JAN         0.0579
     38 H          24.2677   -2.1772    8.2304 H         1 JAN         0.2305
     39 H          22.4314   -1.0681    7.0850 H         1 JAN         0.2831
     40 H          23.1149   -0.3349    4.7857 H         1 JAN         0.0698
     41 H          22.6400   -2.0627    4.6595 H         1 JAN         0.0698
     42 H          25.1529   -0.7218    5.1568 H         1 JAN         0.0473
     43 H          24.0491   -3.9773    4.2024 H         1 JAN         0.0666
     44 H          24.3922   -6.5474    3.8880 H         1 JAN         0.0644
     45 H          28.3044   -5.3710    2.2624 H         1 JAN         0.0644
     46 H          27.8687   -2.8886    2.9528 H         1 JAN         0.0666
     47 H          27.4410   -1.3188    3.1152 H         1 JAN         0.1913
     48 H          27.2504   -1.7099    4.7026 H         1 JAN         0.1913
     49 H          26.6240   -0.3034    4.1206 H         1 JAN         0.1913
     50 H          24.5053   -3.2300    1.6722 H         1 JAN         0.0953
     51 H          25.5405    0.3931    2.6019 H         1 JAN         0.0462
     52 H          24.1398    0.2175    3.7127 H         1 JAN         0.0462
     53 H          24.1303    1.4431    1.0576 H         1 JAN         0.0669
     54 H          22.7058    1.1434    2.1101 H         1 JAN         0.0669
     55 H          22.5932    2.2542    0.5860 H         1 JAN         0.0640
     56 H          20.9038    1.8585    0.1211 H         1 JAN         0.0640
     57 H          22.0941    2.3333   -1.1377 H         1 JAN         0.0640
     58 H          21.6002   -2.4729   -1.9248 H         1 JAN         0.0553
     59 H          22.3141   -4.4323    1.3388 H         1 JAN         0.0653
     60 H          24.6726   -7.5266   -0.9200 H         1 JAN         0.0643
     61 H          24.8329   -5.7728   -2.8937 H         1 JAN         0.0624
     62 H          24.4128   -3.5488   -2.3564 H         1 JAN         0.0648
@<TRIPOS>BOND
     1    1    2 1  
     2    2    3 2  
     3    2    6 1  
     4    3    4 1  
     5    4    5 1  
     6    5    6 1  
     7    6    7 1  
     8    7    8 1  
     9    7   15 1  
    10    7   16 1  
    11    8    9 ar 
    12    8   14 ar 
    13    9   10 ar 
    14   10   11 ar 
    15   11   12 1  
    16   11   13 ar 
    17   13   14 ar 
    18   16   17 2  
    19   16   19 1  
    20   17   18 1  
    21   18   21 2  
    22   18   27 1  
    23   19   20 1  
    24   20   21 1  
    25   21   22 1  
    26   22   23 1  
    27   22   24 am 
    28   24   25 2  
    29   24   26 1  
    30   26   27 2  
    31   27   28 1  
    32   28   29 ar 
    33   28   34 ar 
    34   29   30 ar 
    35   30   31 1  
    36   30   32 ar 
    37   32   33 ar 
    38   33   34 ar 
    39    1   35 1  
    40    1   36 1  
    41    1   37 1  
    42    3   38 1  
    43    4   39 1  
    44    5   40 1  
    45    5   41 1  
    46    6   42 1  
    47    9   43 1  
    48   10   44 1  
    49   13   45 1  
    50   14   46 1  
    51   15   47 1  
    52   15   48 1  
    53   15   49 1  
    54   17   50 1  
    55   19   51 1  
    56   19   52 1  
    57   20   53 1  
    58   20   54 1  
    59   23   55 1  
    60   23   56 1  
    61   23   57 1  
    62   26   58 1  
    63   29   59 1  
    64   32   60 1  
    65   33   61 1  
    66   34   62 1  
@<TRIPOS>SUBSTRUCTURE
     1 JAN         1

