### 
### Created by X-TOOL on Mon Sep 10 21:13:14 2018
### 

@<TRIPOS>MOLECULE
4lno_ligand
   20    19     1     0     0
SMALL
GAST_HUCK


@<TRIPOS>ATOM
      1 N         -29.4320   30.3370   30.2690 N.4       1 GLN         0.2328
      2 CA        -29.1920   31.5660   29.5240 C.3       1 GLN         0.0304
      3 C         -29.0750   31.2940   28.0330 C.2       1 GLN         0.0846
      4 O         -30.0965   31.2899   27.2953 O.co2     1 GLN        -0.5643
      5 CB        -27.9140   32.2160   30.0070 C.3       1 GLN         0.0192
      6 CG        -27.5050   33.3830   29.2130 C.3       1 GLN         0.0437
      7 CD        -26.2340   33.9500   29.7330 C.2       1 GLN         0.1738
      8 OE1       -26.1650   34.3510   30.8890 O.2       1 GLN        -0.3973
      9 NE2       -25.2080   33.9870   28.8920 N.am      1 GLN        -0.3009
     10 O         -27.9424   31.0699   27.5285 O.co2     1 GLN        -0.5643
     11 H1        -29.5048   30.5487   31.2518 H         1 GLN         0.2010
     12 H2        -28.6670   29.6981   30.1187 H         1 GLN         0.2010
     13 H3        -30.2903   29.9140   29.9519 H         1 GLN         0.2010
     14 H4        -30.0339   32.2528   29.6954 H         1 GLN         0.1026
     15 H5        -27.1078   31.4688   29.9657 H         1 GLN         0.0363
     16 H6        -28.0614   32.5393   31.0480 H         1 GLN         0.0363
     17 H7        -28.2915   34.1501   29.2663 H         1 GLN         0.0505
     18 H8        -27.3624   33.0761   28.1664 H         1 GLN         0.0505
     19 H9        -24.3293   34.3589   29.1913 H         1 GLN         0.1814
     20 H10       -25.3136   33.6430   27.9590 H         1 GLN         0.1814
@<TRIPOS>BOND
     1    1    2 1  
     2    2    3 1  
     3    2    5 1  
     4    3    4 ar 
     5    5    6 1  
     6    6    7 1  
     7    7    8 2  
     8    7    9 am 
     9    3   10 ar 
    10    1   11 1  
    11    1   12 1  
    12    1   13 1  
    13    2   14 1  
    14    5   15 1  
    15    5   16 1  
    16    6   17 1  
    17    6   18 1  
    18    9   19 1  
    19    9   20 1  
@<TRIPOS>SUBSTRUCTURE
     1 GLN         1

