### 
### Created by X-TOOL on Mon Sep 10 21:13:16 2018
### 

@<TRIPOS>MOLECULE
4lnw_ligand
   35    36     1     0     0
SMALL
GAST_HUCK


@<TRIPOS>ATOM
      1 C1         25.9190   37.5680   34.3380 C.ar      1 T3         -0.0403
      2 C2         28.0990   38.7760   30.0070 C.ar      1 T3          0.1078
      3 C3         26.2690   38.9020   34.0710 C.ar      1 T3         -0.0541
      4 C4         28.4110   39.7640   29.0650 C.ar      1 T3         -0.0257
      5 C5         26.5590   39.2560   32.7720 C.ar      1 T3          0.0381
      6 C6         29.6880   39.8210   28.5390 C.ar      1 T3          0.0300
      7 C7         26.5270   38.3280   31.7460 C.ar      1 T3          0.1288
      8 C8         30.6810   38.9510   28.8920 C.ar      1 T3          0.0884
      9 C9         26.1690   36.9910   31.9770 C.ar      1 T3          0.0381
     10 C10        30.3890   37.9440   29.8330 C.ar      1 T3         -0.0376
     11 C11        25.8850   36.6420   33.3000 C.ar      1 T3         -0.0541
     12 C12        29.0930   37.8690   30.3780 C.ar      1 T3         -0.0341
     13 C13        25.6120   37.1900   35.7630 C.3       1 T3          0.0324
     14 C15        24.4990   36.1670   35.8910 C.3       1 T3          0.0365
     15 C17        24.1450   36.0300   37.3430 C.2       1 T3          0.0864
     16 I1         27.0420   41.3000   32.4200 I         1 T3         -0.0570
     17 I2         30.1400   41.3490   27.1140 I         1 T3         -0.0593
     18 I3         26.0500   35.5540   30.4010 I         1 T3         -0.0570
     19 N1         23.2940   36.5750   35.2090 N.4       1 T3          0.2340
     20 O1         31.9270   39.0810   28.3020 O.3       1 T3         -0.3376
     21 O2         26.7880   38.7410   30.4620 O.3       1 T3         -0.2645
     22 O3         22.9420   36.0640   37.7190 O.co2     1 T3         -0.5641
     23 O4         25.0540   35.8630   38.1930 O.co2     1 T3         -0.5641
     24 H          26.3099   39.6353   34.8683 H         1 T3          0.0581
     25 H          27.6579   40.4777   28.7511 H         1 T3          0.0555
     26 H          31.1526   37.2358   30.1337 H         1 T3          0.0525
     27 H          25.6291   35.6131   33.5257 H         1 T3          0.0581
     28 H          28.8629   37.0928   31.0988 H         1 T3          0.0548
     29 H          25.3146   38.0981   36.3079 H         1 T3          0.0481
     30 H          26.5229   36.7721   36.2164 H         1 T3          0.0481
     31 H          24.8435   35.2036   35.4872 H         1 T3          0.1046
     32 H          22.5870   35.8655   35.3226 H         1 T3          0.2012
     33 H          23.4892   36.7007   34.2281 H         1 T3          0.2012
     34 H          22.9642   37.4436   35.6000 H         1 T3          0.2012
     35 H          32.1355   38.2855   27.8265 H         1 T3          0.2458
@<TRIPOS>BOND
     1    3    1 ar 
     2    1   11 ar 
     3    1   13 1  
     4    2    4 ar 
     5    2   12 ar 
     6   21    2 1  
     7    5    3 ar 
     8    4    6 ar 
     9    7    5 ar 
    10    5   16 1  
    11    6    8 ar 
    12    6   17 1  
    13    7    9 ar 
    14    7   21 1  
    15    8   10 ar 
    16    8   20 1  
    17    9   11 ar 
    18    9   18 1  
    19   10   12 ar 
    20   13   14 1  
    21   14   15 1  
    22   14   19 1  
    23   15   22 ar 
    24   15   23 ar 
    25    3   24 1  
    26    4   25 1  
    27   10   26 1  
    28   11   27 1  
    29   12   28 1  
    30   13   29 1  
    31   13   30 1  
    32   14   31 1  
    33   19   32 1  
    34   19   33 1  
    35   19   34 1  
    36   20   35 1  
@<TRIPOS>SUBSTRUCTURE
     1 T3          1

