### 
### Created by X-TOOL on Mon Sep 10 21:13:14 2018
### 

@<TRIPOS>MOLECULE
4loo_ligand
   45    48     1     0     0
SMALL
GAST_HUCK


@<TRIPOS>ATOM
      1 CA1        23.0370  -20.8010   27.2090 C.3       1 SB4         0.0186
      2 CA2        23.6910  -20.8480   25.8680 C.3       1 SB4        -0.0308
      3 NA3        22.8030  -20.1890   24.9040 N.4       1 SB4         0.2271
      4 CA4        21.4880  -20.7580   24.7150 C.3       1 SB4        -0.0308
      5 CA5        20.8280  -20.6120   26.0840 C.3       1 SB4         0.0186
      6 CA6        21.6040  -21.3770   27.1080 C.3       1 SB4         0.0804
      7 CB1        20.8000  -22.7180   32.5220 C.ar      1 SB4        -0.0583
      8 CB2        20.4530  -23.1400   33.7810 C.ar      1 SB4        -0.0294
      9 CB3        19.1580  -22.8390   34.1860 C.ar      1 SB4         0.1310
     10 CB4        18.3490  -22.0970   33.3870 C.ar      1 SB4        -0.0294
     11 CB5        18.7230  -21.6040   32.1600 C.ar      1 SB4        -0.0583
     12 CB6        20.0220  -21.8990   31.7140 C.ar      1 SB4        -0.0208
     13 FB7        18.7260  -23.3470   35.3320 F         1 SB4        -0.1843
     14 CC1        20.3980  -24.3440   29.6810 C.ar      1 SB4        -0.0212
     15 CC2        21.2720  -23.3910   29.2160 C.ar      1 SB4         0.0712
     16 NC3        22.4510  -23.8180   28.5540 N.ar      1 SB4        -0.2583
     17 CC4        22.7050  -25.1130   28.3330 C.ar      1 SB4         0.1794
     18 NC5        21.8810  -26.0280   28.8270 N.ar      1 SB4        -0.2627
     19 CC6        20.6580  -25.6770   29.4900 C.ar      1 SB4         0.0073
     20 NC7        23.8150  -25.4990   27.6870 N.pl3     1 SB4        -0.3045
     21 ND1        21.0640  -21.1690   28.4290 N.pl3     1 SB4        -0.2316
     22 CD2        20.6100  -19.9850   28.8970 C.2       1 SB4         0.1086
     23 ND3        20.1570  -20.1610   30.1480 N.2       1 SB4        -0.3026
     24 CD4        20.4200  -21.4280   30.5040 C.2       1 SB4         0.0462
     25 CD5        20.9370  -22.0740   29.4060 C.2       1 SB4         0.1151
     26 H1         22.9888  -19.7585   27.5565 H         1 SB4         0.0348
     27 H2         23.6224  -21.3989   27.9230 H         1 SB4         0.0348
     28 H3         23.8546  -21.8940   25.5695 H         1 SB4         0.0815
     29 H4         24.6564  -20.3221   25.9054 H         1 SB4         0.0815
     30 H5         23.2677  -20.1978   24.0096 H         1 SB4         0.2013
     31 H6         22.6793  -19.2363   25.2090 H         1 SB4         0.2013
     32 H7         21.5571  -21.8166   24.4242 H         1 SB4         0.0815
     33 H8         20.9273  -20.2030   23.9485 H         1 SB4         0.0815
     34 H9         19.8011  -21.0035   26.0373 H         1 SB4         0.0348
     35 H10        20.8027  -19.5488   26.3651 H         1 SB4         0.0348
     36 H11        21.6170  -22.4458   26.8481 H         1 SB4         0.0662
     37 H12        21.7541  -23.0492   32.1282 H         1 SB4         0.0595
     38 H13        21.1461  -23.6750   34.4200 H         1 SB4         0.0601
     39 H14        17.3467  -21.8802   33.7385 H         1 SB4         0.0601
     40 H15        18.0424  -21.0108   31.5599 H         1 SB4         0.0595
     41 H16        19.4973  -24.0403   30.2021 H         1 SB4         0.0638
     42 H17        19.9642  -26.4383   29.8279 H         1 SB4         0.0868
     43 H18        24.4583  -24.7930   27.3014 H         1 SB4         0.1824
     44 H19        24.0242  -26.5014   27.5764 H         1 SB4         0.1824
     45 H20        20.6115  -19.0437   28.3494 H         1 SB4         0.1311
@<TRIPOS>BOND
     1    1    2 1  
     2    6    1 1  
     3    2    3 1  
     4    4    3 1  
     5    5    4 1  
     6    6    5 1  
     7   21    6 1  
     8    7    8 ar 
     9   12    7 ar 
    10    8    9 ar 
    11   10    9 ar 
    12    9   13 1  
    13   11   10 ar 
    14   12   11 ar 
    15   24   12 1  
    16   15   14 ar 
    17   14   19 ar 
    18   15   16 ar 
    19   25   15 1  
    20   16   17 ar 
    21   17   18 ar 
    22   17   20 1  
    23   19   18 ar 
    24   22   21 1  
    25   21   25 1  
    26   23   22 2  
    27   23   24 1  
    28   24   25 2  
    29    1   26 1  
    30    1   27 1  
    31    2   28 1  
    32    2   29 1  
    33    3   30 1  
    34    3   31 1  
    35    4   32 1  
    36    4   33 1  
    37    5   34 1  
    38    5   35 1  
    39    6   36 1  
    40    7   37 1  
    41    8   38 1  
    42   10   39 1  
    43   11   40 1  
    44   14   41 1  
    45   19   42 1  
    46   20   43 1  
    47   20   44 1  
    48   22   45 1  
@<TRIPOS>SUBSTRUCTURE
     1 SB4         1

