### 
### Created by X-TOOL on Mon Sep 10 21:13:12 2018
### 

@<TRIPOS>MOLECULE
4lop_ligand
   45    48     1     0     0
SMALL
GAST_HUCK


@<TRIPOS>ATOM
      1 CA1         3.6130   -8.5220   35.7490 C.3       1 SB4         0.0186
      2 CA2         2.3570   -7.8370   36.0810 C.3       1 SB4        -0.0308
      3 NA3         2.0270   -6.9600   34.9470 N.4       1 SB4         0.2271
      4 CA4         3.1540   -6.7520   34.0070 C.3       1 SB4        -0.0308
      5 CA5         4.4620   -6.4720   34.7700 C.3       1 SB4         0.0186
      6 CA6         4.6440   -7.4810   35.8640 C.3       1 SB4         0.0804
      7 CB1         9.2600   -9.2130   38.4250 C.ar      1 SB4        -0.0583
      8 CB2        10.4990   -9.4660   39.0230 C.ar      1 SB4        -0.0294
      9 CB3        11.6410   -9.4900   38.2550 C.ar      1 SB4         0.1310
     10 CB4        11.5500   -9.2870   36.8630 C.ar      1 SB4        -0.0294
     11 CB5        10.3210   -9.0350   36.2810 C.ar      1 SB4        -0.0583
     12 CB6         9.1710   -8.9460   37.0420 C.ar      1 SB4        -0.0208
     13 FB7        12.8810   -9.7430   38.7840 F         1 SB4        -0.1843
     14 CC1         7.8510   -6.2390   38.2070 C.ar      1 SB4        -0.0212
     15 CC2         6.7780   -7.0450   37.8300 C.ar      1 SB4         0.0712
     16 NC3         5.5910   -6.8360   38.4640 N.ar      1 SB4        -0.2583
     17 CC4         5.4280   -5.8700   39.4050 C.ar      1 SB4         0.1794
     18 NC5         6.4540   -5.0810   39.7880 N.ar      1 SB4        -0.2627
     19 CC6         7.6960   -5.2670   39.2000 C.ar      1 SB4         0.0073
     20 NC7         4.2530   -5.6760   39.9720 N.pl3     1 SB4        -0.3045
     21 ND1         5.9840   -8.1490   35.8800 N.pl3     1 SB4        -0.2316
     22 CD2         6.4210   -9.0730   34.9870 C.2       1 SB4         0.1086
     23 ND3         7.6530   -9.4520   35.3230 N.2       1 SB4        -0.3026
     24 CD4         7.9900   -8.7370   36.4330 C.2       1 SB4         0.0462
     25 CD5         6.9250   -7.9810   36.8320 C.2       1 SB4         0.1151
     26 H1          3.5781   -8.9226   34.7251 H         1 SB4         0.0348
     27 H2          3.8076   -9.3412   36.4569 H         1 SB4         0.0348
     28 H3          2.4842   -7.2389   36.9954 H         1 SB4         0.0815
     29 H4          1.5547   -8.5739   36.2334 H         1 SB4         0.0815
     30 H5          1.7457   -6.0627   35.3100 H         1 SB4         0.2013
     31 H6          1.2604   -7.3721   34.4385 H         1 SB4         0.2013
     32 H7          2.9264   -5.8950   33.3560 H         1 SB4         0.0815
     33 H8          3.2819   -7.6554   33.3926 H         1 SB4         0.0815
     34 H9          4.4196   -5.4638   35.2078 H         1 SB4         0.0348
     35 H10         5.3107   -6.5336   34.0729 H         1 SB4         0.0348
     36 H11         4.5164   -6.9581   36.8233 H         1 SB4         0.0662
     37 H12         8.3601   -9.2221   39.0293 H         1 SB4         0.0595
     38 H13        10.5597   -9.6431   40.0907 H         1 SB4         0.0601
     39 H14        12.4426   -9.3284   36.2493 H         1 SB4         0.0601
     40 H15        10.2586   -8.9047   35.2067 H         1 SB4         0.0595
     41 H16         8.8140   -6.3669   37.7261 H         1 SB4         0.0638
     42 H17         8.5414   -4.6626   39.5083 H         1 SB4         0.0868
     43 H18         3.4486   -6.2604   39.7030 H         1 SB4         0.1824
     44 H19         4.1398   -4.9401   40.6837 H         1 SB4         0.1824
     45 H20         5.8557   -9.4445   34.1336 H         1 SB4         0.1311
@<TRIPOS>BOND
     1    1    2 1  
     2    6    1 1  
     3    2    3 1  
     4    4    3 1  
     5    5    4 1  
     6    6    5 1  
     7   21    6 1  
     8    7    8 ar 
     9   12    7 ar 
    10    8    9 ar 
    11   10    9 ar 
    12    9   13 1  
    13   11   10 ar 
    14   12   11 ar 
    15   24   12 1  
    16   15   14 ar 
    17   14   19 ar 
    18   15   16 ar 
    19   25   15 1  
    20   16   17 ar 
    21   17   18 ar 
    22   17   20 1  
    23   19   18 ar 
    24   22   21 1  
    25   21   25 1  
    26   23   22 2  
    27   23   24 1  
    28   24   25 2  
    29    1   26 1  
    30    1   27 1  
    31    2   28 1  
    32    2   29 1  
    33    3   30 1  
    34    3   31 1  
    35    4   32 1  
    36    4   33 1  
    37    5   34 1  
    38    5   35 1  
    39    6   36 1  
    40    7   37 1  
    41    8   38 1  
    42   10   39 1  
    43   11   40 1  
    44   14   41 1  
    45   19   42 1  
    46   20   43 1  
    47   20   44 1  
    48   22   45 1  
@<TRIPOS>SUBSTRUCTURE
     1 SB4         1

