### 
### Created by X-TOOL on Mon Sep 10 21:13:14 2018
### 

@<TRIPOS>MOLECULE
4loq_ligand
   45    48     1     0     0
SMALL
GAST_HUCK


@<TRIPOS>ATOM
      1 CA1         4.0790   -8.0420   34.3040 C.3       1 SB4         0.0186
      2 CA2         2.7920   -7.3990   34.1890 C.3       1 SB4        -0.0308
      3 NA3         2.9580   -5.9150   34.1220 N.4       1 SB4         0.2271
      4 CA4         4.1050   -5.5180   33.3140 C.3       1 SB4        -0.0308
      5 CA5         5.3330   -5.9420   34.1320 C.3       1 SB4         0.0186
      6 CA6         5.0300   -7.0950   35.0320 C.3       1 SB4         0.0804
      7 CB1         9.2050   -8.7910   38.4480 C.ar      1 SB4        -0.0583
      8 CB2        10.4300   -8.9640   39.0730 C.ar      1 SB4        -0.0294
      9 CB3        11.5980   -8.9960   38.3250 C.ar      1 SB4         0.1310
     10 CB4        11.5910   -8.8740   36.9660 C.ar      1 SB4        -0.0294
     11 CB5        10.3840   -8.7160   36.3410 C.ar      1 SB4        -0.0583
     12 CB6         9.1830   -8.6750   37.0650 C.ar      1 SB4        -0.0208
     13 FB7        12.5300   -9.1090   38.7930 F         1 SB4        -0.1843
     14 CC1         7.8290   -5.8490   37.7370 C.ar      1 SB4        -0.0212
     15 CC2         6.8350   -6.7850   37.5100 C.ar      1 SB4         0.0712
     16 NC3         5.7240   -6.6750   38.2530 N.ar      1 SB4        -0.2583
     17 CC4         5.5220   -5.7570   39.2260 C.ar      1 SB4         0.1794
     18 NC5         6.4800   -4.8720   39.5150 N.ar      1 SB4        -0.2627
     19 CC6         7.6380   -4.8880   38.7130 C.ar      1 SB4         0.0073
     20 NC7         4.3930   -5.7000   39.9650 N.pl3     1 SB4        -0.3045
     21 ND1         6.2880   -7.7730   35.3770 N.pl3     1 SB4        -0.2316
     22 CD2         6.8590   -8.6640   34.5590 C.2       1 SB4         0.1086
     23 ND3         7.9730   -9.0760   35.1440 N.2       1 SB4        -0.3026
     24 CD4         8.0900   -8.4940   36.3160 C.2       1 SB4         0.0462
     25 CD5         7.0450   -7.6690   36.4940 C.2       1 SB4         0.1151
     26 H1          4.4731   -8.2655   33.3016 H         1 SB4         0.0348
     27 H2          3.9772   -8.9768   34.8748 H         1 SB4         0.0348
     28 H3          2.1782   -7.6563   35.0648 H         1 SB4         0.0815
     29 H4          2.2914   -7.7498   33.2745 H         1 SB4         0.0815
     30 H5          3.0834   -5.5611   35.0574 H         1 SB4         0.2013
     31 H6          2.1251   -5.5142   33.7200 H         1 SB4         0.2013
     32 H7          4.1055   -4.4301   33.1516 H         1 SB4         0.0815
     33 H8          4.0907   -6.0338   32.3425 H         1 SB4         0.0815
     34 H9          5.6643   -5.0902   34.7442 H         1 SB4         0.0348
     35 H10         6.1381   -6.2320   33.4409 H         1 SB4         0.0348
     36 H11         4.5490   -6.7322   35.9523 H         1 SB4         0.0662
     37 H12         8.2879   -8.7474   39.0243 H         1 SB4         0.0595
     38 H13        10.4756   -9.0747   40.1504 H         1 SB4         0.0601
     39 H14        12.5141   -8.9014   36.3984 H         1 SB4         0.0601
     40 H15        10.3551   -8.6203   35.2616 H         1 SB4         0.0595
     41 H16         8.7449   -5.8689   37.1575 H         1 SB4         0.0638
     42 H17         8.3972   -4.1292   38.8644 H         1 SB4         0.0868
     43 H18         3.6239   -6.3603   39.7822 H         1 SB4         0.1824
     44 H19         4.3010   -4.9962   40.7114 H         1 SB4         0.1824
     45 H20         6.4785   -8.9898   33.5920 H         1 SB4         0.1311
@<TRIPOS>BOND
     1    1    2 1  
     2    6    1 1  
     3    2    3 1  
     4    4    3 1  
     5    5    4 1  
     6    6    5 1  
     7   21    6 1  
     8    7    8 ar 
     9   12    7 ar 
    10    8    9 ar 
    11   10    9 ar 
    12    9   13 1  
    13   11   10 ar 
    14   12   11 ar 
    15   24   12 1  
    16   15   14 ar 
    17   14   19 ar 
    18   15   16 ar 
    19   25   15 1  
    20   16   17 ar 
    21   17   18 ar 
    22   17   20 1  
    23   19   18 ar 
    24   22   21 1  
    25   21   25 1  
    26   23   22 2  
    27   23   24 1  
    28   24   25 2  
    29    1   26 1  
    30    1   27 1  
    31    2   28 1  
    32    2   29 1  
    33    3   30 1  
    34    3   31 1  
    35    4   32 1  
    36    4   33 1  
    37    5   34 1  
    38    5   35 1  
    39    6   36 1  
    40    7   37 1  
    41    8   38 1  
    42   10   39 1  
    43   11   40 1  
    44   14   41 1  
    45   19   42 1  
    46   20   43 1  
    47   20   44 1  
    48   22   45 1  
@<TRIPOS>SUBSTRUCTURE
     1 SB4         1

