### 
### Created by X-TOOL on Mon Sep 10 21:13:17 2018
### 

@<TRIPOS>MOLECULE
4loy_ligand
   68    71     1     0     0
SMALL
GAST_HUCK


@<TRIPOS>ATOM
      1 C33        17.0380  -11.6380   12.3840 C.2       1 6XS        -0.0542
      2 C32        17.2800  -10.5790   11.5070 C.2       1 6XS        -0.0524
      3 C31        16.6140   -9.4810   11.8610 C.2       1 6XS         0.1023
      4 CL3        16.5920   -7.9440   10.9980 Cl        1 6XS        -0.0499
      5 S30        15.7000   -9.6780   13.2890 S.3       1 6XS        -0.0137
      6 C29        16.1850  -11.3120   13.3550 C.2       1 6XS         0.0995
      7 C28        15.7160  -12.1200   14.4710 C.2       1 6XS         0.2077
      8 O39        15.0370  -11.5480   15.3220 O.2       1 6XS        -0.3910
      9 N27        15.9570  -13.4370   14.5040 N.am      1 6XS        -0.2836
     10 C26        15.4240  -14.3780   15.5080 C.3       1 6XS         0.0666
     11 C17        13.9610  -14.7670   15.0720 C.3       1 6XS         0.1462
     12 C18        13.0180  -13.6080   14.7530 C.2       1 6XS         0.2026
     13 O38        12.9480  -13.2110   13.5830 O.2       1 6XS        -0.3947
     14 N19        12.2750  -13.0240   15.7090 N.am      1 6XS        -0.2614
     15 C20        12.2810  -13.4150   17.1340 C.3       1 6XS         0.0741
     16 C21        10.8300  -13.7450   17.4850 C.3       1 6XS        -0.0112
     17 N22        10.0010  -12.5470   17.2640 N.4       1 6XS         0.2359
     18 C25         8.6300  -12.7950   17.7370 C.3       1 6XS        -0.0430
     19 C23         9.9850  -12.1990   15.8300 C.3       1 6XS        -0.0112
     20 C24        11.4110  -11.8710   15.3700 C.3       1 6XS         0.0741
     21 N16        13.9860  -15.6300   13.8850 N.am      1 6XS        -0.2238
     22 S15        13.0400  -16.8630   13.7490 S.o2      1 6XS         0.0668
     23 O36        13.3910  -17.5530   12.4850 O.2       1 6XS        -0.1504
     24 O37        13.3910  -17.7510   14.8850 O.2       1 6XS        -0.1504
     25 C9         11.4400  -16.5030   13.7830 C.ar      1 6XS         0.1074
     26 C8         10.6900  -16.0030   12.6830 C.ar      1 6XS         0.0817
     27 CL4        11.4330  -15.7200   11.0820 Cl        1 6XS        -0.0845
     28 C10        10.7360  -16.6790   14.9930 C.ar      1 6XS        -0.0165
     29 C11         9.3660  -16.3740   15.0930 C.ar      1 6XS         0.1213
     30 F13         8.7150  -16.5010   16.2670 F         1 6XS        -0.1872
     31 C12         8.6520  -15.8920   13.9820 C.ar      1 6XS        -0.0073
     32 C7          9.3170  -15.7010   12.7670 C.ar      1 6XS         0.0831
     33 N3          8.6280  -15.1990   11.6770 N.am      1 6XS        -0.2199
     34 C2          8.5320  -13.7250   11.6150 C.3       1 6XS         0.0558
     35 C1          7.6990  -13.2220   10.4220 C.3       1 6XS        -0.0253
     36 C6          7.8290  -14.1120    9.1870 C.3       1 6XS        -0.0333
     37 C5          7.3930  -15.5390    9.5340 C.3       1 6XS         0.0435
     38 C4          8.1260  -16.0760   10.7600 C.2       1 6XS         0.2063
     39 O35         8.2390  -17.2940   10.8530 O.2       1 6XS        -0.3845
     40 H          17.4954  -12.6214   12.2857 H         1 6XS         0.0517
     41 H          17.9341  -10.6429   10.6386 H         1 6XS         0.0447
     42 H          16.5466  -13.8137   13.7895 H         1 6XS         0.1839
     43 H          15.4047  -13.8984   16.4977 H         1 6XS         0.0563
     44 H          16.0544  -15.2785   15.5491 H         1 6XS         0.0563
     45 H          13.5208  -15.3310   15.9075 H         1 6XS         0.0774
     46 H          12.6458  -12.5850   17.7568 H         1 6XS         0.0575
     47 H          12.9212  -14.2965   17.2861 H         1 6XS         0.0575
     48 H          10.7654  -14.0492   18.5401 H         1 6XS         0.0834
     49 H          10.4724  -14.5647   16.8445 H         1 6XS         0.0834
     50 H          10.3929  -11.7769   17.7831 H         1 6XS         0.2032
     51 H           8.0164  -11.8976   17.5694 H         1 6XS         0.0778
     52 H           8.6497  -13.0303   18.8113 H         1 6XS         0.0778
     53 H           8.1989  -13.6424   17.1838 H         1 6XS         0.0778
     54 H           9.3378  -11.3237   15.6718 H         1 6XS         0.0834
     55 H           9.5989  -13.0501   15.2500 H         1 6XS         0.0834
     56 H          11.4234  -11.7015   14.2832 H         1 6XS         0.0575
     57 H          11.7719  -10.9691   15.8860 H         1 6XS         0.0575
     58 H          14.6255  -15.4224   13.1448 H         1 6XS         0.1706
     59 H          11.2610  -17.0567   15.8629 H         1 6XS         0.0496
     60 H           7.5943  -15.6702   14.0667 H         1 6XS         0.0486
     61 H           9.5479  -13.3115   11.5313 H         1 6XS         0.0587
     62 H           8.0651  -13.3655   12.5439 H         1 6XS         0.0587
     63 H           8.0369  -12.2083   10.1609 H         1 6XS         0.0291
     64 H           6.6410  -13.1901   10.7215 H         1 6XS         0.0291
     65 H           8.8763  -14.1208    8.8506 H         1 6XS         0.0291
     66 H           7.1890  -13.7189    8.3834 H         1 6XS         0.0291
     67 H           7.6065  -16.1944    8.6768 H         1 6XS         0.0508
     68 H           6.3119  -15.5411    9.7369 H         1 6XS         0.0508
@<TRIPOS>BOND
     1    1    2 1  
     2    1    6 2  
     3    2    3 2  
     4    3    4 1  
     5    3    5 1  
     6    5    6 1  
     7    6    7 1  
     8    7    8 2  
     9    7    9 am 
    10    9   10 1  
    11   10   11 1  
    12   11   12 1  
    13   11   21 1  
    14   12   13 2  
    15   12   14 am 
    16   14   15 1  
    17   14   20 1  
    18   15   16 1  
    19   16   17 1  
    20   17   18 1  
    21   17   19 1  
    22   19   20 1  
    23   21   22 am 
    24   22   23 2  
    25   22   24 2  
    26   22   25 1  
    27   25   26 ar 
    28   25   28 ar 
    29   26   27 1  
    30   26   32 ar 
    31   28   29 ar 
    32   29   30 1  
    33   29   31 ar 
    34   31   32 ar 
    35   32   33 1  
    36   33   34 1  
    37   33   38 am 
    38   34   35 1  
    39   35   36 1  
    40   36   37 1  
    41   37   38 1  
    42   38   39 2  
    43    1   40 1  
    44    2   41 1  
    45    9   42 1  
    46   10   43 1  
    47   10   44 1  
    48   11   45 1  
    49   15   46 1  
    50   15   47 1  
    51   16   48 1  
    52   16   49 1  
    53   17   50 1  
    54   18   51 1  
    55   18   52 1  
    56   18   53 1  
    57   19   54 1  
    58   19   55 1  
    59   20   56 1  
    60   20   57 1  
    61   21   58 1  
    62   28   59 1  
    63   31   60 1  
    64   34   61 1  
    65   34   62 1  
    66   35   63 1  
    67   35   64 1  
    68   36   65 1  
    69   36   66 1  
    70   37   67 1  
    71   37   68 1  
@<TRIPOS>SUBSTRUCTURE
     1 6XS         1

