### 
### Created by X-TOOL on Mon Sep 10 21:13:13 2018
### 

@<TRIPOS>MOLECULE
4lp0_ligand
   43    45     1     0     0
SMALL
GAST_HUCK


@<TRIPOS>ATOM
      1 C1         19.3560   33.8070    1.5980 C.3       1 1YM        -0.0450
      2 C2         19.0640   32.3320    1.9600 C.3       1 1YM         0.0291
      3 O5         17.9520   30.5260    3.7400 O.2       1 1YM        -0.3882
      4 N6         16.0100   31.6720    3.9670 N.am      1 1YM        -0.2017
      5 C7         15.3470   30.9040    4.8690 C.ar      1 1YM         0.1455
      6 C8         15.7810   29.6270    5.2890 C.ar      1 1YM         0.0039
      7 C9         14.9560   28.9750    6.2430 C.ar      1 1YM         0.0405
      8 C10        13.7930   29.5990    6.7600 C.ar      1 1YM         0.0168
      9 C11        13.4450   30.8690    6.2880 C.ar      1 1YM         0.0077
     10 C13        12.8580   28.9840    7.7140 C.ar      1 1YM         0.0132
     11 C14        12.4400   27.6600    7.4910 C.ar      1 1YM        -0.0222
     12 C15        11.4910   27.1420    8.4100 C.ar      1 1YM         0.0369
     13 C16        11.0050   27.9400    9.4520 C.ar      1 1YM         0.0239
     14 C19        10.9880   25.7460    8.3020 C.2       1 1YM         0.0699
     15 C22        15.3850   27.6740    6.7180 C.2       1 1YM         0.1420
     16 N23        15.2010   27.1180    7.9120 N.2       1 1YM        -0.2842
     17 C24        15.7470   25.9310    8.1180 C.2       1 1YM         0.1108
     18 C27        15.4780   25.2390    9.4230 C.3       1 1YM         0.3689
     19 N3         17.7130   32.4000    2.5620 N.am      1 1YM        -0.2672
     20 C4         17.2550   31.4710    3.4420 C.2       1 1YM         0.2926
     21 N12        14.2540   31.4630    5.3970 N.ar      1 1YM        -0.2787
     22 N17        11.3870   29.2040    9.6180 N.ar      1 1YM        -0.2937
     23 C18        12.2850   29.7240    8.7740 C.ar      1 1YM         0.0199
     24 O20        11.1780   25.0130    7.3330 O.co2     1 1YM        -0.5588
     25 O21        10.2600   25.2380    9.3120 O.co2     1 1YM        -0.5588
     26 C25        16.5340   25.3130    7.1790 C.2       1 1YM         0.0867
     27 S26        16.4820   26.5590    5.8610 S.3       1 1YM         0.0689
     28 F28        15.5820   26.0580   10.5490 F         1 1YM        -0.2389
     29 F29        14.1870   24.7600    9.4130 F         1 1YM        -0.2389
     30 F30        16.3070   24.1310    9.4620 F         1 1YM        -0.2389
     31 H1         20.3512   33.8808    1.1353 H         1 1YM         0.0249
     32 H2         19.3295   34.4207    2.5105 H         1 1YM         0.0249
     33 H3         18.5951   34.1686    0.8907 H         1 1YM         0.0249
     34 H4         19.8000   31.9486    2.6820 H         1 1YM         0.0515
     35 H5         19.0655   31.6964    1.0622 H         1 1YM         0.0515
     36 H6         15.5265   32.4867    3.6469 H         1 1YM         0.2323
     37 H7         16.6880   29.1729    4.9065 H         1 1YM         0.0642
     38 H8         12.5434   31.3616    6.6337 H         1 1YM         0.0802
     39 H9         12.8205   27.0696    6.6653 H         1 1YM         0.0766
     40 H10        10.2922   27.5134   10.1485 H         1 1YM         0.0844
     41 H11        17.1135   33.1600    2.3110 H         1 1YM         0.1854
     42 H12        12.5863   30.7566    8.9083 H         1 1YM         0.0841
     43 H13        17.0434   24.3511    7.2146 H         1 1YM         0.1533
@<TRIPOS>BOND
     1    2    1 1  
     2   19    2 1  
     3   20    3 2  
     4    4    5 1  
     5   20    4 am 
     6    5    6 ar 
     7    5   21 ar 
     8    6    7 ar 
     9    7    8 ar 
    10    7   15 1  
    11    9    8 ar 
    12    8   10 1  
    13   21    9 ar 
    14   10   11 ar 
    15   10   23 ar 
    16   11   12 ar 
    17   12   13 ar 
    18   12   14 1  
    19   13   22 ar 
    20   14   24 ar 
    21   14   25 ar 
    22   15   16 2  
    23   15   27 1  
    24   16   17 1  
    25   17   18 1  
    26   17   26 2  
    27   18   28 1  
    28   18   29 1  
    29   18   30 1  
    30   19   20 am 
    31   22   23 ar 
    32   26   27 1  
    33    1   31 1  
    34    1   32 1  
    35    1   33 1  
    36    2   34 1  
    37    2   35 1  
    38    4   36 1  
    39    6   37 1  
    40    9   38 1  
    41   11   39 1  
    42   13   40 1  
    43   19   41 1  
    44   23   42 1  
    45   26   43 1  
@<TRIPOS>SUBSTRUCTURE
     1 1YM         1

