### 
### Created by X-TOOL on Mon Sep 10 21:13:14 2018
### 

@<TRIPOS>MOLECULE
4lpb_ligand
   47    50     1     0     0
SMALL
GAST_HUCK


@<TRIPOS>ATOM
      1 C1         19.6010   34.0510    1.5870 C.3       1 1YP        -0.0450
      2 C2         19.2610   32.6090    1.8730 C.3       1 1YP         0.0291
      3 C3         17.6430   31.6090    3.4390 C.2       1 1YP         0.2926
      4 N6         10.0690   30.7420   11.8670 N.2       1 1YP        -0.0598
      5 C7         14.1030   29.7140    6.6280 C.ar      1 1YP         0.0145
      6 C8         13.7880   30.9600    6.1390 C.ar      1 1YP         0.0075
      7 C9         13.1270   29.0650    7.4790 C.ar      1 1YP         0.0029
      8 C10        12.5200   29.6980    8.5450 C.ar      1 1YP        -0.0304
      9 C11        11.5660   28.9910    9.2460 C.ar      1 1YP         0.0413
     10 C12        11.2460   27.7040    8.8890 C.ar      1 1YP         0.0158
     11 C13        12.7150   27.7780    7.1950 C.ar      1 1YP         0.0103
     12 C14        10.8500   29.5990   10.3640 C.3       1 1YP         0.2420
     13 C15         9.3230   29.5900   11.8150 C.2       1 1YP         0.3864
     14 C16        15.7550   27.8670    6.6700 C.2       1 1YP         0.1420
     15 C19        15.8150   25.3410    9.2040 C.3       1 1YP         0.3689
     16 N1         17.9480   32.5250    2.4600 N.am      1 1YP        -0.2672
     17 O1         18.3630   30.6740    3.7560 O.2       1 1YP        -0.3882
     18 N2         16.4210   31.9120    3.9980 N.am      1 1YP        -0.2017
     19 C4         15.6670   31.1290    4.8940 C.ar      1 1YP         0.1455
     20 C5         16.0860   29.8860    5.3250 C.ar      1 1YP         0.0039
     21 C6         15.3040   29.1650    6.2090 C.ar      1 1YP         0.0403
     22 N3         14.5270   31.6860    5.3010 N.ar      1 1YP        -0.2787
     23 N4         11.8070   27.0620    7.8650 N.ar      1 1YP        -0.3049
     24 N5         11.0390   30.7380   10.9290 N.2       1 1YP        -0.1179
     25 O2          8.3720   29.2820   12.5180 O.2       1 1YP        -0.3236
     26 O3          9.8370   28.8250   10.8210 O.3       1 1YP        -0.2148
     27 N7         15.4730   27.3370    7.8410 N.2       1 1YP        -0.2842
     28 C17        16.0380   26.0940    7.9640 C.2       1 1YP         0.1108
     29 C18        16.7600   25.6760    6.8710 C.2       1 1YP         0.0867
     30 S1         16.7330   26.8850    5.6560 S.3       1 1YP         0.0689
     31 F1         16.4440   24.1360    9.1800 F         1 1YP        -0.2389
     32 F2         16.2360   26.0140   10.3050 F         1 1YP        -0.2389
     33 F3         14.4910   25.0940    9.3810 F         1 1YP        -0.2389
     34 H1         20.6040   34.1093    1.1391 H         1 1YP         0.0249
     35 H2         19.5846   34.6247    2.5254 H         1 1YP         0.0249
     36 H3         18.8624   34.4702    0.8879 H         1 1YP         0.0249
     37 H4         20.0008   32.1908    2.5715 H         1 1YP         0.0515
     38 H5         19.2786   32.0363    0.9340 H         1 1YP         0.0515
     39 H6         12.8495   31.3926    6.4663 H         1 1YP         0.0802
     40 H7         12.7834   30.7127    8.8207 H         1 1YP         0.0669
     41 H8         10.4960   27.1819    9.4722 H         1 1YP         0.0753
     42 H9         13.1762   27.2984    6.3393 H         1 1YP         0.0766
     43 H10        11.5690   29.1528   11.0668 H         1 1YP         0.1119
     44 H11        17.2359   33.1527    2.1455 H         1 1YP         0.1854
     45 H12        16.0223   32.7912    3.7371 H         1 1YP         0.2323
     46 H13        17.0253   29.4763    4.9715 H         1 1YP         0.0642
     47 H14        17.2729   24.7188    6.7893 H         1 1YP         0.1533
@<TRIPOS>BOND
     1    2    1 1  
     2   16    2 1  
     3    3   16 am 
     4    3   17 2  
     5   18    3 am 
     6   13    4 1  
     7   24    4 2  
     8    5    6 ar 
     9    5    7 1  
    10   21    5 ar 
    11    6   22 ar 
    12    7    8 ar 
    13    7   11 ar 
    14    8    9 ar 
    15    9   10 ar 
    16    9   12 1  
    17   23   10 ar 
    18   11   23 ar 
    19   12   24 1  
    20   12   26 1  
    21   13   25 2  
    22   26   13 1  
    23   14   21 1  
    24   27   14 2  
    25   14   30 1  
    26   28   15 1  
    27   15   31 1  
    28   15   32 1  
    29   15   33 1  
    30   19   18 1  
    31   20   19 ar 
    32   19   22 ar 
    33   21   20 ar 
    34   27   28 1  
    35   28   29 2  
    36   29   30 1  
    37    1   34 1  
    38    1   35 1  
    39    1   36 1  
    40    2   37 1  
    41    2   38 1  
    42    6   39 1  
    43    8   40 1  
    44   10   41 1  
    45   11   42 1  
    46   12   43 1  
    47   16   44 1  
    48   18   45 1  
    49   20   46 1  
    50   29   47 1  
@<TRIPOS>SUBSTRUCTURE
     1 1YP         1

