### 
### Created by X-TOOL on Mon Sep 10 21:13:14 2018
### 

@<TRIPOS>MOLECULE
4lpf_ligand
   10    10     1     0     0
SMALL
GAST_HUCK


@<TRIPOS>ATOM
      1 N1        -18.3020   -7.7910   39.6310 N.2       1 3TR        -0.2134
      2 N2        -19.6900   -8.0090   39.7300 N.pl3     1 3TR        -0.1782
      3 C3        -20.1880   -7.1180   38.8660 C.2       1 3TR         0.2303
      4 N4        -19.2730   -6.3640   38.2360 N.2       1 3TR        -0.2917
      5 C5        -18.0850   -6.7940   38.7300 C.2       1 3TR         0.0373
      6 N3A       -21.5170   -6.9950   38.6450 N.pl3     1 3TR        -0.2885
      7 H1        -20.1951   -8.6854   40.3202 H         1 3TR         0.2552
      8 H2        -17.1085   -6.4021   38.4491 H         1 3TR         0.0805
      9 H3        -21.8647   -6.2973   37.9718 H         1 3TR         0.1843
     10 H4        -22.1811   -7.5991   39.1499 H         1 3TR         0.1843
@<TRIPOS>BOND
     1    1    2 1  
     2    1    5 2  
     3    2    3 1  
     4    3    4 2  
     5    3    6 1  
     6    4    5 1  
     7    2    7 1  
     8    5    8 1  
     9    6    9 1  
    10    6   10 1  
@<TRIPOS>SUBSTRUCTURE
     1 3TR         1

