### 
### Created by X-TOOL on Mon Sep 10 21:13:15 2018
### 

@<TRIPOS>MOLECULE
4lrh_ligand
   50    52     1     0     0
SMALL
GAST_HUCK


@<TRIPOS>ATOM
      1 N1          0.6390   22.8320    7.0900 N.pl3     1 FOL        -0.2042
      2 C2          1.1190   22.3080    8.2390 C.cat     1 FOL         0.2087
      3 NA2         0.2480   22.0650    9.2410 N.pl3     1 FOL        -0.3305
      4 N3          2.4150   22.0220    8.4100 N.am      1 FOL        -0.2435
      5 C4          3.3400   22.2330    7.4330 C.2       1 FOL         0.2754
      6 O4          4.5070   21.9690    7.5990 O.2       1 FOL        -0.3491
      7 C4A         2.9010   22.7900    6.1590 C.ar      1 FOL         0.2637
      8 N5          3.7500   23.0150    5.1340 N.ar      1 FOL        -0.1670
      9 C6          3.2910   23.5220    3.9740 C.ar      1 FOL         0.1651
     10 C7          1.9110   23.8260    3.8270 C.ar      1 FOL         0.1244
     11 N8          1.0580   23.6010    4.8540 N.ar      1 FOL        -0.1568
     12 C8A         1.4970   23.0870    6.0200 C.ar      1 FOL         0.2851
     13 C9          4.2350   23.7510    2.8360 C.3       1 FOL         0.1188
     14 N10         4.2020   22.5770    1.9490 N.pl3     1 FOL        -0.2900
     15 C11         7.4990   21.8180   -0.6260 C.ar      1 FOL         0.0362
     16 C12         6.8520   20.7610    0.0730 C.ar      1 FOL        -0.0535
     17 C13         5.7660   21.0300    0.9200 C.ar      1 FOL        -0.0379
     18 C14         5.2990   22.3510    1.0980 C.ar      1 FOL         0.0480
     19 C15         5.9440   23.4160    0.4010 C.ar      1 FOL        -0.0379
     20 C16         7.0340   23.1500   -0.4530 C.ar      1 FOL        -0.0535
     21 C           8.6470   21.5250   -1.5160 C.2       1 FOL         0.1968
     22 O           9.0320   22.3570   -2.3400 O.2       1 FOL        -0.3908
     23 N           9.2530   20.3100   -1.3960 N.am      1 FOL        -0.2725
     24 CA         10.4920   20.0610   -2.1570 C.3       1 FOL         0.0951
     25 CB         11.7480   20.6550   -1.4330 C.3       1 FOL        -0.0064
     26 CG         11.6120   20.6390    0.1130 C.3       1 FOL         0.0038
     27 CD         12.8440   21.2290    0.7840 C.2       1 FOL         0.0350
     28 OE1        13.7790   21.6460    0.1250 O.co2     1 FOL        -0.5690
     29 OE2        12.8990   21.2910    2.1280 O.co2     1 FOL        -0.5690
     30 CT         10.6220   18.5520   -2.3700 C.2       1 FOL         0.0601
     31 O1         11.3410   17.8730   -1.6560 O.co2     1 FOL        -0.5666
     32 O2          9.9090   17.9600   -3.3460 O.co2     1 FOL        -0.5666
     33 H1         -0.3652   23.0442    7.0036 H         1 FOL         0.2564
     34 H2          0.5833   21.6658   10.1293 H         1 FOL         0.1792
     35 H3         -0.7520   22.2787    9.1173 H         1 FOL         0.1792
     36 H4          2.7143   21.6405    9.2846 H         1 FOL         0.1833
     37 H5          1.5418   24.2373    2.8945 H         1 FOL         0.1319
     38 H6          5.2545   23.8926    3.2240 H         1 FOL         0.0954
     39 H7          3.9283   24.6465    2.2756 H         1 FOL         0.0954
     40 H8          3.3953   21.9365    1.9513 H         1 FOL         0.1844
     41 H9          7.2001   19.7417   -0.0495 H         1 FOL         0.0636
     42 H10         5.2800   20.2147    1.4436 H         1 FOL         0.0530
     43 H11         5.5945   24.4341    0.5286 H         1 FOL         0.0530
     44 H12         7.5190   23.9641   -0.9794 H         1 FOL         0.0636
     45 H13         8.8660   19.6025   -0.8047 H         1 FOL         0.1864
     46 H14        10.4054   20.5487   -3.1392 H         1 FOL         0.0726
     47 H15        11.8854   21.6952   -1.7633 H         1 FOL         0.0323
     48 H16        12.6301   20.0613   -1.7147 H         1 FOL         0.0323
     49 H17        11.4836   19.6000    0.4504 H         1 FOL         0.0432
     50 H18        10.7300   21.2298    0.4010 H         1 FOL         0.0432
@<TRIPOS>BOND
     1    1    2 ar 
     2   12    1 1  
     3    2    3 ar 
     4    4    2 ar 
     5    5    4 am 
     6    5    6 2  
     7    7    5 1  
     8    8    7 ar 
     9    7   12 ar 
    10    9    8 ar 
    11    9   10 ar 
    12   13    9 1  
    13   10   11 ar 
    14   11   12 ar 
    15   14   13 1  
    16   18   14 1  
    17   16   15 ar 
    18   15   20 ar 
    19   15   21 1  
    20   17   16 ar 
    21   17   18 ar 
    22   18   19 ar 
    23   19   20 ar 
    24   21   22 2  
    25   21   23 am 
    26   23   24 1  
    27   24   25 1  
    28   24   30 1  
    29   25   26 1  
    30   26   27 1  
    31   27   28 ar 
    32   27   29 ar 
    33   30   31 ar 
    34   30   32 ar 
    35    1   33 1  
    36    3   34 1  
    37    3   35 1  
    38    4   36 1  
    39   10   37 1  
    40   13   38 1  
    41   13   39 1  
    42   14   40 1  
    43   16   41 1  
    44   17   42 1  
    45   19   43 1  
    46   20   44 1  
    47   23   45 1  
    48   24   46 1  
    49   25   47 1  
    50   25   48 1  
    51   26   49 1  
    52   26   50 1  
@<TRIPOS>SUBSTRUCTURE
     1 FOL         1

