### 
### Created by X-TOOL on Mon Sep 10 21:13:13 2018
### 

@<TRIPOS>MOLECULE
4lrr_ligand
   34    37     1     0     0
SMALL
GAST_HUCK


@<TRIPOS>ATOM
      1 O50         6.1310   11.6720  -40.2010 O.2       1 CF9        -0.4872
      2 N48         6.4150   12.8770  -40.3100 N.2       1 CF9        -0.2136
      3 O52         7.5230   13.3000  -39.9420 O.2       1 CF9        -0.4872
      4 C41         5.4270   13.7290  -40.8610 C.ar      1 CF9         0.0883
      5 C39         4.1020   13.4080  -40.5970 C.ar      1 CF9        -0.0228
      6 C37         3.1030   14.1170  -41.2410 C.ar      1 CF9        -0.0323
      7 C43         5.7750   14.7820  -41.7030 C.ar      1 CF9        -0.0228
      8 C45         4.7790   15.4950  -42.3450 C.ar      1 CF9        -0.0323
      9 C35         3.4540   15.1500  -42.1010 C.ar      1 CF9         0.0810
     10 C31         2.3500   15.8830  -42.7640 C.2       1 CF9         0.3394
     11 O33         2.5830   16.6240  -43.7040 O.2       1 CF9        -0.3281
     12 O29         1.0100   15.6610  -42.2350 O.3       1 CF9        -0.1071
     13 C13         0.9340   15.2580  -40.9300 C.ar      1 CF9         0.2841
     14 C3          1.1240   16.1900  -39.9240 C.ar      1 CF9         0.1567
     15 C4          1.3670   17.5510  -40.0960 C.ar      1 CF9         0.0285
     16 C5          1.5340   18.3720  -38.9750 C.ar      1 CF9         0.0142
     17 C6          1.4660   17.8500  -37.6820 C.ar      1 CF9         0.0291
     18 C1          1.2230   16.4810  -37.5380 C.ar      1 CF9         0.1627
     19 C14         0.7020   13.9130  -40.6060 C.ar      1 CF9         0.1192
     20 C15         0.6290   13.4560  -39.2890 C.ar      1 CF9         0.1174
     21 C16         0.8250   14.4110  -38.3270 C.ar      1 CF9         0.2809
     22 C2          1.0610   15.7130  -38.6570 C.ar      1 CF9         0.1690
     23 O24         0.8290   14.3170  -36.9120 O.3       1 CF9        -0.0994
     24 C22         1.0720   15.5990  -36.4620 C.2       1 CF9         0.3922
     25 O27         1.1520   15.9000  -35.2870 O.2       1 CF9        -0.2717
     26 H1          3.8546   12.6163  -39.8991 H         1 CF9         0.0699
     27 H2          2.0605   13.8696  -41.0765 H         1 CF9         0.0684
     28 H3          6.8169   15.0405  -41.8539 H         1 CF9         0.0699
     29 H4          5.0254   16.3042  -43.0229 H         1 CF9         0.0684
     30 H5          1.4264   17.9719  -41.0932 H         1 CF9         0.1177
     31 H6          1.7193   19.4311  -39.1130 H         1 CF9         0.0966
     32 H7          1.5978   18.4875  -36.8152 H         1 CF9         0.1011
     33 H8          0.5741   13.1990  -41.4116 H         1 CF9         0.1247
     34 H9          0.4312   12.4185  -39.0449 H         1 CF9         0.1248
@<TRIPOS>BOND
     1    1    2 2  
     2    2    3 2  
     3    2    4 1  
     4    4    5 ar 
     5    4    7 ar 
     6    5    6 ar 
     7    6    9 ar 
     8    7    8 ar 
     9    8    9 ar 
    10    9   10 1  
    11   10   11 2  
    12   10   12 1  
    13   12   13 1  
    14   13   14 ar 
    15   13   19 ar 
    16   14   15 ar 
    17   14   22 ar 
    18   15   16 ar 
    19   16   17 ar 
    20   17   18 ar 
    21   18   22 ar 
    22   18   24 1  
    23   19   20 ar 
    24   20   21 ar 
    25   21   22 ar 
    26   21   23 1  
    27   23   24 1  
    28   24   25 2  
    29    5   26 1  
    30    6   27 1  
    31    7   28 1  
    32    8   29 1  
    33   15   30 1  
    34   16   31 1  
    35   17   32 1  
    36   19   33 1  
    37   20   34 1  
@<TRIPOS>SUBSTRUCTURE
     1 CF9         1

