### 
### Created by X-TOOL on Mon Sep 10 21:13:18 2018
### 

@<TRIPOS>MOLECULE
4lsj_ligand
   56    59     1     0     0
SMALL
GAST_HUCK


@<TRIPOS>ATOM
      1 C1         -9.1740   14.2250  -16.5000 C.3       1 LSJ         0.1031
      2 O2         -7.9120   14.8410  -16.4530 O.3       1 LSJ        -0.3039
      3 C3         -6.8020   14.0170  -16.4910 C.ar      1 LSJ         0.1013
      4 C4         -6.7850   12.6650  -16.7010 C.ar      1 LSJ         0.0036
      5 C5         -5.5940   12.0100  -16.7190 C.ar      1 LSJ        -0.0657
      6 C6         -4.4030   12.6380  -16.5080 C.ar      1 LSJ        -0.0748
      7 C7         -4.4110   13.9790  -16.2880 C.ar      1 LSJ        -0.0728
      8 C8         -5.6050   14.6400  -16.2820 C.ar      1 LSJ        -0.0336
      9 C9         -7.9600   11.9160  -16.9820 C.2       1 LSJ        -0.0212
     10 C10        -8.3130   10.8130  -16.3060 C.2       1 LSJ        -0.0388
     11 C11        -9.4730   10.0280  -16.6560 C.ar      1 LSJ        -0.0390
     12 C12       -10.7540   10.4690  -16.8060 C.ar      1 LSJ        -0.0731
     13 C13       -11.7690    9.6150  -17.1540 C.ar      1 LSJ        -0.0782
     14 C14       -11.5550    8.2830  -17.3560 C.ar      1 LSJ        -0.0468
     15 C15       -10.2680    7.8450  -17.2070 C.ar      1 LSJ         0.0601
     16 C16        -9.2700    8.7030  -16.8690 C.ar      1 LSJ        -0.0415
     17 N17        -9.8420    6.5160  -17.3460 N.am      1 LSJ        -0.1925
     18 S18       -10.3490    5.4460  -18.5130 S.o2      1 LSJ         0.0571
     19 O19        -9.7070    4.2270  -18.3310 O.2       1 LSJ        -0.1502
     20 O20       -11.7420    5.4420  -18.6400 O.2       1 LSJ        -0.1502
     21 C21        -9.6480    6.2070  -19.8930 C.3       1 LSJ         0.0787
     22 C22        -7.5180   10.2320  -15.2140 C.3       1 LSJ        -0.0237
     23 C23        -8.3450    9.7840  -14.0500 C.3       1 LSJ        -0.0556
     24 C24        -8.7940   12.3780  -18.0620 C.ar      1 LSJ         0.0100
     25 C25        -9.4230   13.5670  -17.8130 C.ar      1 LSJ        -0.0140
     26 C26       -10.2500   14.0790  -18.7730 C.ar      1 LSJ        -0.0696
     27 C27       -10.4430   13.4270  -19.9600 C.ar      1 LSJ        -0.0788
     28 C28        -9.8020   12.2530  -20.1960 C.ar      1 LSJ        -0.0403
     29 C29        -8.9740   11.7180  -19.2510 C.ar      1 LSJ         0.0927
     30 O30        -8.3090   10.5560  -19.4850 O.3       1 LSJ        -0.3213
     31 C31        -8.9570    9.8360  -20.4640 C.3       1 LSJ         0.0599
     32 H          -9.9485   14.9879  -16.3322 H         1 LSJ         0.0781
     33 H          -9.2289   13.4658  -15.7059 H         1 LSJ         0.0781
     34 H          -5.5914   10.9428  -16.9093 H         1 LSJ         0.0566
     35 H          -3.4726   12.0818  -16.5155 H         1 LSJ         0.0521
     36 H          -3.4839   14.5151  -16.1200 H         1 LSJ         0.0570
     37 H          -5.6030   15.7091  -16.1030 H         1 LSJ         0.0533
     38 H         -10.9754   11.5181  -16.6467 H         1 LSJ         0.0472
     39 H         -12.7714   10.0103  -17.2721 H         1 LSJ         0.0570
     40 H         -12.3613    7.6083  -17.6203 H         1 LSJ         0.0474
     41 H          -8.2648    8.3109  -16.7646 H         1 LSJ         0.0460
     42 H          -9.1724    6.1816  -16.6828 H         1 LSJ         0.2154
     43 H          -9.8846    5.6221  -20.7940 H         1 LSJ         0.0487
     44 H          -8.5566    6.2610  -19.7671 H         1 LSJ         0.0487
     45 H         -10.0557    7.2232  -19.9981 H         1 LSJ         0.0487
     46 H          -6.8025   10.9898  -14.8622 H         1 LSJ         0.0426
     47 H          -6.9689    9.3634  -15.6064 H         1 LSJ         0.0426
     48 H          -7.6886    9.3621  -13.2747 H         1 LSJ         0.0253
     49 H          -9.0603    9.0171  -14.3819 H         1 LSJ         0.0253
     50 H          -8.8939   10.6435  -13.6377 H         1 LSJ         0.0253
     51 H         -10.7615   15.0172  -18.5909 H         1 LSJ         0.0462
     52 H         -11.1050   13.8457  -20.7094 H         1 LSJ         0.0556
     53 H          -9.9484   11.7384  -21.1388 H         1 LSJ         0.0480
     54 H          -8.4142    8.8972  -20.6487 H         1 LSJ         0.0579
     55 H          -8.9929   10.4272  -21.3909 H         1 LSJ         0.0579
     56 H          -9.9815    9.6084  -20.1344 H         1 LSJ         0.0579
@<TRIPOS>BOND
     1    1    2 1  
     2    1   25 1  
     3    2    3 1  
     4    3    4 ar 
     5    3    8 ar 
     6    4    5 ar 
     7    4    9 1  
     8    5    6 ar 
     9    6    7 ar 
    10    7    8 ar 
    11    9   10 2  
    12    9   24 1  
    13   10   11 1  
    14   10   22 1  
    15   11   12 ar 
    16   11   16 ar 
    17   12   13 ar 
    18   13   14 ar 
    19   14   15 ar 
    20   15   16 ar 
    21   15   17 1  
    22   17   18 am 
    23   18   19 2  
    24   18   20 2  
    25   18   21 1  
    26   22   23 1  
    27   24   25 ar 
    28   24   29 ar 
    29   25   26 ar 
    30   26   27 ar 
    31   27   28 ar 
    32   28   29 ar 
    33   29   30 1  
    34   30   31 1  
    35    1   32 1  
    36    1   33 1  
    37    5   34 1  
    38    6   35 1  
    39    7   36 1  
    40    8   37 1  
    41   12   38 1  
    42   13   39 1  
    43   14   40 1  
    44   16   41 1  
    45   17   42 1  
    46   21   43 1  
    47   21   44 1  
    48   21   45 1  
    49   22   46 1  
    50   22   47 1  
    51   23   48 1  
    52   23   49 1  
    53   23   50 1  
    54   26   51 1  
    55   27   52 1  
    56   28   53 1  
    57   31   54 1  
    58   31   55 1  
    59   31   56 1  
@<TRIPOS>SUBSTRUCTURE
     1 LSJ         1

