### 
### Created by X-TOOL on Mon Sep 10 21:13:16 2018
### 

@<TRIPOS>MOLECULE
4lte_ligand
   89    91     1     0     0
SMALL
GAST_HUCK


@<TRIPOS>ATOM
      1 CA        -97.9410  -67.9810   24.5870 C.3       1 PHE         0.0376
      2 C         -96.4840  -68.1990   24.9620 C.2       1 PHE         0.1783
      3 O         -96.0880  -69.3280   25.1190 O.2       1 PHE        -0.3969
      4 CB        -98.3870  -69.2770   23.9920 C.3       1 PHE        -0.0332
      5 CG        -99.8780  -69.5160   24.2240 C.3       1 PHE        -0.0390
      6 CD1      -100.1990  -70.9810   24.1670 C.3       1 PHE        -0.0501
      7 CD2      -100.6810  -68.8420   23.1100 C.3       1 PHE        -0.0501
      8 CE1      -101.7000  -71.2630   24.3890 C.3       1 PHE        -0.0528
      9 CE2      -101.8150  -69.7250   22.4770 C.3       1 PHE        -0.0528
     10 CZ       -102.6330  -70.5330   23.4380 C.3       1 PHE        -0.0530
     11 CZ        -93.6610  -67.0910   30.3180 C.ar      1 DFF         0.0271
     12 C7        -93.8480  -67.2310   31.8320 C.2       1 DFF         0.1555
     13 C5        -92.8360  -67.4420   34.1550 C.ar      1 DFF        -0.0435
     14 CD1       -92.7140  -67.7680   28.1890 C.ar      1 DFF        -0.0540
     15 CE1       -92.8430  -67.9310   29.5790 C.ar      1 DFF        -0.0499
     16 C2        -90.6590  -65.8500   33.3870 C.ar      1 DFF        -0.0561
     17 C1        -90.7250  -66.3560   34.6770 C.ar      1 DFF        -0.0574
     18 O1        -94.9330  -67.6060   32.2540 O.2       1 DFF        -0.3706
     19 O         -93.2710  -69.1820   23.9600 O.2       1 DFF        -0.3943
     20 C3        -91.6700  -66.1230   32.4620 C.ar      1 DFF        -0.0435
     21 C4        -92.7480  -66.9250   32.8470 C.ar      1 DFF         0.0329
     22 N         -95.5380  -67.1390   25.1280 N.am      1 DFF        -0.2637
     23 C6        -91.8260  -67.1480   35.0670 C.ar      1 DFF        -0.0561
     24 CG        -93.4220  -66.7450   27.5670 C.ar      1 DFF        -0.0336
     25 CD2       -94.2610  -65.9150   28.3030 C.ar      1 DFF        -0.0540
     26 CE2       -94.3820  -66.0800   29.6700 C.ar      1 DFF        -0.0499
     27 CB        -93.3290  -66.5230   26.0690 C.3       1 DFF         0.0237
     28 CA        -94.2110  -67.5830   25.4620 C.3       1 DFF         0.1409
     29 C         -93.4480  -68.0120   24.2320 C.2       1 DFF         0.2038
     30 N         -90.0370  -67.0900   18.8500 N.am      1 LYN        -0.2651
     31 CA        -89.5380  -67.6780   20.0910 C.3       1 LYN         0.1300
     32 CB        -89.7370  -66.6680   21.1990 C.3       1 LYN        -0.0124
     33 CG        -89.5660  -67.3360   22.5790 C.3       1 LYN        -0.0470
     34 CD        -90.9010  -68.0300   22.9380 C.3       1 LYN        -0.0325
     35 CE        -92.1370  -67.4220   22.2510 C.3       1 LYN         0.0310
     36 NZ        -92.9050  -66.9860   23.3880 N.am      1 LYN        -0.2849
     37 C         -90.0950  -69.0630   20.3800 C.2       1 LYN         0.1991
     38 O         -89.4650  -69.9250   20.9720 O.2       1 LYN        -0.3947
     39 NT        -91.4420  -69.3990   19.9360 N.am      1 LYN        -0.2990
     40 C2        -91.1430  -66.1160   18.6510 C.2       1 FUM         0.2044
     41 O3        -91.3960  -65.7390   17.5260 O.2       1 FUM        -0.3836
     42 C4        -92.0000  -65.5620   19.8240 C.2       1 FUM         0.0277
     43 C5        -93.3330  -65.2280   19.6700 C.2       1 FUM         0.0242
     44 C6        -94.0790  -64.7040   20.8990 C.2       1 FUM         0.2214
     45 O7        -94.5380  -65.4920   21.6840 O.co2     1 FUM        -0.4045
     46 H         -98.0334  -67.1669   23.8530 H         1 PHE         0.0502
     47 H         -98.5376  -67.7399   25.4791 H         1 PHE         0.0502
     48 H         -97.8175  -70.0971   24.4537 H         1 PHE         0.0292
     49 H         -98.1921  -69.2592   22.9096 H         1 PHE         0.0292
     50 H        -100.1668  -69.1060   25.2030 H         1 PHE         0.0302
     51 H         -99.6229  -71.4996   24.9475 H         1 PHE         0.0268
     52 H         -99.9092  -71.3681   23.1790 H         1 PHE         0.0268
     53 H         -99.9819  -68.5600   22.3090 H         1 PHE         0.0268
     54 H        -101.1467  -67.9364   23.5259 H         1 PHE         0.0268
     55 H        -101.9561  -70.9641   25.4162 H         1 PHE         0.0265
     56 H        -101.8665  -72.3437   24.2693 H         1 PHE         0.0265
     57 H        -101.3430  -70.4216   21.7686 H         1 PHE         0.0265
     58 H        -102.4983  -69.0561   21.9333 H         1 PHE         0.0265
     59 H        -103.2951  -69.8664   24.0100 H         1 PHE         0.0265
     60 H        -103.2393  -71.2637   22.8826 H         1 PHE         0.0265
     61 H         -93.6778  -68.0596   34.4468 H         1 DFF         0.0670
     62 H         -92.0749  -68.4270   27.6126 H         1 DFF         0.0571
     63 H         -92.2965  -68.7227   30.0787 H         1 DFF         0.0653
     64 H         -89.8147  -65.2367   33.0937 H         1 DFF         0.0630
     65 H         -89.9318  -66.1433   35.3846 H         1 DFF         0.0654
     66 H         -91.6189  -65.7177   31.4579 H         1 DFF         0.0670
     67 H         -95.7780  -66.1741   25.0213 H         1 DFF         0.1884
     68 H         -91.8855  -67.5288   36.0802 H         1 DFF         0.0630
     69 H         -94.8228  -65.1349   27.8021 H         1 DFF         0.0571
     70 H         -95.0340  -65.4279   30.2398 H         1 DFF         0.0653
     71 H         -92.2909  -66.6401   25.7245 H         1 DFF         0.0484
     72 H         -93.6924  -65.5193   25.8036 H         1 DFF         0.0484
     73 H         -94.3035  -68.4264   26.1621 H         1 DFF         0.0825
     74 H         -89.5687  -67.3840   18.0168 H         1 LYN         0.1874
     75 H         -88.4527  -67.8116   19.9720 H         1 LYN         0.0799
     76 H         -90.7497  -66.2449   21.1251 H         1 LYN         0.0312
     77 H         -88.9947  -65.8633   21.0924 H         1 LYN         0.0312
     78 H         -89.3248  -66.5749   23.3357 H         1 LYN         0.0268
     79 H         -88.7571  -68.0803   22.5367 H         1 LYN         0.0268
     80 H         -91.0433  -67.9607   24.0265 H         1 LYN         0.0285
     81 H         -90.8292  -69.0876   22.6441 H         1 LYN         0.0285
     82 H         -92.6815  -68.1747   21.6619 H         1 LYN         0.0520
     83 H         -91.8625  -66.5770   21.6024 H         1 LYN         0.0520
     84 H         -93.0529  -66.0159   23.5803 H         1 LYN         0.1851
     85 H         -91.8175  -70.3071   20.1211 H         1 LYN         0.1815
     86 H         -91.9906  -68.7214   19.4463 H         1 LYN         0.1815
     87 H         -91.5347  -65.4326   20.8000 H         1 FUM         0.0776
     88 H         -93.8338  -65.3340   18.7088 H         1 FUM         0.0819
     89 H         -94.1930  -63.6322   21.0610 O.co2     1 FUM        -0.4045
@<TRIPOS>BOND
     1    2    1 1  
     2    1    4 1  
     3    2    3 2  
     4   22    2 am 
     5    4    5 1  
     6    5    6 1  
     7    5    7 1  
     8    6    8 1  
     9    7    9 1  
    10    8   10 1  
    11    9   10 1  
    12   11   12 1  
    13   15   11 ar 
    14   26   11 ar 
    15   12   18 2  
    16   12   21 1  
    17   21   13 ar 
    18   13   23 ar 
    19   14   15 ar 
    20   24   14 ar 
    21   16   17 ar 
    22   20   16 ar 
    23   23   17 ar 
    24   29   19 2  
    25   21   20 ar 
    26   28   22 1  
    27   24   25 ar 
    28   27   24 1  
    29   25   26 ar 
    30   28   27 1  
    31   29   28 1  
    32   36   29 am 
    33   31   30 1  
    34   30   40 am 
    35   32   31 1  
    36   31   37 1  
    37   33   32 1  
    38   34   33 1  
    39   35   34 1  
    40   35   36 1  
    41   37   38 2  
    42   37   39 am 
    43   40   41 2  
    44   40   42 1  
    45   42   43 2  
    46   43   44 1  
    47   44   45 ar 
    48    1   46 1  
    49    1   47 1  
    50    4   48 1  
    51    4   49 1  
    52    5   50 1  
    53    6   51 1  
    54    6   52 1  
    55    7   53 1  
    56    7   54 1  
    57    8   55 1  
    58    8   56 1  
    59    9   57 1  
    60    9   58 1  
    61   10   59 1  
    62   10   60 1  
    63   13   61 1  
    64   14   62 1  
    65   15   63 1  
    66   16   64 1  
    67   17   65 1  
    68   20   66 1  
    69   22   67 1  
    70   23   68 1  
    71   25   69 1  
    72   26   70 1  
    73   27   71 1  
    74   27   72 1  
    75   28   73 1  
    76   30   74 1  
    77   31   75 1  
    78   32   76 1  
    79   32   77 1  
    80   33   78 1  
    81   33   79 1  
    82   34   80 1  
    83   34   81 1  
    84   35   82 1  
    85   35   83 1  
    86   36   84 1  
    87   39   85 1  
    88   39   86 1  
    89   42   87 1  
    90   43   88 1  
    91   44   89 ar 
@<TRIPOS>SUBSTRUCTURE
     1 PHE         1

