### 
### Created by X-TOOL on Mon Sep 10 21:13:12 2018
### 

@<TRIPOS>MOLECULE
4lts_ligand
   50    52     1     0     0
SMALL
GAST_HUCK


@<TRIPOS>ATOM
      1 C4         16.0160    3.9020   -2.6220 C.ar      1 LTS        -0.0077
      2 C5         15.1670    4.8760   -3.1130 C.ar      1 LTS         0.0841
      3 C6         15.3960    5.4080   -4.3790 C.ar      1 LTS        -0.0478
      4 C10        14.6660    6.5230   -1.0220 C.ar      1 LTS         0.0864
      5 C13        16.0820    8.2650    0.6280 C.ar      1 LTS        -0.0208
      6 C15        15.0270    7.7750   -1.4700 C.ar      1 LTS        -0.0432
      7 C20        14.2670   10.5900    2.0580 C.1       1 LTS         0.2146
      8 C24        15.9000    9.9830    7.3830 C.ar      1 LTS         0.0879
      9 C28        14.2640   11.0540    6.0260 C.ar      1 LTS         0.0879
     10 C1         16.4730    4.9640   -5.1420 C.ar      1 LTS        -0.0688
     11 C2         17.3190    3.9880   -4.6410 C.ar      1 LTS        -0.0327
     12 C3         17.1030    3.4650   -3.3700 C.ar      1 LTS         0.1023
     13 S7         13.8120    5.4220   -2.1100 S.o2      1 LTS         0.0197
     14 O8         12.9610    6.1870   -2.9450 O.2       1 LTS        -0.1653
     15 O9         13.3560    4.2890   -1.4000 O.2       1 LTS        -0.1653
     16 C11        15.0410    6.1170    0.2460 C.ar      1 LTS        -0.0432
     17 C12        15.7390    6.9910    1.0570 C.ar      1 LTS        -0.0565
     18 C14        15.7250    8.6510   -0.6550 C.ar      1 LTS        -0.0565
     19 C16        16.8800    9.2300    1.4650 C.3       1 LTS         0.0547
     20 N17        16.7130    9.0930    2.9050 N.pl3     1 LTS        -0.3134
     21 C18        15.9150    9.8880    3.6820 C.cat     1 LTS         0.2319
     22 N19        14.8530   10.5750    3.2690 N.pl3     1 LTS        -0.1792
     23 N21        13.7740   10.6170    1.0460 N.1       1 LTS        -0.3373
     24 N22        16.2880    9.9950    5.0040 N.pl3     1 LTS        -0.2105
     25 C23        15.4680   10.3350    6.0980 C.ar      1 LTS         0.2046
     26 C25        15.1390   10.3120    8.4870 C.ar      1 LTS         0.0884
     27 N26        14.0020   10.9730    8.3820 N.ar      1 LTS        -0.2150
     28 C27        13.5680   11.3580    7.1840 C.ar      1 LTS         0.0884
     29 O29        17.9200    2.4900   -2.8850 O.3       1 LTS        -0.2255
     30 C30        18.7020    2.6830   -1.6920 C.3       1 LTS         0.5464
     31 F31        18.0070    3.4220   -0.7630 F         1 LTS        -0.1400
     32 F32        19.0300    1.4720   -1.0970 F         1 LTS        -0.1400
     33 F33        19.8930    3.3300   -1.9550 F         1 LTS        -0.1400
     34 H1         15.8321    3.4743   -1.6430 H         1 LTS         0.0561
     35 H2         14.7335    6.1706   -4.7722 H         1 LTS         0.0542
     36 H3         14.7607    8.0792   -2.4758 H         1 LTS         0.0618
     37 H4         16.8353    9.4503    7.5112 H         1 LTS         0.1167
     38 H5         13.8792   11.3712    5.0635 H         1 LTS         0.1167
     39 H6         16.6492    5.3815   -6.1267 H         1 LTS         0.0589
     40 H7         18.1496    3.6317   -5.2395 H         1 LTS         0.0542
     41 H8         14.7899    5.1236    0.5997 H         1 LTS         0.0618
     42 H9         16.0257    6.6735    2.0530 H         1 LTS         0.0558
     43 H10        15.9916    9.6364   -1.0196 H         1 LTS         0.0558
     44 H11        16.5811   10.2507    1.1842 H         1 LTS         0.0687
     45 H12        17.9447    9.0823    1.2312 H         1 LTS         0.0687
     46 H13        17.2356    8.3399    3.3748 H         1 LTS         0.1763
     47 H14        14.4172   11.1822    3.9777 H         1 LTS         0.2323
     48 H15        17.2778    9.8050    5.2164 H         1 LTS         0.2674
     49 H16        15.4865   10.0180    9.4708 H         1 LTS         0.1031
     50 H17        12.6462   11.9240    7.1130 H         1 LTS         0.1031
@<TRIPOS>BOND
     1    2    1 ar 
     2    1   12 ar 
     3    2    3 ar 
     4   13    2 1  
     5    3   10 ar 
     6    6    4 ar 
     7    4   13 1  
     8   16    4 ar 
     9    5   17 ar 
    10    5   18 ar 
    11   19    5 1  
    12   18    6 ar 
    13   22    7 1  
    14    7   23 3  
    15   25    8 ar 
    16    8   26 ar 
    17   25    9 ar 
    18    9   28 ar 
    19   10   11 ar 
    20   12   11 ar 
    21   12   29 1  
    22   13   14 2  
    23   13   15 2  
    24   17   16 ar 
    25   20   19 1  
    26   21   20 ar 
    27   21   22 ar 
    28   24   21 ar 
    29   24   25 1  
    30   26   27 ar 
    31   27   28 ar 
    32   29   30 1  
    33   30   31 1  
    34   30   32 1  
    35   30   33 1  
    36    1   34 1  
    37    3   35 1  
    38    6   36 1  
    39    8   37 1  
    40    9   38 1  
    41   10   39 1  
    42   11   40 1  
    43   16   41 1  
    44   17   42 1  
    45   18   43 1  
    46   19   44 1  
    47   19   45 1  
    48   20   46 1  
    49   22   47 1  
    50   24   48 1  
    51   26   49 1  
    52   28   50 1  
@<TRIPOS>SUBSTRUCTURE
     1 LTS         1

