### 
### Created by X-TOOL on Mon Sep 10 21:13:13 2018
### 

@<TRIPOS>MOLECULE
4luo_ligand
   34    36     1     0     0
SMALL
GAST_HUCK


@<TRIPOS>ATOM
      1 C01         5.0950  -12.8670  -24.0590 C.2       1 1DZ         0.1096
      2 N02         4.5270  -12.2650  -23.0130 N.pl3     1 1DZ        -0.1542
      3 N03         3.5520  -13.0090  -22.5290 N.2       1 1DZ        -0.1844
      4 C04         3.4420  -14.1280  -23.2360 C.2       1 1DZ         0.0721
      5 C05         4.4260  -14.1010  -24.2560 C.2       1 1DZ        -0.0229
      6 C06         6.2260  -12.3520  -24.8850 C.ar      1 1DZ         0.0121
      7 C07         4.8930  -10.9930  -22.4780 C.ar      1 1DZ         0.1065
      8 C08         6.1530  -12.4400  -26.2660 C.ar      1 1DZ        -0.0518
      9 C09         7.1960  -11.9660  -27.0470 C.ar      1 1DZ        -0.0616
     10 C10         8.3130  -11.4060  -26.4470 C.ar      1 1DZ        -0.0622
     11 C11         8.3850  -11.3140  -25.0660 C.ar      1 1DZ        -0.0616
     12 C12         7.3460  -11.7940  -24.2850 C.ar      1 1DZ        -0.0518
     13 C13         5.3280  -10.8890  -21.1690 C.ar      1 1DZ        -0.0318
     14 C14         5.6790   -9.6510  -20.6610 C.ar      1 1DZ        -0.0720
     15 C15         5.5860   -8.5250  -21.4630 C.ar      1 1DZ        -0.0670
     16 C16         5.1490   -8.6370  -22.7710 C.ar      1 1DZ        -0.0498
     17 C17         4.8020   -9.8750  -23.2830 C.ar      1 1DZ        -0.0242
     18 C18         5.0520   -7.4330  -23.6470 C.3       1 1DZ        -0.0326
     19 C19         2.4620  -15.2140  -22.9790 C.2       1 1DZ         0.0688
     20 O20         2.4700  -16.2600  -23.6810 O.co2     1 1DZ        -0.5607
     21 O21         1.6430  -15.0650  -22.0410 O.co2     1 1DZ        -0.5607
     22 H1          4.6228  -14.8553  -25.0165 H         1 1DZ         0.0403
     23 H2          5.2805  -12.8794  -26.7357 H         1 1DZ         0.0621
     24 H3          7.1378  -12.0334  -28.1273 H         1 1DZ         0.0616
     25 H4          9.1302  -11.0400  -27.0579 H         1 1DZ         0.0613
     26 H5          9.2539  -10.8667  -24.5970 H         1 1DZ         0.0616
     27 H6          7.4081  -11.7336  -23.2045 H         1 1DZ         0.0621
     28 H7          5.3935  -11.7727  -20.5447 H         1 1DZ         0.0533
     29 H8          6.0260   -9.5621  -19.6379 H         1 1DZ         0.0584
     30 H9          5.8563   -7.5538  -21.0646 H         1 1DZ         0.0502
     31 H10         4.4614   -9.9662  -24.3081 H         1 1DZ         0.0526
     32 H11         5.3639   -6.5423  -23.0818 H         1 1DZ         0.0389
     33 H12         4.0125   -7.3077  -23.9844 H         1 1DZ         0.0389
     34 H13         5.7081   -7.5613  -24.5205 H         1 1DZ         0.0389
@<TRIPOS>BOND
     1    1    2 1  
     2    1    5 2  
     3    1    6 1  
     4    2    3 1  
     5    2    7 1  
     6    3    4 2  
     7    4    5 1  
     8    4   19 1  
     9    6    8 ar 
    10    6   12 ar 
    11    7   13 ar 
    12    7   17 ar 
    13    8    9 ar 
    14    9   10 ar 
    15   10   11 ar 
    16   11   12 ar 
    17   13   14 ar 
    18   14   15 ar 
    19   15   16 ar 
    20   16   17 ar 
    21   16   18 1  
    22   19   20 ar 
    23   19   21 ar 
    24    5   22 1  
    25    8   23 1  
    26    9   24 1  
    27   10   25 1  
    28   11   26 1  
    29   12   27 1  
    30   13   28 1  
    31   14   29 1  
    32   15   30 1  
    33   17   31 1  
    34   18   32 1  
    35   18   33 1  
    36   18   34 1  
@<TRIPOS>SUBSTRUCTURE
     1 1DZ         1

