### 
### Created by X-TOOL on Mon Sep 10 21:13:12 2018
### 

@<TRIPOS>MOLECULE
4luv_ligand
   21    22     1     0     0
SMALL
GAST_HUCK


@<TRIPOS>ATOM
      1 O01        15.6690   12.9860   20.3040 O.3       1 1XS        -0.2499
      2 C02        16.7810   13.0660   19.6160 C.2       1 1XS         0.1482
      3 C03        15.6390   11.9280   21.0790 C.2       1 1XS         0.1222
      4 C04        17.5850   11.9660   19.9380 C.2       1 1XS        -0.0463
      5 C05        16.8320   11.2160   20.8990 C.2       1 1XS        -0.0503
      6 C06        17.0950   14.1720   18.6690 C.2       1 1XS         0.0921
      7 C07        14.4870   11.5930   21.9600 C.ar      1 1XS         0.0086
      8 C08        13.4550   10.3450   23.7280 C.ar      1 1XS         0.0725
      9 C09        14.5680   10.6160   22.9430 C.ar      1 1XS        -0.0411
     10 C10        12.2780   11.0530   23.5280 C.ar      1 1XS         0.1453
     11 O11        16.3060   15.1540   18.5960 O.co2     1 1XS        -0.5611
     12 C12        13.3080   12.2970   21.7650 C.ar      1 1XS        -0.0550
     13 C13        12.2020   12.0280   22.5490 C.ar      1 1XS        -0.0286
     14 CL1        13.5270    9.1320   24.9580 Cl        1 1XS        -0.0725
     15 O15        18.1410   14.1320   17.9670 O.co2     1 1XS        -0.5611
     16 F16        11.2150   10.7980   24.2750 F         1 1XS        -0.1835
     17 H1         18.5720   11.7306   19.5425 H         1 1XS         0.0415
     18 H2         17.1254   10.2877   21.3869 H         1 1XS         0.0386
     19 H3         15.4916   10.0697   23.0964 H         1 1XS         0.0604
     20 H4         13.2539   13.0595   20.9964 H         1 1XS         0.0600
     21 H5         11.2801   12.5778   22.3978 H         1 1XS         0.0601
@<TRIPOS>BOND
     1    1    2 1  
     2    1    3 1  
     3    2    4 2  
     4    2    6 1  
     5    3    5 2  
     6    3    7 1  
     7    4    5 1  
     8    6   11 ar 
     9    6   15 ar 
    10    7    9 ar 
    11    7   12 ar 
    12    9    8 ar 
    13    8   10 ar 
    14    8   14 1  
    15   10   13 ar 
    16   10   16 1  
    17   12   13 ar 
    18    4   17 1  
    19    5   18 1  
    20    9   19 1  
    21   12   20 1  
    22   13   21 1  
@<TRIPOS>SUBSTRUCTURE
     1 1XS         1

