### 
### Created by X-TOOL on Mon Sep 10 21:13:13 2018
### 

@<TRIPOS>MOLECULE
4luz_ligand
   57    61     1     0     0
SMALL
GAST_HUCK


@<TRIPOS>ATOM
      1 C01       -17.6170   13.6990  -18.4240 C.2       1 1XT         0.0915
      2 O02       -18.6070   13.5410  -17.6520 O.co2     1 1XT        -0.5613
      3 O03       -16.8790   14.7240  -18.3400 O.co2     1 1XT        -0.5613
      4 C04       -17.2910   12.6800  -19.4660 C.2       1 1XT         0.1473
      5 C05       -18.0490   11.5560  -19.8290 C.2       1 1XT        -0.0473
      6 C06       -17.2940   10.9250  -20.8720 C.2       1 1XT        -0.0514
      7 C07       -16.1560   11.7260  -21.0480 C.2       1 1XT         0.1204
      8 O08       -16.2030   12.7270  -20.2020 O.3       1 1XT        -0.2508
      9 C09       -15.0390   11.5020  -22.0120 C.ar      1 1XT         0.0056
     10 C10       -13.8700   12.2450  -21.8870 C.ar      1 1XT        -0.0594
     11 C11       -12.8240   12.0410  -22.7750 C.ar      1 1XT        -0.0582
     12 C12       -12.9510   11.0900  -23.7780 C.ar      1 1XT        -0.0134
     13 C13       -14.1150   10.3470  -23.9000 C.ar      1 1XT        -0.0582
     14 C14       -15.1640   10.5560  -23.0180 C.ar      1 1XT        -0.0594
     15 C15       -11.8340   10.8540  -24.7380 C.3       1 1XT         0.1047
     16 O16       -11.2410   11.9560  -25.3150 O.3       1 1XT        -0.3040
     17 C17        -9.9370   12.2420  -24.9870 C.ar      1 1XT         0.0961
     18 C18        -8.9550   11.2820  -25.1660 C.ar      1 1XT        -0.0306
     19 C19        -7.6330   11.5610  -24.8460 C.ar      1 1XT        -0.0587
     20 C20        -7.2930   12.8070  -24.3470 C.ar      1 1XT         0.0027
     21 C21        -8.2830   13.7630  -24.1700 C.ar      1 1XT        -0.0587
     22 C22        -9.6050   13.4900  -24.4850 C.ar      1 1XT        -0.0306
     23 C23        -5.8810   13.1480  -23.9780 C.2       1 1XT         0.1026
     24 C24        -5.2040   14.3580  -24.3080 C.2       1 1XT        -0.0271
     25 C25        -3.9100   14.2210  -23.7370 C.2       1 1XT         0.0683
     26 N26        -3.8740   13.0460  -23.1340 N.2       1 1XT        -0.1886
     27 N27        -5.0230   12.4120  -23.2660 N.pl3     1 1XT        -0.1574
     28 C28        -5.2320   11.1190  -22.7000 C.ar      1 1XT         0.1054
     29 C29        -4.9670    9.9860  -23.4530 C.ar      1 1XT        -0.0245
     30 C30        -5.1510    8.7320  -22.8950 C.ar      1 1XT        -0.0499
     31 C31        -5.5900    8.6200  -21.5880 C.ar      1 1XT        -0.0672
     32 C32        -5.8490    9.7520  -20.8290 C.ar      1 1XT        -0.0721
     33 C33        -5.6620   11.0060  -21.3860 C.ar      1 1XT        -0.0321
     34 C34        -4.8790    7.5070  -23.7060 C.3       1 1XT        -0.0326
     35 C35        -2.7770   15.1900  -23.7720 C.2       1 1XT         0.0680
     36 O36        -2.1970   15.4840  -22.6920 O.co2     1 1XT        -0.5608
     37 O37        -2.3990   15.6960  -24.8610 O.co2     1 1XT        -0.5608
     38 H1        -19.0014   11.2338  -19.4105 H         1 1XT         0.0413
     39 H2        -17.5501   10.0155  -21.4134 H         1 1XT         0.0378
     40 H3        -13.7765   12.9818  -21.0975 H         1 1XT         0.0593
     41 H4        -11.9126   12.6210  -22.6861 H         1 1XT         0.0557
     42 H5        -14.2048    9.6037  -24.6839 H         1 1XT         0.0557
     43 H6        -16.0785    9.9820  -23.1145 H         1 1XT         0.0593
     44 H7        -12.2278   10.2287  -25.5528 H         1 1XT         0.0781
     45 H8        -11.0490   10.3029  -24.1994 H         1 1XT         0.0781
     46 H9         -9.2201   10.3069  -25.5583 H         1 1XT         0.0550
     47 H10        -6.8689   10.8051  -24.9865 H         1 1XT         0.0601
     48 H11        -8.0184   14.7389  -23.7792 H         1 1XT         0.0601
     49 H12       -10.3702   14.2441  -24.3403 H         1 1XT         0.0550
     50 H13        -5.5933   15.2029  -24.8741 H         1 1XT         0.0373
     51 H14        -4.6171   10.0811  -24.4746 H         1 1XT         0.0524
     52 H15        -5.7331    7.6377  -21.1524 H         1 1XT         0.0501
     53 H16        -6.1956    9.6555  -19.8064 H         1 1XT         0.0583
     54 H17        -5.8510   11.8963  -20.7972 H         1 1XT         0.0532
     55 H18        -4.5414    7.8002  -24.7110 H         1 1XT         0.0389
     56 H19        -5.7991    6.9098  -23.7880 H         1 1XT         0.0389
     57 H20        -4.0963    6.9092  -23.2161 H         1 1XT         0.0389
@<TRIPOS>BOND
     1    1    2 ar 
     2    1    3 ar 
     3    1    4 1  
     4    4    5 2  
     5    4    8 1  
     6    5    6 1  
     7    6    7 2  
     8    7    8 1  
     9    7    9 1  
    10    9   10 ar 
    11    9   14 ar 
    12   10   11 ar 
    13   11   12 ar 
    14   12   13 ar 
    15   12   15 1  
    16   13   14 ar 
    17   15   16 1  
    18   16   17 1  
    19   17   18 ar 
    20   17   22 ar 
    21   18   19 ar 
    22   19   20 ar 
    23   20   21 ar 
    24   20   23 1  
    25   21   22 ar 
    26   23   24 2  
    27   23   27 1  
    28   24   25 1  
    29   25   26 2  
    30   25   35 1  
    31   26   27 1  
    32   27   28 1  
    33   28   29 ar 
    34   28   33 ar 
    35   29   30 ar 
    36   30   31 ar 
    37   30   34 1  
    38   31   32 ar 
    39   32   33 ar 
    40   35   36 ar 
    41   35   37 ar 
    42    5   38 1  
    43    6   39 1  
    44   10   40 1  
    45   11   41 1  
    46   13   42 1  
    47   14   43 1  
    48   15   44 1  
    49   15   45 1  
    50   18   46 1  
    51   19   47 1  
    52   21   48 1  
    53   22   49 1  
    54   24   50 1  
    55   29   51 1  
    56   31   52 1  
    57   32   53 1  
    58   33   54 1  
    59   34   55 1  
    60   34   56 1  
    61   34   57 1  
@<TRIPOS>SUBSTRUCTURE
     1 1XT         1

