### 
### Created by X-TOOL on Mon Sep 10 21:13:17 2018
### 

@<TRIPOS>MOLECULE
4lv4_ligand
   20    21     1     0     0
SMALL
GAST_HUCK


@<TRIPOS>ATOM
      1 O01        11.0650  160.0510   20.7510 O.co2     1 8HC        -0.5566
      2 C02        11.7830  159.4190   21.5630 C.2       1 8HC         0.0817
      3 O03        11.7000  159.5890   22.8360 O.co2     1 8HC        -0.5566
      4 C04        12.7330  158.4070   21.0250 C.ar      1 8HC         0.0802
      5 N05        13.4000  157.7490   21.9530 N.ar      1 8HC        -0.2783
      6 C06        14.3010  156.7960   21.6770 C.ar      1 8HC         0.0864
      7 C07        14.5670  156.4500   20.3760 C.ar      1 8HC         0.0008
      8 C08        15.5300  155.4350   20.1450 C.ar      1 8HC        -0.0596
      9 C09        16.1670  154.8250   21.2350 C.ar      1 8HC        -0.0685
     10 C10        15.8680  155.2050   22.5550 C.ar      1 8HC        -0.0280
     11 C11        14.9220  156.1980   22.7780 C.ar      1 8HC         0.1172
     12 O12        14.5280  156.6810   24.0110 O.3       1 8HC        -0.3256
     13 C13        13.8680  157.1290   19.3290 C.ar      1 8HC        -0.0370
     14 C14        12.9330  158.1320   19.6670 C.ar      1 8HC        -0.0213
     15 H          15.7720  155.1327   19.1325 H         1 8HC         0.0524
     16 H          16.9017  154.0481   21.0570 H         1 8HC         0.0611
     17 H          16.3698  154.7287   23.3895 H         1 8HC         0.0535
     18 H          13.8697  157.3552   23.8901 H         1 8HC         0.2521
     19 H          14.0533  156.8773   18.2910 H         1 8HC         0.0748
     20 H          12.3883  158.6710   18.9003 H         1 8HC         0.0713
@<TRIPOS>BOND
     1    1    2 ar 
     2    2    3 ar 
     3    2    4 1  
     4    4    5 ar 
     5    4   14 ar 
     6    5    6 ar 
     7    6    7 ar 
     8    6   11 ar 
     9    7    8 ar 
    10    7   13 ar 
    11    8    9 ar 
    12    9   10 ar 
    13   10   11 ar 
    14   11   12 1  
    15   13   14 ar 
    16    8   15 1  
    17    9   16 1  
    18   10   17 1  
    19   12   18 1  
    20   13   19 1  
    21   14   20 1  
@<TRIPOS>SUBSTRUCTURE
     1 8HC         1

