### 
### Created by X-TOOL on Mon Sep 10 21:13:13 2018
### 

@<TRIPOS>MOLECULE
4lvt_ligand
  122   128     1     0     0
SMALL
GAST_HUCK


@<TRIPOS>ATOM
      1 C4          9.9910    5.7590   -4.5290 C.ar      1 1XJ        -0.0663
      2 C5          8.0250    4.4560   -4.1250 C.ar      1 1XJ        -0.0663
      3 C6          8.0570   -1.3920  -11.3280 C.ar      1 1XJ        -0.0534
      4 C7          5.7850   -0.9660  -10.6380 C.ar      1 1XJ        -0.0534
      5 C8          8.4510   -0.2480  -10.6760 C.ar      1 1XJ        -0.0381
      6 C10         7.2300   -7.6080  -11.5980 C.ar      1 1XJ        -0.0408
      7 C13         6.4660   -6.6220  -12.2060 C.ar      1 1XJ        -0.0466
      8 C15         8.7010    3.7190   -3.1770 C.ar      1 1XJ        -0.0567
      9 C17         8.6700    5.4680   -4.8080 C.ar      1 1XJ        -0.0459
     10 C20         6.9060   -8.0140  -10.3210 C.ar      1 1XJ         0.0634
     11 C21         9.5500   -6.7900   -8.4610 C.ar      1 1XJ         0.0154
     12 C22         5.3950   -6.0570  -11.5350 C.ar      1 1XJ         0.1014
     13 C24        10.0250    4.0090   -2.9180 C.ar      1 1XJ         0.0314
     14 C26         8.2160    6.2570   -7.1020 C.2       1 1XJ        -0.0121
     15 C28         6.8740    7.1220   -5.1880 C.3       1 1XJ        -0.0354
     16 C1          8.1010   -4.4240   -8.2700 C.ar      1 1XJ        -0.0687
     17 C2          8.8730   -4.6880   -9.3780 C.ar      1 1XJ        -0.0678
     18 C3          8.0420   -5.3460   -7.2510 C.ar      1 1XJ        -0.0678
     19 C9          6.2040    0.1810   -9.9880 C.ar      1 1XJ        -0.0381
     20 C11         9.5970   -5.8600   -9.4700 C.ar      1 1XJ        -0.0498
     21 C12         8.7660   -6.5200   -7.3550 C.ar      1 1XJ        -0.0498
     22 C14        10.6840    5.0170   -3.5910 C.ar      1 1XJ        -0.0567
     23 C16         5.0590   -6.4400  -10.2590 C.ar      1 1XJ        -0.0215
     24 C18         6.7220   -1.7320  -11.3070 C.ar      1 1XJ         0.0377
     25 C19         7.5440    0.5470  -10.0080 C.ar      1 1XJ         0.0460
     26 C23         5.8490   -7.3970   -9.6870 C.ar      1 1XJ         0.1161
     27 C25         7.9390    6.2750   -5.7860 C.2       1 1XJ        -0.0491
     28 C27         6.3250   -2.9820  -11.9580 C.2       1 1XJ         0.2151
     29 C29         7.4750    7.1200   -8.0620 C.3       1 1XJ        -0.0089
     30 C30         5.9670    7.6930   -6.2610 C.3       1 1XJ        -0.0417
     31 C31         6.9480    2.6030   -8.9670 C.3       1 1XJ         0.0681
     32 C32         9.0880    2.3470  -10.0700 C.3       1 1XJ         0.0681
     33 C33         7.5170    3.6500   -8.0320 C.3       1 1XJ        -0.0098
     34 C34         9.6920    3.4540   -9.2200 C.3       1 1XJ        -0.0098
     35 C35        10.4660  -12.9520   -8.6360 C.3       1 1XJ        -0.0078
     36 C36        10.1070  -14.3610  -10.5970 C.3       1 1XJ        -0.0078
     37 C37        10.5900  -14.2320   -7.8450 C.3       1 1XJ         0.0878
     38 C38        10.3390  -15.5480   -9.6970 C.3       1 1XJ         0.0878
     39 C39         6.7890    8.2780   -7.3740 C.3       1 1XJ        -0.0228
     40 C40         5.9040    9.0090   -8.3590 C.3       1 1XJ        -0.0576
     41 C41         7.7770    9.2640   -6.8040 C.3       1 1XJ        -0.0576
     42 C42         9.2380    5.3690   -7.7390 C.3       1 1XJ         0.0019
     43 C43         8.8790  -10.9580   -9.6150 C.3       1 1XJ         0.0107
     44 C44         9.2050  -12.0720  -10.5680 C.3       1 1XJ        -0.0296
     45 C45         9.9650   -8.8220  -10.2950 C.3       1 1XJ         0.0295
     46 C46         8.6830   -9.6440  -10.3400 C.3       1 1XJ         0.0510
     47 C47         4.3540   -9.3150   -8.5120 C.3       1 1XJ         0.5245
     48 N48         8.0220    1.7010   -9.3400 N.pl3     1 1XJ        -0.2958
     49 N51         7.6150   -8.9860   -9.6030 N.pl3     1 1XJ        -0.3173
     50 N52         5.0060   -3.3430  -11.6540 N.am      1 1XJ        -0.1565
     51 N49         8.6410    4.3760   -8.6950 N.4       1 1XJ         0.2518
     52 N50         9.5680  -13.2640   -9.7600 N.4       1 1XJ         0.2385
     53 O53         7.0790   -3.7020  -12.5920 O.2       1 1XJ        -0.3892
     54 O54         6.5150   -8.5000   -7.3440 O.2       1 1XJ        -0.1632
     55 O55         4.5460   -6.9290   -7.4770 O.2       1 1XJ        -0.1632
     56 O56         3.0600   -4.9640  -11.6600 O.2       1 1XJ        -0.1473
     57 O57         4.4910   -4.7600  -13.6850 O.2       1 1XJ        -0.1473
     58 O58        11.2480  -15.1760   -8.6740 O.3       1 1XJ        -0.3693
     59 F59         3.8020   -9.8590   -7.4190 F         1 1XJ        -0.1501
     60 F60         3.2990   -8.9640   -9.2980 F         1 1XJ        -0.1501
     61 F61         5.0300  -10.3050   -9.1560 F         1 1XJ        -0.1501
     62 S62        10.4410   -8.3240   -8.6020 S.3       1 1XJ        -0.0995
     63 S63         5.4030   -7.9350   -8.0850 S.o2      1 1XJ         0.0871
     64 S64         4.3720   -4.7860  -12.2420 S.o2      1 1XJ         0.0844
     65 CL6        10.8630    3.0740   -1.7390 Cl        1 1XJ        -0.0781
     66 H1         10.4861    6.5721   -5.0474 H         1 1XJ         0.0546
     67 H2          6.9836    4.2406   -4.3352 H         1 1XJ         0.0546
     68 H3          8.7794   -2.0120  -11.8464 H         1 1XJ         0.0636
     69 H4          4.7414   -1.2589  -10.6232 H         1 1XJ         0.0636
     70 H5          9.4973    0.0353  -10.6872 H         1 1XJ         0.0530
     71 H6          8.0697   -8.0527  -12.1198 H         1 1XJ         0.0516
     72 H7          6.7087   -6.2930  -13.2100 H         1 1XJ         0.0602
     73 H8          8.1990    2.9214   -2.6414 H         1 1XJ         0.0600
     74 H9          7.3412    7.9496   -4.6341 H         1 1XJ         0.0344
     75 H10         6.2739    6.5112   -4.4975 H         1 1XJ         0.0344
     76 H11         7.5438   -3.4968   -8.2007 H         1 1XJ         0.0559
     77 H12         8.9132   -3.9680  -10.1874 H         1 1XJ         0.0600
     78 H13         7.4337   -5.1543   -6.3745 H         1 1XJ         0.0600
     79 H14         5.4840    0.7966   -9.4610 H         1 1XJ         0.0530
     80 H15        10.2075   -6.0475  -10.3459 H         1 1XJ         0.0565
     81 H16         8.7175   -7.2450   -6.5506 H         1 1XJ         0.0565
     82 H17        11.7285    5.2238   -3.3875 H         1 1XJ         0.0600
     83 H18         4.2144   -6.0071   -9.7353 H         1 1XJ         0.0621
     84 H19         6.7151    6.5106   -8.5730 H         1 1XJ         0.0458
     85 H20         8.1848    7.5176   -8.8023 H         1 1XJ         0.0458
     86 H21         5.3355    8.4799   -5.8228 H         1 1XJ         0.0285
     87 H22         5.3290    6.8918   -6.6623 H         1 1XJ         0.0285
     88 H23         6.5394    3.0881   -9.8657 H         1 1XJ         0.0569
     89 H24         6.1501    2.0424   -8.4579 H         1 1XJ         0.0569
     90 H25         9.8650    1.6075  -10.3137 H         1 1XJ         0.0569
     91 H26         8.6866    2.7770  -10.9995 H         1 1XJ         0.0569
     92 H27         7.8887    3.1597   -7.1202 H         1 1XJ         0.0834
     93 H28         6.7271    4.3679   -7.7663 H         1 1XJ         0.0834
     94 H29        10.3991    4.0309   -9.8341 H         1 1XJ         0.0834
     95 H30        10.2270    3.0019   -8.3718 H         1 1XJ         0.0834
     96 H31        11.4510  -12.6345   -9.0088 H         1 1XJ         0.0837
     97 H32        10.0360  -12.1552   -8.0114 H         1 1XJ         0.0837
     98 H33         9.3843  -14.6223  -11.3840 H         1 1XJ         0.0837
     99 H34        11.0554  -14.0493  -11.0589 H         1 1XJ         0.0837
    100 H35         9.5917  -14.6033   -7.5702 H         1 1XJ         0.0613
    101 H36        11.1796  -14.0558   -6.9332 H         1 1XJ         0.0613
    102 H37        10.7608  -16.3785  -10.2820 H         1 1XJ         0.0613
    103 H38         9.3857  -15.8630   -9.2476 H         1 1XJ         0.0613
    104 H39         6.5225    9.4298   -9.1654 H         1 1XJ         0.0237
    105 H40         5.3732    9.8219   -7.8419 H         1 1XJ         0.0237
    106 H41         5.1728    8.3070   -8.7861 H         1 1XJ         0.0237
    107 H42         8.4319    8.7520   -6.0836 H         1 1XJ         0.0237
    108 H43         7.2344   10.0741   -6.2948 H         1 1XJ         0.0237
    109 H44         8.3856    9.6853   -7.6177 H         1 1XJ         0.0237
    110 H45         9.7662    4.8183   -6.9467 H         1 1XJ         0.1006
    111 H46         9.9541    5.9974   -8.2887 H         1 1XJ         0.1006
    112 H47         9.7049  -10.8496   -8.8967 H         1 1XJ         0.0339
    113 H48         7.9541  -11.2092   -9.0752 H         1 1XJ         0.0339
    114 H49        10.0507  -11.7818  -11.2087 H         1 1XJ         0.0815
    115 H50         8.3299  -12.2968  -11.1954 H         1 1XJ         0.0815
    116 H51         9.8197   -7.9141  -10.8987 H         1 1XJ         0.0424
    117 H52        10.7804   -9.4219  -10.7253 H         1 1XJ         0.0424
    118 H53         8.3890   -9.8121  -11.3866 H         1 1XJ         0.0559
    119 H54         7.3959   -9.2181   -8.6237 H         1 1XJ         0.1759
    120 H55         4.4413   -2.7429  -11.0874 H         1 1XJ         0.2133
    121 H56         8.2605    4.8830   -9.4788 H         1 1XJ         0.2052
    122 H57         8.7101  -13.6039   -9.3545 H         1 1XJ         0.2035
@<TRIPOS>BOND
     1    9    1 ar 
     2    1   22 ar 
     3    2    8 ar 
     4    9    2 ar 
     5    3    5 ar 
     6   24    3 ar 
     7    4   19 ar 
     8   24    4 ar 
     9    5   25 ar 
    10    7    6 ar 
    11    6   10 ar 
    12   12    7 ar 
    13    8   13 ar 
    14   27    9 1  
    15   26   10 ar 
    16   10   49 1  
    17   11   20 ar 
    18   11   21 ar 
    19   62   11 1  
    20   12   23 ar 
    21   64   12 1  
    22   22   13 ar 
    23   13   65 1  
    24   14   27 2  
    25   14   29 1  
    26   42   14 1  
    27   27   15 1  
    28   15   30 1  
    29   17   16 ar 
    30   18   16 ar 
    31   20   17 ar 
    32   21   18 ar 
    33   19   25 ar 
    34   23   26 ar 
    35   28   24 1  
    36   25   48 1  
    37   26   63 1  
    38   50   28 am 
    39   28   53 2  
    40   29   39 1  
    41   39   30 1  
    42   31   33 1  
    43   48   31 1  
    44   32   34 1  
    45   48   32 1  
    46   33   51 1  
    47   34   51 1  
    48   35   37 1  
    49   52   35 1  
    50   36   38 1  
    51   52   36 1  
    52   37   58 1  
    53   38   58 1  
    54   39   40 1  
    55   39   41 1  
    56   51   42 1  
    57   43   44 1  
    58   46   43 1  
    59   44   52 1  
    60   46   45 1  
    61   45   62 1  
    62   49   46 1  
    63   47   59 1  
    64   47   60 1  
    65   47   61 1  
    66   63   47 1  
    67   50   64 am 
    68   63   54 2  
    69   63   55 2  
    70   64   56 2  
    71   64   57 2  
    72    1   66 1  
    73    2   67 1  
    74    3   68 1  
    75    4   69 1  
    76    5   70 1  
    77    6   71 1  
    78    7   72 1  
    79    8   73 1  
    80   15   74 1  
    81   15   75 1  
    82   16   76 1  
    83   17   77 1  
    84   18   78 1  
    85   19   79 1  
    86   20   80 1  
    87   21   81 1  
    88   22   82 1  
    89   23   83 1  
    90   29   84 1  
    91   29   85 1  
    92   30   86 1  
    93   30   87 1  
    94   31   88 1  
    95   31   89 1  
    96   32   90 1  
    97   32   91 1  
    98   33   92 1  
    99   33   93 1  
   100   34   94 1  
   101   34   95 1  
   102   35   96 1  
   103   35   97 1  
   104   36   98 1  
   105   36   99 1  
   106   37  100 1  
   107   37  101 1  
   108   38  102 1  
   109   38  103 1  
   110   40  104 1  
   111   40  105 1  
   112   40  106 1  
   113   41  107 1  
   114   41  108 1  
   115   41  109 1  
   116   42  110 1  
   117   42  111 1  
   118   43  112 1  
   119   43  113 1  
   120   44  114 1  
   121   44  115 1  
   122   45  116 1  
   123   45  117 1  
   124   46  118 1  
   125   49  119 1  
   126   50  120 1  
   127   51  121 1  
   128   52  122 1  
@<TRIPOS>SUBSTRUCTURE
     1 1XJ         1

