### 
### Created by X-TOOL on Fri Sep 26 17:34:59 2014
### 

@<TRIPOS>MOLECULE
4lw1_ligand
   21    22     1     0     0
SMALL
GAST_HUCK


@<TRIPOS>ATOM
      1 O01       -15.5000  -12.8220   20.5450 O.3       1 1XS        -0.2499
      2 C02       -16.7290  -12.8670   19.8610 C.2       1 1XS         0.1482
      3 C03       -15.4770  -11.6690   21.3550 C.2       1 1XS         0.1222
      4 C04       -17.4370  -11.7730   20.2330 C.2       1 1XS        -0.0463
      5 C05       -16.6340  -11.0100   21.1760 C.2       1 1XS        -0.0503
      6 C06       -17.1240  -13.9500   18.9130 C.2       1 1XS         0.0921
      7 C07       -14.3030  -11.3090   22.2040 C.ar      1 1XS         0.0086
      8 C08       -11.9590  -11.6960   22.6390 C.ar      1 1XS         0.0725
      9 C09       -13.1130  -11.9620   21.9250 C.ar      1 1XS        -0.0411
     10 C10       -11.9670  -10.7610   23.6650 C.ar      1 1XS         0.1453
     11 O11       -16.3600  -14.9470   18.7560 O.co2     1 1XS        -0.5611
     12 C12       -14.3320  -10.3620   23.2280 C.ar      1 1XS        -0.0550
     13 C13       -13.1830  -10.0740   23.9640 C.ar      1 1XS        -0.0286
     14 CL1       -10.5180  -12.5560   22.2350 Cl        1 1XS        -0.0725
     15 O15       -18.2050  -13.8710   18.2670 O.co2     1 1XS        -0.5611
     16 F16       -10.8500  -10.5180   24.3450 F         1 1XS        -0.1835
     17 H1        -18.4352  -11.5103   19.8858 H         1 1XS         0.0415
     18 H2        -16.9195  -10.0728   21.6515 H         1 1XS         0.0386
     19 H3        -13.0861  -12.6977   21.1293 H         1 1XS         0.0604
     20 H4        -15.2574   -9.8446   23.4540 H         1 1XS         0.0600
     21 H5        -13.2125   -9.3349   24.7564 H         1 1XS         0.0601
@<TRIPOS>BOND
     1    1    2 1  
     2    1    3 1  
     3    2    4 2  
     4    2    6 1  
     5    3    5 2  
     6    3    7 1  
     7    4    5 1  
     8    6   11 ar 
     9    6   15 ar 
    10    7    9 ar 
    11    7   12 ar 
    12    9    8 ar 
    13    8   10 ar 
    14    8   14 1  
    15   10   13 ar 
    16   10   16 1  
    17   12   13 ar 
    18    4   17 1  
    19    5   18 1  
    20    9   19 1  
    21   12   20 1  
    22   13   21 1  
@<TRIPOS>SUBSTRUCTURE
     1 1XS         1

