### 
### Created by X-TOOL on Mon Sep 10 21:13:13 2018
### 

@<TRIPOS>MOLECULE
4lwc_ligand
   55    59     1     0     0
SMALL
GAST_HUCK


@<TRIPOS>ATOM
      1 C01        -4.6010   11.3190   -1.9490 C.2       1 1XU        -0.0034
      2 C02        -3.3070   11.6890   -1.7470 C.2       1 1XU        -0.0395
      3 C03        -3.0570   11.3260   -0.3900 C.2       1 1XU         0.1023
      4 N04        -4.1490   10.8210    0.0820 N.pl3     1 1XU        -0.1585
      5 N05        -5.0530   10.8070   -0.8210 N.2       1 1XU        -0.2054
      6 C06        -4.3810   10.3200    1.4160 C.ar      1 1XU         0.1116
      7 C07        -1.7460   11.5570    0.3430 C.ar      1 1XU         0.0057
      8 C08        -5.1120   11.1090    2.3480 C.ar      1 1XU        -0.0248
      9 C09        -5.3550   10.6530    3.6070 C.ar      1 1XU        -0.0513
     10 C10        -4.8750    9.3850    3.9870 C.ar      1 1XU         0.0471
     11 C11        -4.1390    8.5830    3.0470 C.ar      1 1XU         0.0506
     12 C12        -3.8990    9.0270    1.8040 C.ar      1 1XU        -0.0111
     13 CL1        -3.5480    6.9790    3.5750 Cl        1 1XU        -0.0717
     14 CL2        -5.1630    8.7730    5.5630 Cl        1 1XU        -0.0763
     15 C15        -0.5390   11.2010   -0.2260 C.ar      1 1XU        -0.0574
     16 C16         0.6490   11.4370    0.4580 C.ar      1 1XU        -0.0568
     17 C17         0.6120   12.0400    1.7210 C.ar      1 1XU        -0.0179
     18 C18        -0.6120   12.4140    2.2990 C.ar      1 1XU        -0.0568
     19 C19        -1.7770   12.1810    1.6200 C.ar      1 1XU        -0.0574
     20 C20         1.9520   12.3320    2.5210 C.3       1 1XU         0.0690
     21 N21         3.0480   11.6060    1.9170 N.am      1 1XU        -0.2882
     22 C22         3.6360   10.7400    2.9260 C.2       1 1XU         0.0792
     23 C23         4.7140    9.7620    2.5190 C.ar      1 1XU         0.0368
     24 C24         6.0240    9.8810    3.1100 C.ar      1 1XU        -0.0454
     25 C25         7.0010    8.9970    2.7550 C.ar      1 1XU        -0.0484
     26 C26         6.6820    7.9990    1.8240 C.ar      1 1XU         0.0162
     27 C27         5.3640    7.8880    1.2280 C.ar      1 1XU        -0.0345
     28 C28         4.4030    8.7450    1.5690 C.ar      1 1XU         0.0569
     29 S29         2.9650   10.5260    4.4320 S.2       1 1XU        -0.2568
     30 C30         7.6820    6.9620    1.3370 C.2       1 1XU         0.1283
     31 C31         8.8620    6.4790    1.9200 C.2       1 1XU        -0.0462
     32 C32         9.3660    5.4900    0.9710 C.2       1 1XU        -0.0424
     33 C33         8.4110    5.4870   -0.0820 C.2       1 1XU         0.1517
     34 O34         7.4690    6.3410    0.1740 O.3       1 1XU        -0.2466
     35 C35         8.3910    4.6860   -1.3320 C.2       1 1XU         0.0945
     36 O36         9.2570    3.8370   -1.5510 O.co2     1 1XU        -0.5602
     37 O37         7.4510    4.9200   -2.1600 O.co2     1 1XU        -0.5602
     38 CL3         2.8980    8.5850    0.8680 Cl        1 1XU        -0.0648
     39 H1         -5.1624   11.4265   -2.8759 H         1 1XU         0.0667
     40 H2         -2.6225   12.1534   -2.4553 H         1 1XU         0.0360
     41 H3         -5.4796   12.0847    2.0515 H         1 1XU         0.0589
     42 H4         -5.9128   11.2602    4.3107 H         1 1XU         0.0606
     43 H5         -3.3465    8.4145    1.1006 H         1 1XU         0.0593
     44 H6         -0.5174   10.7376   -1.2057 H         1 1XU         0.0608
     45 H7          1.5979   11.1557    0.0158 H         1 1XU         0.0561
     46 H8         -0.6338   12.8837    3.2757 H         1 1XU         0.0561
     47 H9         -2.7253   12.4728    2.0567 H         1 1XU         0.0608
     48 H10         1.8318   12.0099    3.5659 H         1 1XU         0.0712
     49 H11         2.1676   13.4103    2.4922 H         1 1XU         0.0712
     50 H12         3.3498   11.6862    0.9670 H         1 1XU         0.1994
     51 H13         6.2306   10.6652    3.8294 H         1 1XU         0.0666
     52 H14         7.9955    9.0647    3.1809 H         1 1XU         0.0616
     53 H15         5.1610    7.1068    0.5044 H         1 1XU         0.0622
     54 H16         9.3046    6.7755    2.8698 H         1 1XU         0.0417
     55 H17        10.2708    4.8893    1.0519 H         1 1XU         0.0426
@<TRIPOS>BOND
     1    1    2 1  
     2    1    5 2  
     3    2    3 2  
     4    3    4 1  
     5    3    7 1  
     6    4    5 1  
     7    4    6 1  
     8    6    8 ar 
     9    6   12 ar 
    10    7   15 ar 
    11    7   19 ar 
    12    8    9 ar 
    13    9   10 ar 
    14   10   11 ar 
    15   10   14 1  
    16   11   12 ar 
    17   11   13 1  
    18   15   16 ar 
    19   16   17 ar 
    20   17   18 ar 
    21   17   20 1  
    22   18   19 ar 
    23   20   21 1  
    24   21   22 am 
    25   22   23 1  
    26   22   29 2  
    27   23   24 ar 
    28   23   28 ar 
    29   24   25 ar 
    30   25   26 ar 
    31   26   27 ar 
    32   26   30 1  
    33   27   28 ar 
    34   28   38 1  
    35   30   31 2  
    36   30   34 1  
    37   31   32 1  
    38   32   33 2  
    39   33   34 1  
    40   33   35 1  
    41   35   36 ar 
    42   35   37 ar 
    43    1   39 1  
    44    2   40 1  
    45    8   41 1  
    46    9   42 1  
    47   12   43 1  
    48   15   44 1  
    49   16   45 1  
    50   18   46 1  
    51   19   47 1  
    52   20   48 1  
    53   20   49 1  
    54   21   50 1  
    55   24   51 1  
    56   25   52 1  
    57   27   53 1  
    58   31   54 1  
    59   32   55 1  
@<TRIPOS>SUBSTRUCTURE
     1 1XU         1

