### 
### Created by X-TOOL on Mon Sep 10 21:13:18 2018
### 

@<TRIPOS>MOLECULE
4lwe_ligand
   41    43     1     0     0
SMALL
GAST_HUCK


@<TRIPOS>ATOM
      1 C01         0.4950  -32.7490  -22.8330 C.ar      1 FJ2         0.0948
      2 C02         1.6950  -33.1820  -23.3900 C.ar      1 FJ2        -0.0027
      3 C03         1.6870  -33.9020  -24.5720 C.ar      1 FJ2         0.0902
      4 C04         0.4940  -34.1980  -25.2000 C.ar      1 FJ2         0.0048
      5 C05        -0.7020  -33.7520  -24.6650 C.ar      1 FJ2        -0.0558
      6 C06        -0.6890  -33.0310  -23.4810 C.ar      1 FJ2         0.0575
      7 O07         2.8600  -34.2800  -25.1780 O.3       1 FJ2        -0.3329
      8 O08         0.4850  -32.0860  -21.6220 O.3       1 FJ2        -0.3340
      9 CL9        -2.1590  -32.3670  -22.8600 Cl        1 FJ2        -0.0879
     10 C10         0.4550  -35.0250  -26.4270 C.2       1 FJ2         0.0314
     11 N11         1.1540  -34.8650  -27.5510 N.2       1 FJ2        -0.1739
     12 O12         0.8230  -35.7950  -28.4310 O.3       1 FJ2        -0.1475
     13 C13        -0.0890  -36.5980  -27.9630 C.2       1 FJ2         0.2649
     14 C14        -0.4200  -36.1710  -26.6380 C.2       1 FJ2         0.0333
     15 C15        -1.4000  -36.7530  -25.6840 C.ar      1 FJ2        -0.0550
     16 N16        -0.7170  -37.6550  -28.6770 N.am      1 FJ2        -0.1902
     17 C17        -0.8690  -38.9570  -28.1240 C.2       1 FJ2         0.2100
     18 C18        -1.5890  -39.9750  -28.9390 C.3       1 FJ2         0.0332
     19 O19        -0.2590  -39.2700  -27.1050 O.2       1 FJ2        -0.3816
     20 C20        -2.7290  -36.8380  -26.0610 C.ar      1 FJ2        -0.0760
     21 C21        -3.6700  -37.3850  -25.1950 C.ar      1 FJ2        -0.0416
     22 C22        -3.2890  -37.8550  -23.9490 C.ar      1 FJ2         0.0826
     23 C23        -1.9480  -37.7880  -23.5600 C.ar      1 FJ2        -0.0416
     24 C24        -1.0080  -37.2390  -24.4350 C.ar      1 FJ2        -0.0760
     25 O25        -4.2510  -38.3610  -23.0980 O.3       1 FJ2        -0.3263
     26 C26        -3.8990  -38.7790  -21.8320 C.3       1 FJ2         0.0578
     27 H1          2.6344  -32.9556  -22.8987 H         1 FJ2         0.0465
     28 H2         -1.6392  -33.9643  -25.1666 H         1 FJ2         0.0572
     29 H3          3.5945  -34.0137  -24.6376 H         1 FJ2         0.2496
     30 H4          1.3775  -31.9735  -21.3165 H         1 FJ2         0.2490
     31 H5         -1.0633  -37.4774  -29.5982 H         1 FJ2         0.2388
     32 H6         -1.6285  -40.9256  -28.3869 H         1 FJ2         0.0473
     33 H7         -1.0579  -40.1254  -29.8905 H         1 FJ2         0.0473
     34 H8         -2.6123  -39.6258  -29.1414 H         1 FJ2         0.0473
     35 H9         -3.0378  -36.4768  -27.0353 H         1 FJ2         0.0511
     36 H10        -4.7093  -37.4439  -25.4975 H         1 FJ2         0.0523
     37 H11        -1.6407  -38.1585  -22.5887 H         1 FJ2         0.0523
     38 H12         0.0345  -37.1898  -24.1421 H         1 FJ2         0.0511
     39 H13        -4.7920  -39.1477  -21.3061 H         1 FJ2         0.0575
     40 H14        -3.4673  -37.9351  -21.2740 H         1 FJ2         0.0575
     41 H15        -3.1570  -39.5877  -21.9059 H         1 FJ2         0.0575
@<TRIPOS>BOND
     1    1    2 ar 
     2    1    6 ar 
     3    1    8 1  
     4    2    3 ar 
     5    3    4 ar 
     6    3    7 1  
     7    4    5 ar 
     8    4   10 1  
     9    5    6 ar 
    10    6    9 1  
    11   10   11 2  
    12   10   14 1  
    13   11   12 1  
    14   12   13 1  
    15   13   14 2  
    16   13   16 1  
    17   14   15 1  
    18   15   20 ar 
    19   15   24 ar 
    20   16   17 am 
    21   17   18 1  
    22   17   19 2  
    23   20   21 ar 
    24   21   22 ar 
    25   22   23 ar 
    26   22   25 1  
    27   23   24 ar 
    28   25   26 1  
    29    2   27 1  
    30    5   28 1  
    31    7   29 1  
    32    8   30 1  
    33   16   31 1  
    34   18   32 1  
    35   18   33 1  
    36   18   34 1  
    37   20   35 1  
    38   21   36 1  
    39   23   37 1  
    40   24   38 1  
    41   26   39 1  
    42   26   40 1  
    43   26   41 1  
@<TRIPOS>SUBSTRUCTURE
     1 FJ2         1

