### 
### Created by X-TOOL on Mon Sep 10 21:13:18 2018
### 

@<TRIPOS>MOLECULE
4lwh_ligand
   65    69     1     0     0
SMALL
GAST_HUCK


@<TRIPOS>ATOM
      1 C01         1.5640  -34.0610  -25.1020 C.ar      1 FJ5        -0.0025
      2 C02         0.3060  -33.6680  -24.6490 C.ar      1 FJ5        -0.0680
      3 C03         0.1990  -32.9500  -23.4350 C.ar      1 FJ5        -0.0206
      4 C04         1.3380  -32.6250  -22.7080 C.ar      1 FJ5         0.0832
      5 C05         2.5890  -33.0330  -23.1560 C.ar      1 FJ5        -0.0090
      6 C06         2.6960  -33.7510  -24.3760 C.ar      1 FJ5         0.0831
      7 O07         3.9550  -34.1070  -24.8660 O.3       1 FJ5        -0.3373
      8 O08         1.2510  -31.9370  -21.5170 O.3       1 FJ5        -0.3382
      9 C09        -1.1870  -32.4550  -22.9960 C.3       1 FJ5        -0.0194
     10 C10         1.6260  -34.8800  -26.3330 C.2       1 FJ5         0.0304
     11 C11        -2.2430  -33.4170  -23.1960 C.3       1 FJ5        -0.0557
     12 C12        -1.4540  -31.1290  -23.6570 C.3       1 FJ5        -0.0557
     13 N13         2.3180  -34.7290  -27.4500 N.2       1 FJ5        -0.1735
     14 O14         2.0400  -35.7310  -28.2850 O.3       1 FJ5        -0.1467
     15 C15         1.1810  -36.5830  -27.7780 C.2       1 FJ5         0.2662
     16 C16         0.8430  -36.1080  -26.4720 C.2       1 FJ5         0.0357
     17 C17        -0.0710  -36.6210  -25.4110 C.ar      1 FJ5        -0.0516
     18 C18        -1.4740  -36.6430  -25.6220 C.ar      1 FJ5        -0.0746
     19 C19        -2.3070  -37.0980  -24.5880 C.ar      1 FJ5        -0.0644
     20 C20        -1.7610  -37.5160  -23.3600 C.ar      1 FJ5        -0.0070
     21 C21        -0.3660  -37.4710  -23.1350 C.ar      1 FJ5        -0.0644
     22 C22         0.4670  -37.0140  -24.1690 C.ar      1 FJ5        -0.0746
     23 C23        -2.6990  -37.9590  -22.2390 C.3       1 FJ5        -0.0017
     24 N24        -2.7420  -39.3930  -22.1070 N.4       1 FJ5         0.2494
     25 N25         0.6030  -37.7570  -28.4110 N.am      1 FJ5        -0.1894
     26 C26         0.5110  -39.0490  -27.7310 C.2       1 FJ5         0.2219
     27 O27         0.0040  -39.9590  -28.3360 O.2       1 FJ5        -0.3846
     28 C28         1.3500  -39.3430  -26.5210 C.3       1 FJ5         0.0937
     29 C29         0.5750  -40.1620  -25.5450 C.2       1 FJ5        -0.0565
     30 C30         1.5880  -40.8120  -26.4230 C.2       1 FJ5        -0.0565
     31 C31        -3.3550  -40.0810  -23.1750 C.3       1 FJ5        -0.0065
     32 C32        -3.8740  -41.4470  -22.8890 C.3       1 FJ5         0.0878
     33 O33        -4.4200  -41.5680  -21.6010 O.3       1 FJ5        -0.3693
     34 C34        -3.4760  -41.2120  -20.6410 C.3       1 FJ5         0.0878
     35 C35        -3.1130  -39.7820  -20.7960 C.3       1 FJ5        -0.0065
     36 H1         -0.5820  -33.9102  -25.2215 H         1 FJ5         0.0500
     37 H2          3.4769  -32.8045  -22.5777 H         1 FJ5         0.0450
     38 H3          4.4696  -33.3222  -25.0136 H         1 FJ5         0.2474
     39 H4          1.7578  -31.1358  -21.5776 H         1 FJ5         0.2464
     40 H5         -1.1379  -32.2746  -21.9120 H         1 FJ5         0.0414
     41 H6         -3.1982  -32.9884  -22.8585 H         1 FJ5         0.0250
     42 H7         -2.0247  -34.3268  -22.6175 H         1 FJ5         0.0250
     43 H8         -2.3116  -33.6694  -24.2644 H         1 FJ5         0.0250
     44 H9         -0.6124  -30.4473  -23.4645 H         1 FJ5         0.0250
     45 H10        -2.3783  -30.6949  -23.2481 H         1 FJ5         0.0250
     46 H11        -1.5663  -31.2758  -24.7413 H         1 FJ5         0.0250
     47 H12        -1.8951  -36.3142  -26.5652 H         1 FJ5         0.0518
     48 H13        -3.3804  -37.1277  -24.7366 H         1 FJ5         0.0537
     49 H14         0.0517  -37.7826  -22.1845 H         1 FJ5         0.0537
     50 H15         1.5380  -36.9628  -24.0098 H         1 FJ5         0.0518
     51 H16        -3.7125  -37.5919  -22.4580 H         1 FJ5         0.0964
     52 H17        -2.3489  -37.5254  -21.2907 H         1 FJ5         0.0964
     53 H18        -1.7770  -39.6755  -22.1779 H         1 FJ5         0.2048
     54 H19         0.2556  -37.6786  -29.3454 H         1 FJ5         0.2389
     55 H20         2.0796  -38.5660  -26.2492 H         1 FJ5         0.0648
     56 H21        -0.1794  -40.2330  -24.7628 H         1 FJ5         0.0614
     57 H22         2.1159  -41.7058  -26.7523 H         1 FJ5         0.0614
     58 H23        -2.6129  -40.1701  -23.9820 H         1 FJ5         0.0837
     59 H24        -4.2016  -39.4700  -23.5212 H         1 FJ5         0.0837
     60 H25        -3.0459  -42.1643  -22.9874 H         1 FJ5         0.0613
     61 H26        -4.6558  -41.6862  -23.6249 H         1 FJ5         0.0613
     62 H27        -2.5763  -41.8323  -20.7665 H         1 FJ5         0.0613
     63 H28        -3.8967  -41.3748  -19.6378 H         1 FJ5         0.0613
     64 H29        -3.9798  -39.1761  -20.4936 H         1 FJ5         0.0837
     65 H30        -2.2665  -39.5712  -20.1259 H         1 FJ5         0.0837
@<TRIPOS>BOND
     1    1    2 ar 
     2    1    6 ar 
     3    1   10 1  
     4    2    3 ar 
     5    3    4 ar 
     6    3    9 1  
     7    4    5 ar 
     8    4    8 1  
     9    5    6 ar 
    10    6    7 1  
    11    9   11 1  
    12    9   12 1  
    13   10   13 2  
    14   10   16 1  
    15   13   14 1  
    16   14   15 1  
    17   15   16 2  
    18   15   25 1  
    19   16   17 1  
    20   17   18 ar 
    21   17   22 ar 
    22   18   19 ar 
    23   19   20 ar 
    24   20   21 ar 
    25   20   23 1  
    26   21   22 ar 
    27   23   24 1  
    28   24   31 1  
    29   24   35 1  
    30   25   26 am 
    31   26   27 2  
    32   26   28 1  
    33   28   29 1  
    34   28   30 1  
    35   29   30 2  
    36   31   32 1  
    37   32   33 1  
    38   33   34 1  
    39   34   35 1  
    40    2   36 1  
    41    5   37 1  
    42    7   38 1  
    43    8   39 1  
    44    9   40 1  
    45   11   41 1  
    46   11   42 1  
    47   11   43 1  
    48   12   44 1  
    49   12   45 1  
    50   12   46 1  
    51   18   47 1  
    52   19   48 1  
    53   21   49 1  
    54   22   50 1  
    55   23   51 1  
    56   23   52 1  
    57   24   53 1  
    58   25   54 1  
    59   28   55 1  
    60   29   56 1  
    61   30   57 1  
    62   31   58 1  
    63   31   59 1  
    64   32   60 1  
    65   32   61 1  
    66   34   62 1  
    67   34   63 1  
    68   35   64 1  
    69   35   65 1  
@<TRIPOS>SUBSTRUCTURE
     1 FJ5         1

