### 
### Created by X-TOOL on Mon Sep 10 21:13:18 2018
### 

@<TRIPOS>MOLECULE
4lwi_ligand
   52    55     1     0     0
SMALL
GAST_HUCK


@<TRIPOS>ATOM
      1 C01         1.5630  -34.1450  -24.9710 C.ar      1 FJ6        -0.0027
      2 C02         0.2970  -33.7270  -24.5670 C.ar      1 FJ6        -0.0681
      3 C03         0.1880  -32.9980  -23.4210 C.ar      1 FJ6        -0.0206
      4 C04         1.3650  -32.6590  -22.6780 C.ar      1 FJ6         0.0832
      5 C05         2.6130  -33.0760  -23.0820 C.ar      1 FJ6        -0.0091
      6 C06         2.7370  -33.8260  -24.2330 C.ar      1 FJ6         0.0830
      7 O07         4.0040  -34.2690  -24.7020 O.3       1 FJ6        -0.3373
      8 O08         1.2630  -31.9130  -21.5240 O.3       1 FJ6        -0.3383
      9 C09        -1.1660  -32.4980  -22.9910 C.3       1 FJ6        -0.0195
     10 C10         1.6130  -35.0100  -26.2550 C.2       1 FJ6         0.0296
     11 C11        -1.3690  -31.1490  -23.6600 C.3       1 FJ6        -0.0557
     12 C12        -2.2960  -33.4340  -23.2520 C.3       1 FJ6        -0.0557
     13 N13         2.3560  -34.8950  -27.4380 N.2       1 FJ6        -0.1741
     14 O14         2.0390  -35.8900  -28.2560 O.3       1 FJ6        -0.1477
     15 C15         1.1120  -36.7540  -27.7050 C.2       1 FJ6         0.2639
     16 C16         0.7710  -36.2290  -26.3770 C.2       1 FJ6         0.0330
     17 C17        -0.1740  -36.7530  -25.3620 C.ar      1 FJ6        -0.0550
     18 C18         0.2770  -37.1300  -24.1150 C.ar      1 FJ6        -0.0760
     19 C19        -0.6200  -37.6330  -23.1620 C.ar      1 FJ6        -0.0416
     20 C20        -2.0030  -37.7430  -23.5140 C.ar      1 FJ6         0.0826
     21 C21        -2.4390  -37.3720  -24.7470 C.ar      1 FJ6        -0.0416
     22 C22        -1.5280  -36.8640  -25.7050 C.ar      1 FJ6        -0.0760
     23 O23        -2.9250  -38.2310  -22.6160 O.3       1 FJ6        -0.3263
     24 C24        -2.5340  -38.7690  -21.4240 C.3       1 FJ6         0.0578
     25 N25         0.5400  -37.8620  -28.3040 N.am      1 FJ6        -0.1929
     26 C26         0.3930  -39.2680  -27.8510 C.2       1 FJ6         0.2280
     27 O27        -0.1680  -40.0020  -28.5560 O.2       1 FJ6        -0.3825
     28 C28         0.8840  -39.8840  -26.5770 C.2       1 FJ6         0.0402
     29 C29         1.8030  -40.6520  -25.9040 C.2       1 FJ6        -0.0502
     30 C30         0.6450  -40.2480  -25.2680 C.3       1 FJ6         0.0111
     31 H1         -0.5815  -33.9761  -25.1511 H         1 FJ6         0.0500
     32 H2          3.4907  -32.8173  -22.5008 H         1 FJ6         0.0450
     33 H3          4.5575  -33.5164  -24.8742 H         1 FJ6         0.2473
     34 H4          1.7675  -31.1137  -21.6193 H         1 FJ6         0.2463
     35 H5         -1.1333  -32.3406  -21.9028 H         1 FJ6         0.0414
     36 H6         -2.3501  -30.7419  -23.3742 H         1 FJ6         0.0250
     37 H7         -1.3270  -31.2714  -24.7524 H         1 FJ6         0.0250
     38 H8         -0.5770  -30.4570  -23.3378 H         1 FJ6         0.0250
     39 H9         -2.1020  -34.3924  -22.7483 H         1 FJ6         0.0250
     40 H10        -2.3907  -33.6016  -24.3350 H         1 FJ6         0.0250
     41 H11        -3.2293  -32.9989  -22.8653 H         1 FJ6         0.0250
     42 H12         1.3290  -37.0372  -23.8704 H         1 FJ6         0.0511
     43 H13        -0.2734  -37.9322  -22.1794 H         1 FJ6         0.0523
     44 H14        -3.4893  -37.4655  -24.9982 H         1 FJ6         0.0523
     45 H15        -1.8729  -36.5657  -26.6884 H         1 FJ6         0.0511
     46 H16        -3.4206  -39.0960  -20.8609 H         1 FJ6         0.0575
     47 H17        -1.9883  -38.0121  -20.8415 H         1 FJ6         0.0575
     48 H18        -1.8781  -39.6325  -21.6090 H         1 FJ6         0.0575
     49 H19         0.1544  -37.6828  -29.2091 H         1 FJ6         0.2373
     50 H20         2.7510  -41.1876  -25.8854 H         1 FJ6         0.0816
     51 H21        -0.1403  -40.9821  -25.0350 H         1 FJ6         0.0403
     52 H22         0.6899  -39.4930  -24.4693 H         1 FJ6         0.0403
@<TRIPOS>BOND
     1    1    2 ar 
     2    1    6 ar 
     3    1   10 1  
     4    2    3 ar 
     5    3    4 ar 
     6    3    9 1  
     7    4    5 ar 
     8    4    8 1  
     9    5    6 ar 
    10    6    7 1  
    11    9   11 1  
    12    9   12 1  
    13   10   13 2  
    14   10   16 1  
    15   13   14 1  
    16   14   15 1  
    17   15   16 2  
    18   15   25 1  
    19   16   17 1  
    20   17   18 ar 
    21   17   22 ar 
    22   18   19 ar 
    23   19   20 ar 
    24   20   21 ar 
    25   20   23 1  
    26   21   22 ar 
    27   23   24 1  
    28   25   26 am 
    29   26   27 2  
    30   26   28 1  
    31   28   29 2  
    32   28   30 1  
    33   29   30 1  
    34    2   31 1  
    35    5   32 1  
    36    7   33 1  
    37    8   34 1  
    38    9   35 1  
    39   11   36 1  
    40   11   37 1  
    41   11   38 1  
    42   12   39 1  
    43   12   40 1  
    44   12   41 1  
    45   18   42 1  
    46   19   43 1  
    47   21   44 1  
    48   22   45 1  
    49   24   46 1  
    50   24   47 1  
    51   24   48 1  
    52   25   49 1  
    53   29   50 1  
    54   30   51 1  
    55   30   52 1  
@<TRIPOS>SUBSTRUCTURE
     1 FJ6         1

