### 
### Created by X-TOOL on Mon Sep 10 21:13:20 2018
### 

@<TRIPOS>MOLECULE
4lwt_ligand
   50    53     1     0     0
SMALL
GAST_HUCK


@<TRIPOS>ATOM
      1 C9         12.9010   10.1710   33.0750 C.ar      1 20Q         0.0938
      2 C2         11.7150    9.2850   34.8110 C.2       1 20Q         0.2104
      3 C3         12.8530   10.0930   35.4400 C.3       1 20Q         0.0477
      4 C8         13.5740   10.5250   34.2060 C.ar      1 20Q        -0.0255
      5 N1         11.7850    9.4000   33.4340 N.am      1 20Q        -0.2205
      6 C7         13.2550   10.5380   31.8010 C.ar      1 20Q         0.0042
      7 C4         14.7540   11.2410   34.1360 C.ar      1 20Q        -0.0550
      8 C5         15.1970   11.6650   32.8860 C.ar      1 20Q        -0.0343
      9 C6         14.4080   11.3690   31.7200 C.ar      1 20Q         0.0579
     10 C13        10.3080   13.8660   34.1220 C.ar      1 20Q         0.0337
     11 CL1        10.4740   15.3250   33.3190 Cl        1 20Q        -0.0725
     12 C12        11.4200   13.2570   34.7980 C.ar      1 20Q        -0.0476
     13 C11        11.2080   12.0430   35.4630 C.ar      1 20Q        -0.0540
     14 C10        12.3350   11.3450   36.2040 C.3       1 20Q        -0.0409
     15 C31        13.7480    9.2100   36.3320 C.3       1 20Q        -0.0408
     16 C16         9.9380   11.4520   35.4620 C.ar      1 20Q        -0.0613
     17 C15         8.8720   12.0570   34.7940 C.ar      1 20Q        -0.0681
     18 C14         9.0410   13.2460   34.1240 C.ar      1 20Q        -0.0548
     19 C32        12.9170    8.2860   37.2260 C.3       1 20Q         0.0265
     20 N33        13.8110    7.4840   38.0820 N.am      1 20Q        -0.2743
     21 C34        14.8060    8.2080   38.8910 C.3       1 20Q         0.0338
     22 C35        15.6240    9.1570   38.0020 C.3       1 20Q        -0.0333
     23 C36        14.6950   10.0620   37.1830 C.3       1 20Q        -0.0568
     24 O2         10.8480    8.6190   35.3930 O.2       1 20Q        -0.3204
     25 CL6        14.8350   12.0590   30.2780 Cl        1 20Q        -0.0481
     26 C33        13.8650    6.1530   37.9650 C.2       1 20Q         0.1753
     27 O33        14.7410    5.5120   38.5590 O.2       1 20Q        -0.3972
     28 C37        12.8200    5.5170   37.0910 C.3       1 20Q         0.0258
     29 H          11.1365    8.9939   32.7902 H         1 20Q         0.2402
     30 H          12.7005   10.2202   30.9255 H         1 20Q         0.0594
     31 H          15.3206   11.4669   35.0321 H         1 20Q         0.0770
     32 H          16.1276   12.2130   32.7923 H         1 20Q         0.0595
     33 H          12.3977   13.7251   34.7934 H         1 20Q         0.0561
     34 H          13.1676   12.0526   36.3303 H         1 20Q         0.0289
     35 H          11.9679   11.0304   37.1921 H         1 20Q         0.0289
     36 H          14.3606    8.5792   35.6711 H         1 20Q         0.0185
     37 H           9.7815   10.5156   35.9851 H         1 20Q         0.0558
     38 H           7.8972   11.5829   34.8035 H         1 20Q         0.0599
     39 H           8.2079   13.7027   33.6020 H         1 20Q         0.0565
     40 H          12.3141    7.6145   36.5971 H         1 20Q         0.0513
     41 H          12.2515    8.8915   37.8589 H         1 20Q         0.0513
     42 H          15.4826    7.4838   39.3682 H         1 20Q         0.0522
     43 H          14.2884    8.7922   39.6661 H         1 20Q         0.0522
     44 H          16.2473    8.5636   37.3168 H         1 20Q         0.0284
     45 H          16.2695    9.7814   38.6372 H         1 20Q         0.0284
     46 H          14.1047   10.6908   37.8657 H         1 20Q         0.0258
     47 H          15.2992   10.7030   36.5242 H         1 20Q         0.0258
     48 H          12.9689    4.4272   37.0752 H         1 20Q         0.0467
     49 H          12.9061    5.9136   36.0686 H         1 20Q         0.0467
     50 H          11.8204    5.7447   37.4897 H         1 20Q         0.0467
@<TRIPOS>BOND
     1    4    1 ar 
     2    1    5 1  
     3    1    6 ar 
     4    3    2 1  
     5    2    5 am 
     6    2   24 2  
     7    3    4 1  
     8   14    3 1  
     9    3   15 1  
    10    4    7 ar 
    11    6    9 ar 
    12    7    8 ar 
    13    8    9 ar 
    14    9   25 1  
    15   10   11 1  
    16   12   10 ar 
    17   10   18 ar 
    18   13   12 ar 
    19   13   14 1  
    20   13   16 ar 
    21   15   19 1  
    22   15   23 1  
    23   16   17 ar 
    24   17   18 ar 
    25   19   20 1  
    26   20   21 1  
    27   20   26 am 
    28   21   22 1  
    29   22   23 1  
    30   26   27 2  
    31   26   28 1  
    32    5   29 1  
    33    6   30 1  
    34    7   31 1  
    35    8   32 1  
    36   12   33 1  
    37   14   34 1  
    38   14   35 1  
    39   15   36 1  
    40   16   37 1  
    41   17   38 1  
    42   18   39 1  
    43   19   40 1  
    44   19   41 1  
    45   21   42 1  
    46   21   43 1  
    47   22   44 1  
    48   22   45 1  
    49   23   46 1  
    50   23   47 1  
    51   28   48 1  
    52   28   49 1  
    53   28   50 1  
@<TRIPOS>SUBSTRUCTURE
     1 20Q         1

