### 
### Created by X-TOOL on Mon Sep 10 21:13:19 2018
### 

@<TRIPOS>MOLECULE
4lwu_ligand
   70    74     1     0     0
SMALL
GAST_HUCK


@<TRIPOS>ATOM
      1 N1        -11.0550   16.1890   -7.0660 N.am      1 20U        -0.2203
      2 C9        -12.1140   15.9180   -6.1530 C.ar      1 20U         0.0940
      3 C7        -12.5700   14.6740   -5.8260 C.ar      1 20U         0.0042
      4 C6        -13.5920   14.6220   -4.8820 C.ar      1 20U         0.0579
      5 CL1       -14.1980   13.0930   -4.3660 Cl        1 20U        -0.0481
      6 C2        -10.8610   17.5860   -7.1290 C.2       1 20U         0.2158
      7 O2         -9.9720   18.1210   -7.7990 O.2       1 20U        -0.3202
      8 C3        -11.9150   18.2710   -6.2580 C.3       1 20U         0.0942
      9 C11       -12.8130   19.1320   -7.1200 C.3       1 20U        -0.0373
     10 C21       -13.1900   18.4480   -8.4430 C.3       1 20U        -0.0158
     11 C22       -14.5360   18.9810   -8.9790 C.3       1 20U        -0.0339
     12 C25       -14.5260   20.5120   -8.9950 C.3       1 20U        -0.0599
     13 C24       -15.6690   18.4900   -8.0730 C.3       1 20U        -0.0599
     14 C23       -14.7640   18.4580  -10.4020 C.3       1 20U        -0.0599
     15 N12       -12.0070   20.3630   -7.3510 N.4       1 20U         0.2411
     16 C14       -11.3300   19.2880   -5.2770 C.3       1 20U         0.0379
     17 C31       -10.0830   18.8260   -4.5560 C.ar      1 20U        -0.0093
     18 C36        -8.8040   19.0600   -5.0700 C.ar      1 20U        -0.0624
     19 C35        -7.6740   18.6450   -4.3290 C.ar      1 20U        -0.0720
     20 C34        -7.8370   17.9980   -3.0890 C.ar      1 20U        -0.0566
     21 C32       -10.1990   18.1890   -3.3500 C.ar      1 20U         0.1466
     22 F1        -11.4330   17.9810   -2.8510 F         1 20U        -0.1883
     23 C33        -9.1220   17.7630   -2.6160 C.ar      1 20U         0.0668
     24 CL2        -9.3710   16.9260   -1.1060 Cl        1 20U        -0.0741
     25 C13       -11.0980   20.5270   -6.1510 C.3       1 20U         0.0736
     26 C41       -11.4600   21.7870   -5.4380 C.2       1 20U         0.2550
     27 N42       -12.4050   22.5830   -6.1210 N.am      1 20U        -0.2258
     28 C43       -12.8330   23.9080   -5.7570 C.ar      1 20U         0.0721
     29 C48       -12.4110   24.5030   -4.5760 C.ar      1 20U        -0.0350
     30 C44       -13.6690   24.5610   -6.6520 C.ar      1 20U        -0.0350
     31 C45       -14.0610   25.8580   -6.3930 C.ar      1 20U        -0.0554
     32 C46       -13.6210   26.5060   -5.2370 C.ar      1 20U         0.0335
     33 C51       -13.9990   27.9010   -4.9970 C.2       1 20U         0.1909
     34 O51       -13.7080   28.5230   -3.9640 O.2       1 20U        -0.3922
     35 N51       -14.7180   28.5500   -5.9840 N.am      1 20U        -0.3024
     36 C47       -12.8070   25.8130   -4.3130 C.ar      1 20U        -0.0554
     37 O41       -10.9930   22.1210   -4.3480 O.2       1 20U        -0.3775
     38 C8        -12.6070   17.0740   -5.6520 C.ar      1 20U        -0.0202
     39 C4        -13.6240   17.0680   -4.7240 C.ar      1 20U        -0.0548
     40 C5        -14.1370   15.8140   -4.3250 C.ar      1 20U        -0.0343
     41 H         -10.5356   15.5041   -7.5771 H         1 20U         0.2402
     42 H         -12.1597   13.7771   -6.2758 H         1 20U         0.0594
     43 H         -13.7372   19.3773   -6.5763 H         1 20U         0.0704
     44 H         -13.2735   17.3639   -8.2762 H         1 20U         0.0312
     45 H         -12.4036   18.6452   -9.1865 H         1 20U         0.0312
     46 H         -15.4888   20.8809   -9.3782 H         1 20U         0.0235
     47 H         -13.7125   20.8666   -9.6450 H         1 20U         0.0235
     48 H         -14.3696   20.8884   -7.9733 H         1 20U         0.0235
     49 H         -15.6778   17.3901   -8.0603 H         1 20U         0.0235
     50 H         -16.6314   18.8599   -8.4562 H         1 20U         0.0235
     51 H         -15.5116   18.8672   -7.0518 H         1 20U         0.0235
     52 H         -13.9520   18.8087  -11.0560 H         1 20U         0.0235
     53 H         -15.7268   18.8320  -10.7803 H         1 20U         0.0235
     54 H         -14.7767   17.3581  -10.3908 H         1 20U         0.0235
     55 H         -12.6138   21.1632   -7.4378 H         1 20U         0.2027
     56 H         -11.4579   20.2651   -8.1906 H         1 20U         0.2027
     57 H         -12.0821   19.5193   -4.5084 H         1 20U         0.0399
     58 H          -8.6802   19.5545   -6.0267 H         1 20U         0.0547
     59 H          -6.6780   18.8256   -4.7169 H         1 20U         0.0565
     60 H          -6.9731   17.6880   -2.5123 H         1 20U         0.0555
     61 H         -10.0450   20.5743   -6.4657 H         1 20U         0.1118
     62 H         -12.8187   22.1861   -6.9404 H         1 20U         0.2283
     63 H         -11.7875   23.9609   -3.8742 H         1 20U         0.0517
     64 H         -14.0113   24.0556   -7.5478 H         1 20U         0.0517
     65 H         -14.7120   26.3753   -7.0884 H         1 20U         0.0630
     66 H         -14.9943   29.5026   -5.8569 H         1 20U         0.1803
     67 H         -14.9616   28.0667   -6.8249 H         1 20U         0.1803
     68 H         -12.4901   26.3010   -3.3984 H         1 20U         0.0630
     69 H         -14.0166   17.9918   -4.3146 H         1 20U         0.0770
     70 H         -14.9405   15.7592   -3.5994 H         1 20U         0.0595
@<TRIPOS>BOND
     1    1    2 1  
     2    1    6 am 
     3    2    3 ar 
     4    2   38 ar 
     5    3    4 ar 
     6    4    5 1  
     7    4   40 ar 
     8    6    7 2  
     9    6    8 1  
    10    8    9 1  
    11    8   16 1  
    12    8   38 1  
    13    9   10 1  
    14    9   15 1  
    15   10   11 1  
    16   11   12 1  
    17   11   13 1  
    18   11   14 1  
    19   15   25 1  
    20   16   17 1  
    21   16   25 1  
    22   17   18 ar 
    23   17   21 ar 
    24   18   19 ar 
    25   19   20 ar 
    26   20   23 ar 
    27   21   22 1  
    28   21   23 ar 
    29   23   24 1  
    30   25   26 1  
    31   26   27 am 
    32   26   37 2  
    33   27   28 1  
    34   28   29 ar 
    35   28   30 ar 
    36   29   36 ar 
    37   30   31 ar 
    38   31   32 ar 
    39   32   33 1  
    40   32   36 ar 
    41   33   34 2  
    42   33   35 am 
    43   38   39 ar 
    44   39   40 ar 
    45    1   41 1  
    46    3   42 1  
    47    9   43 1  
    48   10   44 1  
    49   10   45 1  
    50   12   46 1  
    51   12   47 1  
    52   12   48 1  
    53   13   49 1  
    54   13   50 1  
    55   13   51 1  
    56   14   52 1  
    57   14   53 1  
    58   14   54 1  
    59   15   55 1  
    60   15   56 1  
    61   16   57 1  
    62   18   58 1  
    63   19   59 1  
    64   20   60 1  
    65   25   61 1  
    66   27   62 1  
    67   29   63 1  
    68   30   64 1  
    69   31   65 1  
    70   35   66 1  
    71   35   67 1  
    72   36   68 1  
    73   39   69 1  
    74   40   70 1  
@<TRIPOS>SUBSTRUCTURE
     1 20U         1

