### 
### Created by X-TOOL on Mon Sep 10 21:13:20 2018
### 

@<TRIPOS>MOLECULE
4lwv_ligand
   71    75     1     0     0
SMALL
GAST_HUCK


@<TRIPOS>ATOM
      1 C2          0.8010  -32.1070  -10.0760 C.2       1 20W         0.1829
      2 C3          1.1270  -31.4430  -11.4290 C.3       1 20W         0.0558
      3 C5          3.6240  -34.1530  -12.8300 C.2       1 20W         0.1506
      4 C6          3.2240  -34.4480  -11.5340 C.2       1 20W         0.0390
      5 C7          2.0850  -32.4730  -11.9510 C.2       1 20W         0.0180
      6 C8          2.3430  -33.4430  -11.1300 C.2       1 20W         0.1144
      7 C11         1.7130  -30.1000  -11.1510 C.3       1 20W        -0.0654
      8 C13        -0.6410  -29.8600  -11.6160 C.3       1 20W         0.0653
      9 C14        -0.1070  -31.1200  -12.2790 C.3       1 20W         0.0093
     10 C21         2.6840  -30.1500   -9.9700 C.3       1 20W        -0.0233
     11 C22         3.7100  -28.9860  -10.0640 C.3       1 20W        -0.0346
     12 C23         4.7430  -29.0980   -8.9260 C.3       1 20W        -0.0599
     13 C24         4.4330  -29.0570  -11.4120 C.3       1 20W        -0.0599
     14 C25         2.9920  -27.6390   -9.9550 C.3       1 20W        -0.0599
     15 N1          1.6080  -33.2700   -9.9130 N.am      1 20W        -0.2162
     16 CL1         4.6980  -35.1340  -13.8390 Cl        1 20W         0.0022
     17 O2         -0.0120  -31.7320   -9.2390 O.2       1 20W        -0.3351
     18 N12         0.5180  -29.2780  -10.8340 N.4       1 20W         0.2350
     19 C31        -1.1500  -32.1950  -12.2900 C.ar      1 20W        -0.0169
     20 C36        -2.1150  -32.2570  -11.2920 C.ar      1 20W        -0.0630
     21 C35        -3.1150  -33.2470  -11.3540 C.ar      1 20W        -0.0721
     22 C34        -3.1490  -34.1680  -12.4080 C.ar      1 20W        -0.0566
     23 C32        -1.2070  -33.1200  -13.3180 C.ar      1 20W         0.1460
     24 F1         -0.2860  -33.0700  -14.2950 F         1 20W        -0.1883
     25 C33        -2.1800  -34.0900  -13.4020 C.ar      1 20W         0.0668
     26 CL2        -2.1930  -35.1960  -14.7520 Cl        1 20W        -0.0741
     27 C41        -1.0810  -28.8460  -12.6090 C.2       1 20W         0.2517
     28 N42        -0.4460  -27.6050  -12.4430 N.am      1 20W        -0.2284
     29 C43        -0.6970  -26.4310  -13.2000 C.ar      1 20W         0.1025
     30 C48        -1.3560  -26.4710  -14.4230 C.ar      1 20W        -0.0425
     31 C44        -0.2480  -25.2500  -12.6570 C.ar      1 20W         0.1180
     32 O49         0.3960  -25.3140  -11.4230 O.3       1 20W        -0.3263
     33 C50         0.7490  -24.0460  -10.8870 C.3       1 20W         0.0563
     34 C45        -0.4530  -24.0440  -13.2980 C.ar      1 20W        -0.0266
     35 C46        -1.1690  -24.0410  -14.5120 C.ar      1 20W         0.0246
     36 C51        -1.5330  -22.7600  -15.1320 C.2       1 20W         0.1883
     37 O51        -1.6070  -21.6920  -14.4810 O.2       1 20W        -0.3923
     38 N51        -1.8180  -22.7400  -16.4990 N.am      1 20W        -0.3025
     39 C47        -1.5910  -25.2640  -15.0890 C.ar      1 20W        -0.0664
     40 O41        -1.9220  -29.0380  -13.4930 O.2       1 20W        -0.3788
     41 S4          2.9280  -32.6410  -13.4560 S.3       1 20W        -0.0083
     42 H           3.5393  -35.3055  -10.9414 H         1 20W         0.0611
     43 H           2.2366  -29.7083  -12.0355 H         1 20W         0.0609
     44 H          -1.4783  -30.1111  -10.9483 H         1 20W         0.1110
     45 H           0.1939  -30.9172  -13.3174 H         1 20W         0.0308
     46 H           3.2219  -31.1094   -9.9831 H         1 20W         0.0304
     47 H           2.1181  -30.0596   -9.0311 H         1 20W         0.0304
     48 H           5.4634  -28.2702   -9.0020 H         1 20W         0.0235
     49 H           5.2761  -30.0567   -9.0077 H         1 20W         0.0235
     50 H           4.2269  -29.0469   -7.9559 H         1 20W         0.0235
     51 H           3.6983  -28.9773  -12.2268 H         1 20W         0.0235
     52 H           4.9665  -30.0156  -11.4919 H         1 20W         0.0235
     53 H           5.1535  -28.2291  -11.4857 H         1 20W         0.0235
     54 H           2.4694  -27.5792   -8.9889 H         1 20W         0.0235
     55 H           2.2624  -27.5451  -10.7729 H         1 20W         0.0235
     56 H           3.7280  -26.8245  -10.0248 H         1 20W         0.0235
     57 H           1.6527  -33.8544   -9.1028 H         1 20W         0.2506
     58 H           0.6740  -28.3205  -11.1078 H         1 20W         0.2020
     59 H           0.3231  -29.3174   -9.8458 H         1 20W         0.2020
     60 H          -2.0983  -31.5486  -10.4717 H         1 20W         0.0547
     61 H          -3.8679  -33.2965  -10.5757 H         1 20W         0.0565
     62 H          -3.9189  -34.9301  -12.4484 H         1 20W         0.0555
     63 H           0.2472  -27.5424  -11.7250 H         1 20W         0.2250
     64 H          -1.6795  -27.4135  -14.8497 H         1 20W         0.0483
     65 H           1.2500  -24.1844   -9.9175 H         1 20W         0.0572
     66 H          -0.1591  -23.4412  -10.7474 H         1 20W         0.0572
     67 H           1.4294  -23.5310  -11.5811 H         1 20W         0.0572
     68 H          -0.0719  -23.1207  -12.8770 H         1 20W         0.0541
     69 H          -2.0684  -21.8807  -16.9450 H         1 20W         0.1803
     70 H          -1.7717  -23.5850  -17.0318 H         1 20W         0.1803
     71 H          -2.0966  -25.2643  -16.0478 H         1 20W         0.0540
@<TRIPOS>BOND
     1    2    1 1  
     2    1   15 am 
     3    1   17 2  
     4    5    2 1  
     5    2    7 1  
     6    2    9 1  
     7    4    3 2  
     8    3   16 1  
     9    3   41 1  
    10    6    4 1  
    11    5    6 2  
    12    5   41 1  
    13    6   15 1  
    14    7   10 1  
    15    7   18 1  
    16    9    8 1  
    17    8   18 1  
    18    8   27 1  
    19    9   19 1  
    20   10   11 1  
    21   11   12 1  
    22   11   13 1  
    23   11   14 1  
    24   19   20 ar 
    25   19   23 ar 
    26   20   21 ar 
    27   21   22 ar 
    28   22   25 ar 
    29   23   24 1  
    30   23   25 ar 
    31   25   26 1  
    32   27   28 am 
    33   27   40 2  
    34   28   29 1  
    35   29   30 ar 
    36   29   31 ar 
    37   30   39 ar 
    38   31   32 1  
    39   31   34 ar 
    40   32   33 1  
    41   34   35 ar 
    42   35   36 1  
    43   35   39 ar 
    44   36   37 2  
    45   36   38 am 
    46    4   42 1  
    47    7   43 1  
    48    8   44 1  
    49    9   45 1  
    50   10   46 1  
    51   10   47 1  
    52   12   48 1  
    53   12   49 1  
    54   12   50 1  
    55   13   51 1  
    56   13   52 1  
    57   13   53 1  
    58   14   54 1  
    59   14   55 1  
    60   14   56 1  
    61   15   57 1  
    62   18   58 1  
    63   18   59 1  
    64   20   60 1  
    65   21   61 1  
    66   22   62 1  
    67   28   63 1  
    68   30   64 1  
    69   33   65 1  
    70   33   66 1  
    71   33   67 1  
    72   34   68 1  
    73   38   69 1  
    74   38   70 1  
    75   39   71 1  
@<TRIPOS>SUBSTRUCTURE
     1 20W         1

