### 
### Created by X-TOOL on Mon Sep 10 21:13:12 2018
### 

@<TRIPOS>MOLECULE
4lww_ligand
   45    48     1     0     0
SMALL
GAST_HUCK


@<TRIPOS>ATOM
      1 C4         15.2040    4.6870   -3.0190 C.ar      1 LWW         0.0927
      2 C5         15.4390    5.2770   -4.2460 C.ar      1 LWW        -0.0365
      3 C6         16.4440    4.7910   -5.0620 C.ar      1 LWW        -0.0600
      4 C10        14.8760    6.4330   -0.9760 C.ar      1 LWW         0.0866
      5 C13        16.4120    8.1500    0.5780 C.ar      1 LWW        -0.0210
      6 C15        15.6450    5.9470    0.0640 C.ar      1 LWW        -0.0433
      7 C20        15.2940   10.4100    4.2670 C.2       1 LWW         0.1380
      8 C21        14.1430   11.0130    4.6600 C.2       1 LWW        -0.0308
      9 C22        14.1140   10.9320    6.0780 C.ar      1 LWW         0.0094
     10 C26        15.5020   10.0380    7.8560 C.ar      1 LWW        -0.0156
     11 C1         17.2210    3.7260   -4.6430 C.ar      1 LWW        -0.0616
     12 C2         16.9960    3.1370   -3.4130 C.ar      1 LWW        -0.0600
     13 C3         15.9910    3.6250   -2.5980 C.ar      1 LWW        -0.0365
     14 S7         13.9440    5.2880   -1.9400 S.o2      1 LWW         0.0221
     15 O8         12.9530    5.9670   -2.6920 O.2       1 LWW        -0.1652
     16 O9         13.6450    4.1890   -1.0840 O.2       1 LWW        -0.1652
     17 C11        14.8900    7.7870   -1.2540 C.ar      1 LWW        -0.0433
     18 C12        15.6620    8.6350   -0.4800 C.ar      1 LWW        -0.0566
     19 C14        16.4120    6.7960    0.8390 C.ar      1 LWW        -0.0566
     20 C16        17.2700    9.0860    1.3870 C.3       1 LWW         0.0639
     21 N17        16.7680    9.3470    2.7340 N.am      1 LWW        -0.2731
     22 C18        15.7560   10.2130    2.9000 C.2       1 LWW         0.2315
     23 O19        15.2260   10.7730    1.9560 O.2       1 LWW        -0.3823
     24 C23        13.2190   11.3560    7.0520 C.ar      1 LWW         0.0005
     25 N24        13.4640   11.1130    8.3270 N.ar      1 LWW        -0.3162
     26 C25        14.5570   10.4750    8.7310 C.ar      1 LWW        -0.0052
     27 C27        15.2940   10.2550    6.4860 C.ar      1 LWW         0.0856
     28 N28        15.9950    9.9380    5.3600 N.pl3     1 LWW        -0.2588
     29 H1         14.8370    6.1189   -4.5682 H         1 LWW         0.0637
     30 H2         16.6230    5.2446   -6.0301 H         1 LWW         0.0618
     31 H3         15.6467    4.8838    0.2752 H         1 LWW         0.0618
     32 H4         13.3916   11.4682    4.0165 H         1 LWW         0.0419
     33 H5         16.3945    9.5341    8.2089 H         1 LWW         0.0642
     34 H6         18.0113    3.3510   -5.2833 H         1 LWW         0.0618
     35 H7         17.6027    2.2989   -3.0897 H         1 LWW         0.0618
     36 H8         15.8176    3.1761   -1.6267 H         1 LWW         0.0637
     37 H9         14.2999    8.1818   -2.0731 H         1 LWW         0.0618
     38 H10        15.6800    9.6952   -0.7053 H         1 LWW         0.0558
     39 H11        17.0119    6.3987    1.6498 H         1 LWW         0.0558
     40 H12        17.3343   10.0446    0.8513 H         1 LWW         0.0683
     41 H13        18.2744    8.6458    1.4728 H         1 LWW         0.0683
     42 H14        17.1737    8.8858    3.5231 H         1 LWW         0.1870
     43 H15        12.3184   11.8869    6.7654 H         1 LWW         0.0779
     44 H16        14.7000   10.2973    9.7907 H         1 LWW         0.0720
     45 H17        16.8925    9.4336    5.3296 H         1 LWW         0.2298
@<TRIPOS>BOND
     1    1    2 ar 
     2    1   13 ar 
     3   14    1 1  
     4    2    3 ar 
     5    3   11 ar 
     6    6    4 ar 
     7    4   14 1  
     8   17    4 ar 
     9    5   18 ar 
    10    5   19 ar 
    11   20    5 1  
    12   19    6 ar 
    13    7    8 2  
    14   22    7 1  
    15    7   28 1  
    16    8    9 1  
    17    9   24 ar 
    18    9   27 ar 
    19   10   26 ar 
    20   27   10 ar 
    21   12   11 ar 
    22   13   12 ar 
    23   14   15 2  
    24   14   16 2  
    25   18   17 ar 
    26   21   20 1  
    27   21   22 am 
    28   22   23 2  
    29   24   25 ar 
    30   25   26 ar 
    31   27   28 1  
    32    2   29 1  
    33    3   30 1  
    34    6   31 1  
    35    8   32 1  
    36   10   33 1  
    37   11   34 1  
    38   12   35 1  
    39   13   36 1  
    40   17   37 1  
    41   18   38 1  
    42   19   39 1  
    43   20   40 1  
    44   20   41 1  
    45   21   42 1  
    46   24   43 1  
    47   26   44 1  
    48   28   45 1  
@<TRIPOS>SUBSTRUCTURE
     1 LWW         1

