### 
### Created by X-TOOL on Mon Sep 10 21:13:14 2018
### 

@<TRIPOS>MOLECULE
4lxa_ligand
   72    74     1     0     0
SMALL
GAST_HUCK


@<TRIPOS>ATOM
      1 F1         27.8630    9.2250   18.6900 F         1 1YS        -0.1672
      2 C2         28.4790    9.2130   19.9050 C.3       1 1YS         0.4281
      3 F3         28.3380   10.4390   20.4650 F         1 1YS        -0.1672
      4 F4         27.8300    8.2970   20.6690 F         1 1YS        -0.1672
      5 C5         29.9840    8.8470   19.7250 C.3       1 1YS         0.2660
      6 O7         30.6190    9.8800   18.9450 O.3       1 1YS        -0.3053
      7 C8         30.9180    9.6780   17.5980 C.ar      1 1YS         0.1022
      8 C9         30.5380   10.6680   16.6570 C.ar      1 1YS         0.0924
      9 C10        30.8240   10.4630   15.2800 C.ar      1 1YS         0.1338
     10 C11        31.4810    9.2900   14.8540 C.ar      1 1YS        -0.0493
     11 C13        31.8560    8.3020   15.7970 C.ar      1 1YS        -0.0657
     12 C14        31.5770    8.5040   17.1660 C.ar      1 1YS        -0.0464
     13 C16        32.5420    6.9950   15.3660 C.3       1 1YS        -0.0205
     14 C19        31.4750    6.0780   14.6590 C.3       1 1YS         0.0283
     15 C21        32.0500    4.6750   14.2880 C.3       1 1YS         0.1070
     16 C23        31.0760    3.8250   13.4110 C.3       1 1YS         0.0364
     17 C25        29.6510    3.6340   14.0210 C.3       1 1YS         0.1440
     18 S28        28.8500    5.1960   14.4150 S.3       1 1YS         0.1521
     19 C29        30.1260    5.9160   15.4450 C.3       1 1YS         0.1065
     20 O32        28.8150    6.0360   13.1660 O.3       1 1YS        -0.1237
     21 N33        31.7170    2.5270   13.0340 N.4       1 1YS         0.2454
     22 C35        31.1730    1.6580   11.9410 C.3       1 1YS         0.0069
     23 C38        31.0220    2.4820   10.6450 C.ar      1 1YS         0.0301
     24 C39        32.1710    2.9440    9.9630 C.ar      1 1YS        -0.0336
     25 C41        32.0950    3.7170    8.7650 C.ar      1 1YS        -0.0545
     26 C42        30.7830    4.0080    8.2820 C.ar      1 1YS        -0.0455
     27 C44        29.6170    3.5520    8.9480 C.ar      1 1YS        -0.0379
     28 C46        29.7330    2.7880   10.1300 C.ar      1 1YS        -0.0265
     29 C48        33.4180    4.1930    8.0650 C.3       1 1YS        -0.0466
     30 C49        34.3730    2.9820    7.8190 C.3       1 1YS        -0.0838
     31 C53        33.2530    4.8860    6.6710 C.3       1 1YS        -0.0838
     32 C57        34.1470    5.2380    8.9640 C.3       1 1YS        -0.0838
     33 O61        33.2770    4.8500   13.5560 O.3       1 1YS        -0.3856
     34 F63        30.4750   11.3660   14.3710 F         1 1YS        -0.1980
     35 N64        29.9050   11.7950   17.0740 N.pl3     1 1YS        -0.3441
     36 C67        30.8150    8.6840   21.0270 C.3       1 1YS         0.4281
     37 F68        30.2270    7.8520   21.9210 F         1 1YS        -0.1672
     38 F69        32.0320    8.1730   20.7170 F         1 1YS        -0.1672
     39 F70        31.0090    9.9060   21.5770 F         1 1YS        -0.1672
     40 H1         30.0295    7.8950   19.1758 H         1 1YS         0.0829
     41 H2         31.6995    9.1442   13.8023 H         1 1YS         0.0419
     42 H3         31.8701    7.7536   17.8913 H         1 1YS         0.0414
     43 H4         32.9464    6.4796   16.2497 H         1 1YS         0.0404
     44 H5         33.3602    7.2192   14.6659 H         1 1YS         0.0404
     45 H6         31.2245    6.5802   13.7130 H         1 1YS         0.0374
     46 H7         32.2543    4.1254   15.2187 H         1 1YS         0.0656
     47 H8         30.9302    4.3883   12.4775 H         1 1YS         0.0904
     48 H9         29.7395    3.0413   14.9434 H         1 1YS         0.0696
     49 H10        29.0272    3.0918   13.2952 H         1 1YS         0.0696
     50 H11        29.7915    6.9058   15.7892 H         1 1YS         0.0643
     51 H12        30.2946    5.2632   16.3141 H         1 1YS         0.0643
     52 H13        28.6089    6.9345   13.3957 H         1 1YS         0.4476
     53 H14        31.7199    1.9614   13.8684 H         1 1YS         0.2033
     54 H15        32.6657    2.7465   12.7735 H         1 1YS         0.2033
     55 H16        30.1901    1.2659   12.2411 H         1 1YS         0.0985
     56 H17        31.8631    0.8202   11.7628 H         1 1YS         0.0985
     57 H18        33.1480    2.7019   10.3654 H         1 1YS         0.0779
     58 H19        30.6750    4.5960    7.3778 H         1 1YS         0.0800
     59 H20        28.6371    3.7898    8.5500 H         1 1YS         0.0683
     60 H21        28.8441    2.4369   10.6416 H         1 1YS         0.0805
     61 H22        35.2927    3.3340    7.3289 H         1 1YS         0.0138
     62 H23        33.8724    2.2454    7.1734 H         1 1YS         0.0138
     63 H24        34.6267    2.5136    8.7814 H         1 1YS         0.0138
     64 H25        32.5865    5.7555    6.7704 H         1 1YS         0.0138
     65 H26        32.8196    4.1718    5.9554 H         1 1YS         0.0138
     66 H27        34.2368    5.2178    6.3077 H         1 1YS         0.0138
     67 H28        34.2980    4.8157    9.9684 H         1 1YS         0.0138
     68 H29        33.5349    6.1490    9.0376 H         1 1YS         0.0138
     69 H30        35.1224    5.4865    8.5203 H         1 1YS         0.0138
     70 H31        33.8831    5.3658   14.0748 H         1 1YS         0.2101
     71 H32        29.7033   11.9321   18.0747 H         1 1YS         0.1652
     72 H33        29.6267   12.5126   16.3895 H         1 1YS         0.1652
@<TRIPOS>BOND
     1    1    2 1  
     2    2    3 1  
     3    2    4 1  
     4    2    5 1  
     5    5    6 1  
     6    5   36 1  
     7    6    7 1  
     8    7    8 ar 
     9    7   12 ar 
    10    8    9 ar 
    11    8   35 1  
    12    9   10 ar 
    13    9   34 1  
    14   10   11 ar 
    15   11   12 ar 
    16   11   13 1  
    17   13   14 1  
    18   14   15 1  
    19   14   19 1  
    20   15   16 1  
    21   15   33 1  
    22   16   17 1  
    23   16   21 1  
    24   17   18 1  
    25   18   19 1  
    26   18   20 1  
    27   21   22 1  
    28   22   23 1  
    29   23   24 ar 
    30   23   28 ar 
    31   24   25 ar 
    32   25   26 ar 
    33   25   29 1  
    34   26   27 ar 
    35   27   28 ar 
    36   29   30 1  
    37   29   31 1  
    38   29   32 1  
    39   36   37 1  
    40   36   38 1  
    41   36   39 1  
    42    5   40 1  
    43   10   41 1  
    44   12   42 1  
    45   13   43 1  
    46   13   44 1  
    47   14   45 1  
    48   15   46 1  
    49   16   47 1  
    50   17   48 1  
    51   17   49 1  
    52   19   50 1  
    53   19   51 1  
    54   20   52 1  
    55   21   53 1  
    56   21   54 1  
    57   22   55 1  
    58   22   56 1  
    59   24   57 1  
    60   26   58 1  
    61   27   59 1  
    62   28   60 1  
    63   30   61 1  
    64   30   62 1  
    65   30   63 1  
    66   31   64 1  
    67   31   65 1  
    68   31   66 1  
    69   32   67 1  
    70   32   68 1  
    71   32   69 1  
    72   33   70 1  
    73   35   71 1  
    74   35   72 1  
@<TRIPOS>SUBSTRUCTURE
     1 1YS         1

