### 
### Created by X-TOOL on Mon Sep 10 21:13:18 2018
### 

@<TRIPOS>MOLECULE
4lxb_ligand
   75    78     1     0     0
SMALL
GAST_HUCK


@<TRIPOS>ATOM
      1 C36        17.4050  -11.4500   12.3260 C.2       1 7R9        -0.0542
      2 C35        17.5710  -10.3800   11.3690 C.2       1 7R9        -0.0524
      3 C34        16.7870   -9.3230   11.6920 C.2       1 7R9         0.1023
      4 CL         16.7060   -7.8680   10.8470 Cl        1 7R9        -0.0499
      5 S33        15.8580   -9.5910   13.0900 S.3       1 7R9        -0.0137
      6 C32        16.4970  -11.1360   13.2830 C.2       1 7R9         0.0995
      7 C31        15.9350  -11.9970   14.2600 C.2       1 7R9         0.2077
      8 O42        15.2940  -11.4910   15.1940 O.2       1 7R9        -0.3910
      9 N30        16.1370  -13.3720   14.1580 N.am      1 7R9        -0.2836
     10 C22        15.5430  -14.2330   15.1650 C.3       1 7R9         0.0666
     11 C19        14.1430  -14.6990   14.7680 C.3       1 7R9         0.1460
     12 C20        13.1900  -13.5030   14.4920 C.2       1 7R9         0.2024
     13 O41        13.1220  -13.0330   13.3380 O.2       1 7R9        -0.3947
     14 N21        12.4380  -13.0390   15.5630 N.am      1 7R9        -0.2660
     15 C23        11.8140  -11.7290   15.6340 C.3       1 7R9         0.0767
     16 C26        12.1600  -13.8250   16.7660 C.3       1 7R9         0.0393
     17 C25        10.8710  -13.2400   17.3030 C.3       1 7R9         0.0126
     18 C24        10.5890  -11.9470   16.5200 C.3       1 7R9         0.0013
     19 N27         9.3050  -11.9810   15.7900 N.4       1 7R9         0.2345
     20 C29         9.3030  -12.9530   14.7020 C.3       1 7R9        -0.0430
     21 C28         8.1510  -12.1740   16.6710 C.3       1 7R9        -0.0430
     22 N18        14.1190  -15.5040   13.5860 N.am      1 7R9        -0.2252
     23 S17        13.2920  -16.9400   13.5640 S.o2      1 7R9         0.0649
     24 O38        13.7390  -17.6090   14.7570 O.2       1 7R9        -0.1522
     25 O39        13.6030  -17.5230   12.3220 O.2       1 7R9        -0.1522
     26 C9         11.6640  -16.5670   13.7410 C.ar      1 7R9         0.1239
     27 C8         10.8740  -15.9040   12.7670 C.ar      1 7R9         0.1451
     28 O13        11.5170  -15.5090   11.6130 O.3       1 7R9        -0.2615
     29 C14        11.4360  -16.2770   10.4910 C.3       1 7R9         0.3639
     30 F16        11.8960  -15.5500    9.4920 F         1 7R9        -0.1742
     31 F15        10.2250  -16.4490    9.9980 F         1 7R9        -0.1742
     32 C10        10.9860  -16.9920   14.9200 C.ar      1 7R9        -0.0595
     33 C11         9.6250  -16.7960   15.1130 C.ar      1 7R9        -0.0850
     34 C12         8.8580  -16.1530   14.1380 C.ar      1 7R9        -0.0489
     35 C7          9.4640  -15.6850   12.9270 C.ar      1 7R9         0.1013
     36 N3          8.6210  -15.0330   11.9300 N.am      1 7R9        -0.2225
     37 C2          9.0150  -13.7300   11.3700 C.3       1 7R9         0.0536
     38 C1          8.4980  -13.4860    9.9780 C.3       1 7R9        -0.0257
     39 C6          7.0120  -13.7020    9.8930 C.3       1 7R9        -0.0334
     40 C5          6.5550  -14.9960   10.4950 C.3       1 7R9         0.0429
     41 C4          7.4160  -15.6470   11.5220 C.2       1 7R9         0.2033
     42 O40         7.0410  -16.7080   12.0060 O.2       1 7R9        -0.3861
     43 H          17.9444  -12.3951   12.2837 H         1 7R9         0.0517
     44 H          18.2350  -10.4179   10.5067 H         1 7R9         0.0447
     45 H          16.6777  -13.7563   13.4097 H         1 7R9         0.1839
     46 H          15.4769  -13.6779   16.1123 H         1 7R9         0.0563
     47 H          16.1854  -15.1155   15.3011 H         1 7R9         0.0563
     48 H          13.7421  -15.2906   15.6042 H         1 7R9         0.0774
     49 H          11.5154  -11.3840   14.6331 H         1 7R9         0.0578
     50 H          12.4972  -10.9951   16.0862 H         1 7R9         0.0578
     51 H          12.9727  -13.7165   17.4992 H         1 7R9         0.0524
     52 H          12.0312  -14.8884   16.5160 H         1 7R9         0.0524
     53 H          10.9785  -13.0145   18.3742 H         1 7R9         0.0340
     54 H          10.0462  -13.9535   17.1594 H         1 7R9         0.0340
     55 H          10.5270  -11.1123   17.2338 H         1 7R9         0.0872
     56 H           9.1958  -11.0727   15.3668 H         1 7R9         0.2031
     57 H           8.3265  -12.9349   14.1960 H         1 7R9         0.0778
     58 H           9.4868  -13.9585   15.1083 H         1 7R9         0.0778
     59 H          10.0941  -12.6984   13.9814 H         1 7R9         0.0778
     60 H           8.1787  -11.4291   17.4799 H         1 7R9         0.0778
     61 H           8.1842  -13.1853   17.1025 H         1 7R9         0.0778
     62 H           7.2235  -12.0525   16.0923 H         1 7R9         0.0778
     63 H          14.6047  -15.1982   12.7671 H         1 7R9         0.1705
     64 H          11.9662  -17.2291   10.6404 H         1 7R9         0.1414
     65 H          11.5556  -17.4882   15.6974 H         1 7R9         0.0479
     66 H           9.1547  -17.1439   16.0256 H         1 7R9         0.0485
     67 H           7.7960  -16.0071   14.2991 H         1 7R9         0.0466
     68 H          10.1136  -13.6809   11.3455 H         1 7R9         0.0581
     69 H           8.6271  -12.9382   12.0277 H         1 7R9         0.0581
     70 H           8.9993  -14.1774    9.2848 H         1 7R9         0.0291
     71 H           8.7249  -12.4490    9.6897 H         1 7R9         0.0291
     72 H           6.7196  -13.6901    8.8327 H         1 7R9         0.0290
     73 H           6.5106  -12.8774   10.4209 H         1 7R9         0.0290
     74 H           6.4354  -15.7135    9.6698 H         1 7R9         0.0507
     75 H           5.5772  -14.8088   10.9628 H         1 7R9         0.0507
@<TRIPOS>BOND
     1    1    2 1  
     2    1    6 2  
     3    2    3 2  
     4    3    4 1  
     5    3    5 1  
     6    5    6 1  
     7    6    7 1  
     8    7    8 2  
     9    7    9 am 
    10    9   10 1  
    11   10   11 1  
    12   11   12 1  
    13   11   22 1  
    14   12   13 2  
    15   12   14 am 
    16   14   15 1  
    17   14   16 1  
    18   15   18 1  
    19   16   17 1  
    20   17   18 1  
    21   18   19 1  
    22   19   20 1  
    23   19   21 1  
    24   22   23 am 
    25   23   24 2  
    26   23   25 2  
    27   23   26 1  
    28   26   27 ar 
    29   26   32 ar 
    30   27   28 1  
    31   27   35 ar 
    32   28   29 1  
    33   29   30 1  
    34   29   31 1  
    35   32   33 ar 
    36   33   34 ar 
    37   34   35 ar 
    38   35   36 1  
    39   36   37 1  
    40   36   41 am 
    41   37   38 1  
    42   38   39 1  
    43   39   40 1  
    44   40   41 1  
    45   41   42 2  
    46    1   43 1  
    47    2   44 1  
    48    9   45 1  
    49   10   46 1  
    50   10   47 1  
    51   11   48 1  
    52   15   49 1  
    53   15   50 1  
    54   16   51 1  
    55   16   52 1  
    56   17   53 1  
    57   17   54 1  
    58   18   55 1  
    59   19   56 1  
    60   20   57 1  
    61   20   58 1  
    62   20   59 1  
    63   21   60 1  
    64   21   61 1  
    65   21   62 1  
    66   22   63 1  
    67   29   64 1  
    68   32   65 1  
    69   33   66 1  
    70   34   67 1  
    71   37   68 1  
    72   37   69 1  
    73   38   70 1  
    74   38   71 1  
    75   39   72 1  
    76   39   73 1  
    77   40   74 1  
    78   40   75 1  
@<TRIPOS>SUBSTRUCTURE
     1 7R9         1

