### 
### Created by X-TOOL on Mon Sep 10 21:13:13 2018
### 

@<TRIPOS>MOLECULE
4lxd_ligand
   87    92     1     0     0
SMALL
GAST_HUCK


@<TRIPOS>ATOM
      1 C1         29.4840   28.2330    5.4050 C.ar      1 1XV        -0.0663
      2 C2         27.1090   27.8750    5.3430 C.ar      1 1XV        -0.0663
      3 C3         22.9140   31.4270   12.5320 C.ar      1 1XV        -0.0534
      4 C4         24.5180   33.1730   12.9230 C.ar      1 1XV        -0.0534
      5 CL4        28.0200   30.4490    2.4590 Cl        1 1XV        -0.0781
      6 C5         23.8710   30.7060   11.8300 C.ar      1 1XV        -0.0381
      7 C6         25.4550   32.4420   12.2120 C.ar      1 1XV        -0.0381
      8 C7         20.1390   37.5030   12.7150 C.ar      1 1XV        -0.0333
      9 C8         20.1740   36.3930   13.5430 C.ar      1 1XV        -0.0409
     10 C9         29.3840   29.1100    4.3450 C.ar      1 1XV        -0.0567
     11 C10        27.0060   28.7640    4.2960 C.ar      1 1XV        -0.0567
     12 C11        18.8900   35.1590   11.9390 C.ar      1 1XV        -0.0029
     13 C12        28.3470   27.6240    5.9140 C.ar      1 1XV        -0.0458
     14 C13        23.2480   32.6520   13.0740 C.ar      1 1XV         0.0377
     15 C14        25.1560   31.2010   11.6560 C.ar      1 1XV         0.0460
     16 C15        19.5040   37.4590   11.4780 C.ar      1 1XV         0.0839
     17 C16        18.8830   36.2670   11.1200 C.ar      1 1XV         0.2184
     18 C17        19.5640   35.2220   13.1380 C.ar      1 1XV         0.1080
     19 C18        28.1410   29.3660    3.7970 C.ar      1 1XV         0.0314
     20 C19        28.4790   26.6600    7.0090 C.2       1 1XV        -0.0448
     21 C20        28.8570   26.9620    8.2740 C.2       1 1XV         0.0129
     22 C21        22.2320   33.4570   13.7880 C.2       1 1XV         0.2151
     23 C22        28.1720   25.2580    6.5770 C.3       1 1XV        -0.0122
     24 C23        29.0260   25.8610    9.2790 C.3       1 1XV         0.0868
     25 C24        19.3310   40.6580   11.8420 C.3       1 1XV        -0.0066
     26 C25        20.3650   40.5660    9.5920 C.3       1 1XV        -0.0066
     27 C26        25.9220   29.0310   10.7330 C.3       1 1XV         0.0681
     28 C27        27.5260   30.9230   11.0890 C.3       1 1XV         0.0681
     29 C28        26.7560   28.5610    9.5500 C.3       1 1XV        -0.0098
     30 C29        28.4240   30.3840    9.9730 C.3       1 1XV        -0.0098
     31 C30        28.5390   24.2260    7.6330 C.3       1 1XV         0.0546
     32 C31        20.0260   41.9960   12.0470 C.3       1 1XV         0.0497
     33 C32        20.8700   41.9880    9.8330 C.3       1 1XV         0.0497
     34 C33        20.1590   39.7980   10.9030 C.3       1 1XV         0.0412
     35 C34        29.1570   28.3400    8.7830 C.3       1 1XV         0.0041
     36 N35        26.1440   30.4730   10.9030 N.pl3     1 1XV        -0.2958
     37 N36        28.1930   28.9150    9.7900 N.4       1 1XV         0.2519
     38 N37        19.4390   38.5600   10.5900 N.pl3     1 1XV        -0.3130
     39 N38        20.9430   32.9180   13.6950 N.am      1 1XV        -0.1564
     40 N39        18.1660   36.0910    9.8650 N.2       1 1XV         0.3063
     41 O40        17.6790   34.9850    9.6370 O.2       1 1XV         0.1710
     42 O41        22.4630   34.5190   14.3430 O.2       1 1XV        -0.3892
     43 O42        18.0710   37.0380    9.0930 O.2       1 1XV         0.1710
     44 O43        18.4020   32.9610   13.8680 O.2       1 1XV        -0.1471
     45 O44        19.7470   34.2250   15.5430 O.2       1 1XV        -0.1471
     46 O45        28.2380   24.7070    8.9440 O.3       1 1XV        -0.3641
     47 O46        20.0650   42.6880   10.8030 O.3       1 1XV        -0.3796
     48 S47        19.5700   33.7730   14.1690 S.o2      1 1XV         0.0857
     49 H1         30.4533   28.0195    5.8409 H         1 1XV         0.0546
     50 H2         26.2248   27.3732    5.7193 H         1 1XV         0.0546
     51 H3         21.9123   31.0309   12.6535 H         1 1XV         0.0636
     52 H4         24.7761   34.1344   13.3522 H         1 1XV         0.0636
     53 H5         23.6102   29.7408   11.4111 H         1 1XV         0.0530
     54 H6         26.4518   32.8484   12.0844 H         1 1XV         0.0530
     55 H7         20.6149   38.4223   13.0367 H         1 1XV         0.0533
     56 H8         20.6767   36.4432   14.5021 H         1 1XV         0.0647
     57 H9         30.2692   29.5925    3.9466 H         1 1XV         0.0600
     58 H10        26.0366   28.9892    3.8664 H         1 1XV         0.0600
     59 H11        18.3734   34.2527   11.6443 H         1 1XV         0.0677
     60 H12        28.7387   25.0400    5.6597 H         1 1XV         0.0366
     61 H13        27.0945   25.1814    6.3693 H         1 1XV         0.0366
     62 H14        28.7145   26.2301   10.2673 H         1 1XV         0.0752
     63 H15        30.0863   25.5702    9.3137 H         1 1XV         0.0752
     64 H16        18.3354   40.8247   11.4049 H         1 1XV         0.0309
     65 H17        19.2255   40.1471   12.8104 H         1 1XV         0.0309
     66 H18        21.1012   40.0274    8.9772 H         1 1XV         0.0309
     67 H19        19.4059   40.6161    9.0557 H         1 1XV         0.0309
     68 H20        26.2312   28.4963   11.6432 H         1 1XV         0.0569
     69 H21        24.8567   28.8381   10.5384 H         1 1XV         0.0569
     70 H22        27.5529   32.0226   11.0751 H         1 1XV         0.0569
     71 H23        27.8969   30.5594   12.0586 H         1 1XV         0.0569
     72 H24        26.4037   29.0542    8.6321 H         1 1XV         0.0834
     73 H25        26.6587   27.4708    9.4409 H         1 1XV         0.0834
     74 H26        29.4775   30.5562   10.2386 H         1 1XV         0.0834
     75 H27        28.1921   30.9084    9.0343 H         1 1XV         0.0834
     76 H28        29.6157   24.0108    7.5671 H         1 1XV         0.0576
     77 H29        27.9687   23.3037    7.4484 H         1 1XV         0.0576
     78 H30        21.0511   41.8286   12.4092 H         1 1XV         0.0560
     79 H31        19.4693   42.5926   12.7846 H         1 1XV         0.0560
     80 H32        20.8422   42.5410    8.8825 H         1 1XV         0.0560
     81 H33        21.9061   41.9400   10.1992 H         1 1XV         0.0560
     82 H34        21.1289   39.5638   11.3661 H         1 1XV         0.0554
     83 H35        29.1780   29.0179    7.9170 H         1 1XV         0.1007
     84 H36        30.1517   28.3129    9.2517 H         1 1XV         0.1007
     85 H37        28.4286   28.4853   10.6709 H         1 1XV         0.2052
     86 H38        18.8857   38.4910    9.7240 H         1 1XV         0.1792
     87 H39        20.8330   31.9919   13.3341 H         1 1XV         0.2133
@<TRIPOS>BOND
     1    1   10 ar 
     2   13    1 ar 
     3    2   11 ar 
     4   13    2 ar 
     5    3    6 ar 
     6   14    3 ar 
     7    4    7 ar 
     8   14    4 ar 
     9   19    5 1  
    10    6   15 ar 
    11    7   15 ar 
    12    9    8 ar 
    13    8   16 ar 
    14   18    9 ar 
    15   10   19 ar 
    16   11   19 ar 
    17   12   17 ar 
    18   18   12 ar 
    19   20   13 1  
    20   22   14 1  
    21   15   36 1  
    22   17   16 ar 
    23   16   38 1  
    24   17   40 1  
    25   48   18 1  
    26   21   20 2  
    27   20   23 1  
    28   21   24 1  
    29   35   21 1  
    30   39   22 am 
    31   22   42 2  
    32   23   31 1  
    33   24   46 1  
    34   25   32 1  
    35   34   25 1  
    36   26   33 1  
    37   34   26 1  
    38   27   29 1  
    39   36   27 1  
    40   28   30 1  
    41   36   28 1  
    42   29   37 1  
    43   30   37 1  
    44   46   31 1  
    45   32   47 1  
    46   33   47 1  
    47   38   34 1  
    48   37   35 1  
    49   39   48 am 
    50   40   41 2  
    51   40   43 2  
    52   48   44 2  
    53   48   45 2  
    54    1   49 1  
    55    2   50 1  
    56    3   51 1  
    57    4   52 1  
    58    6   53 1  
    59    7   54 1  
    60    8   55 1  
    61    9   56 1  
    62   10   57 1  
    63   11   58 1  
    64   12   59 1  
    65   23   60 1  
    66   23   61 1  
    67   24   62 1  
    68   24   63 1  
    69   25   64 1  
    70   25   65 1  
    71   26   66 1  
    72   26   67 1  
    73   27   68 1  
    74   27   69 1  
    75   28   70 1  
    76   28   71 1  
    77   29   72 1  
    78   29   73 1  
    79   30   74 1  
    80   30   75 1  
    81   31   76 1  
    82   31   77 1  
    83   32   78 1  
    84   32   79 1  
    85   33   80 1  
    86   33   81 1  
    87   34   82 1  
    88   35   83 1  
    89   35   84 1  
    90   37   85 1  
    91   38   86 1  
    92   39   87 1  
@<TRIPOS>SUBSTRUCTURE
     1 1XV         1

