### 
### Created by X-TOOL on Mon Sep 10 21:13:14 2018
### 

@<TRIPOS>MOLECULE
4lxk_ligand
   76    78     1     0     0
SMALL
GAST_HUCK


@<TRIPOS>ATOM
      1 F1         31.7580    8.1790   20.6320 F         1 1YT        -0.1675
      2 C2         30.5230    8.6360   20.9560 C.3       1 1YT         0.4217
      3 F3         29.9180    7.7100   21.7460 F         1 1YT        -0.1675
      4 F4         30.6600    9.8010   21.6280 F         1 1YT        -0.1675
      5 C5         29.7130    8.9060   19.6650 C.3       1 1YT         0.1953
      6 O7         30.3950    9.9360   18.9140 O.3       1 1YT        -0.3119
      7 C8         30.7180    9.7200   17.5800 C.ar      1 1YT         0.1019
      8 C9         30.3650   10.7000   16.6190 C.ar      1 1YT         0.0924
      9 C10        30.6850   10.4850   15.2530 C.ar      1 1YT         0.1338
     10 C11        31.3510    9.3020   14.8540 C.ar      1 1YT        -0.0493
     11 C13        31.6980    8.3200   15.8220 C.ar      1 1YT        -0.0657
     12 C14        31.3830    8.5400   17.1790 C.ar      1 1YT        -0.0464
     13 C16        32.3930    7.0070   15.4210 C.3       1 1YT        -0.0205
     14 C19        31.4080    6.0450   14.6610 C.3       1 1YT         0.0283
     15 C21        32.0130    4.6650   14.2640 C.3       1 1YT         0.1070
     16 C23        31.0590    3.8290   13.3490 C.3       1 1YT         0.0364
     17 C25        29.6410    3.5810   13.9460 C.3       1 1YT         0.1440
     18 S28        28.8100    5.1100   14.3990 S.3       1 1YT         0.1521
     19 C29        30.0730    5.8260   15.4540 C.3       1 1YT         0.1065
     20 O32        28.7390    5.9950   13.1830 O.3       1 1YT        -0.1237
     21 N33        31.6480    2.5000   13.0080 N.4       1 1YT         0.2454
     22 C35        31.0950    1.6420   11.9140 C.3       1 1YT         0.0069
     23 C38        30.9710    2.4560   10.6080 C.ar      1 1YT         0.0301
     24 C39        32.1370    2.8960    9.9390 C.ar      1 1YT        -0.0336
     25 C41        32.0940    3.6550    8.7320 C.ar      1 1YT        -0.0545
     26 C42        30.7900    3.9490    8.2270 C.ar      1 1YT        -0.0455
     27 C44        29.6090    3.5190    8.8770 C.ar      1 1YT        -0.0379
     28 C46        29.6940    2.7670   10.0730 C.ar      1 1YT        -0.0265
     29 C48        33.4160    4.1250    8.0270 C.3       1 1YT        -0.0466
     30 C49        34.3920    2.9200    7.9000 C.3       1 1YT        -0.0838
     31 C53        33.2440    4.7170    6.5850 C.3       1 1YT        -0.0838
     32 C57        34.1300    5.2460    8.8520 C.3       1 1YT        -0.0838
     33 O61        33.2390    4.8120   13.5390 O.3       1 1YT        -0.3856
     34 F63        30.3550   11.3960   14.3410 F         1 1YT        -0.1980
     35 N64        29.7250   11.8310   17.0040 N.pl3     1 1YT        -0.3441
     36 C67        28.2310    9.2670   19.9690 C.3       1 1YT         0.0859
     37 O70        27.5420    9.5200   18.7300 O.3       1 1YT        -0.3798
     38 C71        26.1180    9.6780   18.8880 C.3       1 1YT         0.0366
     39 H1         29.7099    7.9866   19.0611 H         1 1YT         0.0759
     40 H2         31.5967    9.1443   13.8101 H         1 1YT         0.0419
     41 H3         31.6535    7.7972   17.9207 H         1 1YT         0.0414
     42 H4         32.7565    6.5028   16.3286 H         1 1YT         0.0404
     43 H5         33.2445    7.2388   14.7643 H         1 1YT         0.0404
     44 H6         31.1474    6.5549   13.7218 H         1 1YT         0.0374
     45 H7         32.2059    4.1016   15.1888 H         1 1YT         0.0656
     46 H8         30.9323    4.3980   12.4162 H         1 1YT         0.0904
     47 H9         29.7407    2.9539   14.8442 H         1 1YT         0.0696
     48 H10        29.0298    3.0553   13.1977 H         1 1YT         0.0696
     49 H11        29.7173    6.7948   15.8345 H         1 1YT         0.0643
     50 H12        30.2633    5.1477   16.2988 H         1 1YT         0.0643
     51 H13        28.5072    6.8773   13.4480 H         1 1YT         0.4476
     52 H14        31.6023    1.9473   13.8497 H         1 1YT         0.2033
     53 H15        32.6125    2.6719   12.7708 H         1 1YT         0.2033
     54 H16        30.1011    1.2739   12.2083 H         1 1YT         0.0985
     55 H17        31.7677    0.7878   11.7471 H         1 1YT         0.0985
     56 H18        33.1036    2.6460   10.3612 H         1 1YT         0.0779
     57 H19        30.7022    4.5230    7.3116 H         1 1YT         0.0800
     58 H20        28.6396    3.7654    8.4591 H         1 1YT         0.0683
     59 H21        28.7934    2.4322   10.5749 H         1 1YT         0.0805
     60 H22        35.3183    3.2489    7.4062 H         1 1YT         0.0138
     61 H23        33.9195    2.1268    7.3021 H         1 1YT         0.0138
     62 H24        34.6284    2.5324    8.9019 H         1 1YT         0.0138
     63 H25        32.5588    5.5768    6.6210 H         1 1YT         0.0138
     64 H26        32.8299    3.9457    5.9190 H         1 1YT         0.0138
     65 H27        34.2226    5.0438    6.2036 H         1 1YT         0.0138
     66 H28        34.2855    4.8990    9.8842 H         1 1YT         0.0138
     67 H29        33.5042    6.1506    8.8597 H         1 1YT         0.0138
     68 H30        35.1024    5.4766    8.3924 H         1 1YT         0.0138
     69 H31        33.8541    5.3165   14.0582 H         1 1YT         0.2101
     70 H32        29.4959   11.9805   17.9970 H         1 1YT         0.1652
     71 H33        29.4678   12.5410   16.3036 H         1 1YT         0.1652
     72 H34        28.1935   10.1664   20.6012 H         1 1YT         0.0592
     73 H35        27.7484    8.4294   20.4940 H         1 1YT         0.0592
     74 H36        25.6590    9.8675   17.9065 H         1 1YT         0.0524
     75 H37        25.9153   10.5269   19.5576 H         1 1YT         0.0524
     76 H38        25.6930    8.7602   19.3204 H         1 1YT         0.0524
@<TRIPOS>BOND
     1    1    2 1  
     2    2    3 1  
     3    2    4 1  
     4    2    5 1  
     5    5    6 1  
     6    5   36 1  
     7    6    7 1  
     8    7    8 ar 
     9    7   12 ar 
    10    8    9 ar 
    11    8   35 1  
    12    9   10 ar 
    13    9   34 1  
    14   10   11 ar 
    15   11   12 ar 
    16   11   13 1  
    17   13   14 1  
    18   14   15 1  
    19   14   19 1  
    20   15   16 1  
    21   15   33 1  
    22   16   17 1  
    23   16   21 1  
    24   17   18 1  
    25   18   19 1  
    26   18   20 1  
    27   21   22 1  
    28   22   23 1  
    29   23   24 ar 
    30   23   28 ar 
    31   24   25 ar 
    32   25   26 ar 
    33   25   29 1  
    34   26   27 ar 
    35   27   28 ar 
    36   29   30 1  
    37   29   31 1  
    38   29   32 1  
    39   36   37 1  
    40   37   38 1  
    41    5   39 1  
    42   10   40 1  
    43   12   41 1  
    44   13   42 1  
    45   13   43 1  
    46   14   44 1  
    47   15   45 1  
    48   16   46 1  
    49   17   47 1  
    50   17   48 1  
    51   19   49 1  
    52   19   50 1  
    53   20   51 1  
    54   21   52 1  
    55   21   53 1  
    56   22   54 1  
    57   22   55 1  
    58   24   56 1  
    59   26   57 1  
    60   27   58 1  
    61   28   59 1  
    62   30   60 1  
    63   30   61 1  
    64   30   62 1  
    65   31   63 1  
    66   31   64 1  
    67   31   65 1  
    68   32   66 1  
    69   32   67 1  
    70   32   68 1  
    71   33   69 1  
    72   35   70 1  
    73   35   71 1  
    74   36   72 1  
    75   36   73 1  
    76   38   74 1  
    77   38   75 1  
    78   38   76 1  
@<TRIPOS>SUBSTRUCTURE
     1 1YT         1

