### 
### Created by X-TOOL on Mon Sep 10 21:13:14 2018
### 

@<TRIPOS>MOLECULE
4lxm_ligand
   72    74     1     0     0
SMALL
GAST_HUCK


@<TRIPOS>ATOM
      1 F1         27.8380    8.2430   20.0110 F         1 1YU        -0.1672
      2 C2         28.5640    9.2370   19.4400 C.3       1 1YU         0.4281
      3 F3         27.9960    9.5110   18.2400 F         1 1YU        -0.1672
      4 F4         28.5080   10.3580   20.2100 F         1 1YU        -0.1672
      5 C5         30.0320    8.7780   19.2220 C.3       1 1YU         0.2660
      6 O7         30.7740    9.7730   18.4830 O.3       1 1YU        -0.3053
      7 C8         31.1000    9.5500   17.1460 C.ar      1 1YU         0.1022
      8 C9         30.7810   10.5540   16.1970 C.ar      1 1YU         0.0924
      9 C10        31.1000   10.3500   14.8280 C.ar      1 1YU         0.1338
     10 C11        31.7240    9.1480   14.4070 C.ar      1 1YU        -0.0493
     11 C13        32.0310    8.1420   15.3620 C.ar      1 1YU        -0.0657
     12 C14        31.7260    8.3500   16.7250 C.ar      1 1YU        -0.0464
     13 C16        32.6760    6.8050   14.9550 C.3       1 1YU        -0.0205
     14 C19        31.6580    5.8540   14.2220 C.3       1 1YU         0.0283
     15 C21        32.1970    4.4150   13.9240 C.3       1 1YU         0.1070
     16 C23        31.1760    3.5250   13.1370 C.3       1 1YU         0.0364
     17 C25        29.7700    3.3960   13.7970 C.3       1 1YU         0.1440
     18 S28        29.0470    5.0300   13.9590 S.3       1 1YU         0.1521
     19 C29        30.2980    5.7710   14.9940 C.3       1 1YU         0.1065
     20 O32        27.8220    4.8770   14.8070 O.3       1 1YU        -0.1237
     21 N33        31.7250    2.1940   12.7550 N.4       1 1YU         0.2454
     22 C35        31.0880    1.3610   11.6830 C.3       1 1YU         0.0069
     23 C38        30.9320    2.2000   10.3960 C.ar      1 1YU         0.0301
     24 C39        32.0880    2.5940    9.6830 C.ar      1 1YU        -0.0336
     25 C41        32.0340    3.3770    8.4980 C.ar      1 1YU        -0.0545
     26 C42        30.7340    3.7500    8.0530 C.ar      1 1YU        -0.0455
     27 C44        29.5580    3.3670    8.7440 C.ar      1 1YU        -0.0379
     28 C46        29.6540    2.5890    9.9200 C.ar      1 1YU        -0.0265
     29 C48        33.3540    3.7890    7.7580 C.3       1 1YU        -0.0466
     30 C49        34.2780    2.5500    7.5790 C.3       1 1YU        -0.0838
     31 C53        33.1360    4.4070    6.3360 C.3       1 1YU        -0.0838
     32 C57        34.1310    4.8600    8.5910 C.3       1 1YU        -0.0838
     33 O61        33.3940    4.4390   13.1230 O.3       1 1YU        -0.3856
     34 F63        30.8060   11.2910   13.9350 F         1 1YU        -0.1980
     35 N64        30.1730   11.6950   16.5970 N.pl3     1 1YU        -0.3441
     36 C67        30.8530    8.5050   20.5070 C.3       1 1YU         0.4281
     37 F68        30.1870    7.6590   21.3340 F         1 1YU        -0.1672
     38 F69        31.1190    9.6650   21.1500 F         1 1YU        -0.1672
     39 F70        32.0390    7.9260   20.1830 F         1 1YU        -0.1672
     40 H1         29.9965    7.8474   18.6366 H         1 1YU         0.0829
     41 H2         31.9657    8.9975   13.3610 H         1 1YU         0.0419
     42 H3         31.9723    7.5868   17.4543 H         1 1YU         0.0414
     43 H4         33.0450    6.2995   15.8596 H         1 1YU         0.0404
     44 H5         33.5196    7.0095   14.2793 H         1 1YU         0.0404
     45 H6         31.4506    6.3181   13.2465 H         1 1YU         0.0374
     46 H7         32.4186    3.9351   14.8887 H         1 1YU         0.0656
     47 H8         31.0049    4.0581   12.1902 H         1 1YU         0.0904
     48 H9         29.8704    2.9372   14.7917 H         1 1YU         0.0696
     49 H10        29.1233    2.7677   13.1669 H         1 1YU         0.0696
     50 H11        29.9798    6.7844   15.2798 H         1 1YU         0.0643
     51 H12        30.4303    5.1594   15.8987 H         1 1YU         0.0643
     52 H13        27.1281    4.4838   14.2910 H         1 1YU         0.4476
     53 H14        31.7185    1.6329   13.5924 H         1 1YU         0.2033
     54 H15        32.6770    2.3521   12.4639 H         1 1YU         0.2033
     55 H16        30.0973    1.0239   12.0220 H         1 1YU         0.0985
     56 H17        31.7216    0.4863   11.4747 H         1 1YU         0.0985
     57 H18        33.0577    2.2854   10.0566 H         1 1YU         0.0779
     58 H19        30.6408    4.3481    7.1538 H         1 1YU         0.0800
     59 H20        28.5862    3.6701    8.3714 H         1 1YU         0.0683
     60 H21        28.7584    2.2921   10.4536 H         1 1YU         0.0805
     61 H22        35.1994    2.8518    7.0593 H         1 1YU         0.0138
     62 H23        33.7556    1.7857    6.9850 H         1 1YU         0.0138
     63 H24        34.5324    2.1366    8.5661 H         1 1YU         0.0138
     64 H25        32.4851    5.2901    6.4159 H         1 1YU         0.0138
     65 H26        32.6630    3.6610    5.6805 H         1 1YU         0.0138
     66 H27        34.1068    4.7042    5.9126 H         1 1YU         0.0138
     67 H28        34.3118    4.4750    9.6054 H         1 1YU         0.0138
     68 H29        33.5345    5.7823    8.6498 H         1 1YU         0.0138
     69 H30        35.0933    5.0761    8.1039 H         1 1YU         0.0138
     70 H31        34.0528    4.9690   13.5560 H         1 1YU         0.2101
     71 H32        29.9449   11.8356   17.5915 H         1 1YU         0.1652
     72 H33        29.9384   12.4228   15.9069 H         1 1YU         0.1652
@<TRIPOS>BOND
     1    1    2 1  
     2    2    3 1  
     3    2    4 1  
     4    2    5 1  
     5    5    6 1  
     6    5   36 1  
     7    6    7 1  
     8    7    8 ar 
     9    7   12 ar 
    10    8    9 ar 
    11    8   35 1  
    12    9   10 ar 
    13    9   34 1  
    14   10   11 ar 
    15   11   12 ar 
    16   11   13 1  
    17   13   14 1  
    18   14   15 1  
    19   14   19 1  
    20   15   16 1  
    21   15   33 1  
    22   16   17 1  
    23   16   21 1  
    24   17   18 1  
    25   18   19 1  
    26   18   20 1  
    27   21   22 1  
    28   22   23 1  
    29   23   24 ar 
    30   23   28 ar 
    31   24   25 ar 
    32   25   26 ar 
    33   25   29 1  
    34   26   27 ar 
    35   27   28 ar 
    36   29   30 1  
    37   29   31 1  
    38   29   32 1  
    39   36   37 1  
    40   36   38 1  
    41   36   39 1  
    42    5   40 1  
    43   10   41 1  
    44   12   42 1  
    45   13   43 1  
    46   13   44 1  
    47   14   45 1  
    48   15   46 1  
    49   16   47 1  
    50   17   48 1  
    51   17   49 1  
    52   19   50 1  
    53   19   51 1  
    54   20   52 1  
    55   21   53 1  
    56   21   54 1  
    57   22   55 1  
    58   22   56 1  
    59   24   57 1  
    60   26   58 1  
    61   27   59 1  
    62   28   60 1  
    63   30   61 1  
    64   30   62 1  
    65   30   63 1  
    66   31   64 1  
    67   31   65 1  
    68   31   66 1  
    69   32   67 1  
    70   32   68 1  
    71   32   69 1  
    72   33   70 1  
    73   35   71 1  
    74   35   72 1  
@<TRIPOS>SUBSTRUCTURE
     1 1YU         1

