### 
### Created by X-TOOL on Mon Sep 10 21:13:12 2018
### 

@<TRIPOS>MOLECULE
4lxz_ligand
   39    39     1     0     0
SMALL
GAST_HUCK


@<TRIPOS>ATOM
      1 O1         19.6360  -19.8860   -2.0940 O.3       1 SHH        -0.2717
      2 O2         20.4930  -17.6630   -0.9360 O.2       1 SHH        -0.3970
      3 N1         20.8830  -19.7820   -1.4560 N.am      1 SHH        -0.1642
      4 C1         21.2570  -18.6200   -0.8860 C.2       1 SHH         0.1988
      5 C2         22.5970  -18.5460   -0.1950 C.3       1 SHH         0.0389
      6 C3         23.5580  -17.4830   -0.7890 C.3       1 SHH        -0.0361
      7 C4         24.9330  -17.7010   -0.1330 C.3       1 SHH        -0.0509
      8 C5         25.9720  -16.7150   -0.7010 C.3       1 SHH        -0.0508
      9 C6         27.3250  -17.0050   -0.0240 C.3       1 SHH        -0.0356
     10 C7         28.3040  -15.8280   -0.1830 C.3       1 SHH         0.0432
     11 C8         28.0100  -14.7020    0.7790 C.2       1 SHH         0.2036
     12 O3         27.4610  -13.7120    0.3330 O.2       1 SHH        -0.3849
     13 N2         28.3770  -14.8320    2.0940 N.am      1 SHH        -0.2339
     14 C9         28.2700  -13.8990    3.1580 C.ar      1 SHH         0.0662
     15 C10        28.0050  -12.5340    2.9690 C.ar      1 SHH        -0.0413
     16 C11        28.0010  -11.6580    4.0550 C.ar      1 SHH        -0.0755
     17 C12        28.2660  -12.1300    5.3400 C.ar      1 SHH        -0.0772
     18 C13        28.5530  -13.4780    5.5370 C.ar      1 SHH        -0.0755
     19 C14        28.5810  -14.3460    4.4510 C.ar      1 SHH        -0.0413
     20 H1         19.5305  -20.7647   -2.4393 H         1 SHH         0.2490
     21 H2         21.4947  -20.5725   -1.4248 H         1 SHH         0.2216
     22 H3         23.0807  -19.5309   -0.2729 H         1 SHH         0.0502
     23 H4         22.4265  -18.3039    0.8644 H         1 SHH         0.0502
     24 H5         23.1883  -16.4718   -0.5636 H         1 SHH         0.0289
     25 H6         23.6352  -17.6108   -1.8788 H         1 SHH         0.0289
     26 H7         25.2674  -18.7303   -0.3296 H         1 SHH         0.0267
     27 H8         24.8437  -17.5454    0.9523 H         1 SHH         0.0267
     28 H9         25.6617  -15.6816   -0.4870 H         1 SHH         0.0267
     29 H10        26.0619  -16.8531   -1.7886 H         1 SHH         0.0267
     30 H11        27.7680  -17.9017   -0.4819 H         1 SHH         0.0290
     31 H12        27.1560  -17.1860    1.0478 H         1 SHH         0.0290
     32 H13        28.2300  -15.4431   -1.2108 H         1 SHH         0.0508
     33 H14        29.3261  -16.1912   -0.0001 H         1 SHH         0.0508
     34 H15        28.7792  -15.7141    2.3392 H         1 SHH         0.2257
     35 H16        27.8021  -12.1577    1.9729 H         1 SHH         0.0502
     36 H17        27.7910  -10.6060    3.8991 H         1 SHH         0.0577
     37 H18        28.2486  -11.4492    6.1834 H         1 SHH         0.0487
     38 H19        28.7542  -13.8502    6.5350 H         1 SHH         0.0577
     39 H20        28.8475  -15.3852    4.6060 H         1 SHH         0.0502
@<TRIPOS>BOND
     1    3    1 1  
     2    4    2 2  
     3    3    4 am 
     4    4    5 1  
     5    5    6 1  
     6    6    7 1  
     7    7    8 1  
     8    8    9 1  
     9    9   10 1  
    10   10   11 1  
    11   11   12 2  
    12   11   13 am 
    13   13   14 1  
    14   14   15 ar 
    15   14   19 ar 
    16   15   16 ar 
    17   16   17 ar 
    18   17   18 ar 
    19   18   19 ar 
    20    1   20 1  
    21    3   21 1  
    22    5   22 1  
    23    5   23 1  
    24    6   24 1  
    25    6   25 1  
    26    7   26 1  
    27    7   27 1  
    28    8   28 1  
    29    8   29 1  
    30    9   30 1  
    31    9   31 1  
    32   10   32 1  
    33   10   33 1  
    34   13   34 1  
    35   15   35 1  
    36   16   36 1  
    37   17   37 1  
    38   18   38 1  
    39   19   39 1  
@<TRIPOS>SUBSTRUCTURE
     1 SHH         1

