### 
### Created by X-TOOL on Mon Sep 10 21:13:13 2018
### 

@<TRIPOS>MOLECULE
4ly1_ligand
   42    44     1     0     0
SMALL
GAST_HUCK


@<TRIPOS>ATOM
      1 C14        20.2870  -19.4630    0.7050 C.ar      1 20Y         0.0854
      2 C5         25.8840  -16.7600   -0.8820 C.ar      1 20Y         0.0718
      3 C6         25.5380  -18.0530   -0.4980 C.ar      1 20Y        -0.0350
      4 C11        21.7710  -17.8540   -0.3870 C.2       1 20Y         0.2177
      5 C7         24.1980  -18.4060   -0.3810 C.ar      1 20Y        -0.0551
      6 C8         23.1890  -17.4440   -0.5850 C.ar      1 20Y         0.0392
      7 C9         23.5400  -16.1250   -0.9280 C.ar      1 20Y        -0.0551
      8 C10        24.8840  -15.7900   -1.0620 C.ar      1 20Y        -0.0350
      9 C1         29.2770  -15.4910   -2.0390 C.3       1 20Y         0.0320
     10 C2         27.7820  -15.6960   -2.0080 C.2       1 20Y         0.2024
     11 O3         27.0960  -15.1610   -2.8590 O.2       1 20Y        -0.3842
     12 N4         27.2590  -16.4710   -1.0240 N.am      1 20Y        -0.2309
     13 O12        20.8300  -17.2230   -0.8560 O.2       1 20Y        -0.3821
     14 N13        21.5440  -18.9170    0.4090 N.am      1 20Y        -0.2398
     15 C15        19.9600  -19.6350    2.0530 C.ar      1 20Y        -0.0451
     16 C16        18.7650  -20.2800    2.4170 C.ar      1 20Y        -0.0369
     17 C17        17.9140  -20.7440    1.4000 C.ar      1 20Y        -0.0801
     18 C18        18.2510  -20.6030    0.0580 C.ar      1 20Y        -0.0551
     19 C19        19.4360  -19.9560   -0.3170 C.ar      1 20Y         0.0606
     20 N20        19.7610  -19.8120   -1.6940 N.pl3     1 20Y        -0.3408
     21 C21        18.3920  -20.3570    3.8480 C.2       1 20Y         0.0225
     22 C22        17.1440  -20.3200    4.3590 C.2       1 20Y        -0.0736
     23 C23        17.0860  -20.3240    5.7440 C.2       1 20Y        -0.0787
     24 C24        18.2610  -20.3260    6.3740 C.2       1 20Y        -0.0096
     25 S25        19.5470  -20.3220    5.1720 S.3       1 20Y        -0.0439
     26 H1         26.3119  -18.7832   -0.2906 H         1 20Y         0.0517
     27 H2         23.9285  -19.4260   -0.1317 H         1 20Y         0.0629
     28 H3         22.7711  -15.3775   -1.0862 H         1 20Y         0.0629
     29 H4         25.1618  -14.7714   -1.3075 H         1 20Y         0.0517
     30 H5         29.7397  -16.0403   -1.2058 H         1 20Y         0.0472
     31 H6         29.5022  -14.4188   -1.9412 H         1 20Y         0.0472
     32 H7         29.6787  -15.8646   -2.9924 H         1 20Y         0.0472
     33 H8         27.8897  -16.8637   -0.3547 H         1 20Y         0.2281
     34 H9         22.3413  -19.3546    0.8248 H         1 20Y         0.2209
     35 H10        20.6312  -19.2692    2.8216 H         1 20Y         0.0446
     36 H11        16.9775  -21.2207    1.6661 H         1 20Y         0.0463
     37 H12        17.5903  -20.9976   -0.7055 H         1 20Y         0.0476
     38 H13        20.6318  -19.3366   -1.9706 H         1 20Y         0.1692
     39 H14        19.1256  -20.1831   -2.4147 H         1 20Y         0.1692
     40 H15        16.2532  -20.2894    3.7333 H         1 20Y         0.0402
     41 H16        16.1401  -20.3254    6.2836 H         1 20Y         0.0413
     42 H17        18.4019  -20.3295    7.4538 H         1 20Y         0.0709
@<TRIPOS>BOND
     1   14    1 1  
     2    1   15 ar 
     3    1   19 ar 
     4    2    3 ar 
     5    2    8 ar 
     6   12    2 1  
     7    3    5 ar 
     8    6    4 1  
     9    4   13 2  
    10    4   14 am 
    11    5    6 ar 
    12    7    6 ar 
    13    8    7 ar 
    14   10    9 1  
    15   10   11 2  
    16   10   12 am 
    17   15   16 ar 
    18   16   17 ar 
    19   16   21 1  
    20   17   18 ar 
    21   18   19 ar 
    22   19   20 1  
    23   21   22 2  
    24   21   25 1  
    25   22   23 1  
    26   23   24 2  
    27   24   25 1  
    28    3   26 1  
    29    5   27 1  
    30    7   28 1  
    31    8   29 1  
    32    9   30 1  
    33    9   31 1  
    34    9   32 1  
    35   12   33 1  
    36   14   34 1  
    37   15   35 1  
    38   17   36 1  
    39   18   37 1  
    40   20   38 1  
    41   20   39 1  
    42   22   40 1  
    43   23   41 1  
    44   24   42 1  
@<TRIPOS>SUBSTRUCTURE
     1 20Y         1

