### 
### Created by X-TOOL on Mon Sep 10 21:13:15 2018
### 

@<TRIPOS>MOLECULE
4ly9_ligand
   66    69     1     0     0
SMALL
GAST_HUCK


@<TRIPOS>ATOM
      1 C22        38.3610  -20.1460   13.5120 C.3       1 1YY        -0.0194
      2 C21        36.9810  -20.7680   13.9080 C.3       1 1YY         0.0003
      3 C20        35.8760  -20.3360   12.9320 C.3       1 1YY         0.0903
      4 O4         36.0260  -20.9250   11.6160 O.3       1 1YY        -0.3690
      5 C19        36.2560  -22.3580   11.5800 C.3       1 1YY         0.0878
      6 C18        37.3810  -22.6940   12.5800 C.3       1 1YY        -0.0075
      7 N3         37.0070  -22.2400   13.9250 N.4       1 1YY         0.2422
      8 C5         37.9740  -22.7270   14.9270 C.3       1 1YY        -0.0051
      9 C3         37.5180  -23.9710   15.7180 C.3       1 1YY         0.1031
     10 C2         38.2580  -25.2450   15.1800 C.3       1 1YY         0.0589
     11 N1         39.7210  -25.0170   15.0960 N.am      1 1YY        -0.2291
     12 S1         40.4540  -26.1770   14.2610 S.o2      1 1YY         0.0792
     13 O1         41.9100  -26.1510   14.5550 O.2       1 1YY        -0.1497
     14 O2         40.0440  -25.9790   12.8430 O.2       1 1YY        -0.1497
     15 C6         39.8670  -27.7520   14.7180 C.2       1 1YY         0.1604
     16 C7         38.9010  -28.4650   14.1160 C.2       1 1YY        -0.0523
     17 C8         38.6450  -29.6230   14.7510 C.2       1 1YY        -0.0774
     18 C9         39.3890  -29.9020   15.8550 C.2       1 1YY        -0.0067
     19 S2         40.4700  -28.5870   16.0370 S.3       1 1YY        -0.0178
     20 C1         40.1410  -25.0330   16.4750 C.3       1 1YY         0.0511
     21 C4         39.3990  -23.9860   17.3200 C.3       1 1YY         0.0531
     22 N2         38.0150  -23.7150   17.0180 N.pl3     1 1YY        -0.2762
     23 C10        37.2960  -22.9030   17.8870 C.ar      1 1YY         0.0799
     24 C15        37.8010  -22.6220   19.1490 C.ar      1 1YY        -0.0089
     25 C14        37.1200  -21.8240   20.0360 C.ar      1 1YY        -0.0466
     26 C11        36.0830  -22.3630   17.5500 C.ar      1 1YY        -0.0089
     27 C12        35.3730  -21.5490   18.4190 C.ar      1 1YY        -0.0466
     28 C13        35.8910  -21.2860   19.6620 C.ar      1 1YY        -0.0334
     29 C16        35.1670  -20.3890   20.6220 C.3       1 1YY         0.1306
     30 C23        34.4870  -21.1030   21.7460 C.3       1 1YY         0.3840
     31 F2         33.7030  -20.2520   22.4360 F         1 1YY        -0.1788
     32 F3         35.4460  -21.6320   22.5550 F         1 1YY        -0.1788
     33 F1         33.6990  -21.9800   21.1970 F         1 1YY        -0.1788
     34 C17        36.2680  -19.5350   21.2450 C.3       1 1YY        -0.0609
     35 O3         34.2300  -19.6290   19.9080 O.3       1 1YY        -0.4283
     36 H1         38.2832  -19.0488   13.5157 H         1 1YY         0.0285
     37 H2         38.6432  -20.4902   12.5061 H         1 1YY         0.0285
     38 H3         39.1267  -20.4617   14.2359 H         1 1YY         0.0285
     39 H4         36.7258  -20.4098   14.9162 H         1 1YY         0.0871
     40 H5         35.9040  -19.2409   12.8320 H         1 1YY         0.0616
     41 H6         34.9034  -20.6417   13.3449 H         1 1YY         0.0616
     42 H7         36.5570  -22.6609   10.5663 H         1 1YY         0.0613
     43 H8         35.3356  -22.8895   11.8635 H         1 1YY         0.0613
     44 H9         38.3077  -22.1892   12.2694 H         1 1YY         0.0837
     45 H10        37.5431  -23.7819   12.5944 H         1 1YY         0.0837
     46 H11        36.0909  -22.5911   14.1563 H         1 1YY         0.2039
     47 H12        38.1605  -21.9148   15.6450 H         1 1YY         0.0839
     48 H13        38.9096  -22.9775   14.4056 H         1 1YY         0.0839
     49 H14        36.4260  -24.1020   15.6965 H         1 1YY         0.0642
     50 H15        37.8741  -25.4872   14.1780 H         1 1YY         0.0504
     51 H16        38.0642  -26.0873   15.8605 H         1 1YY         0.0504
     52 H17        38.3828  -28.1417   13.2144 H         1 1YY         0.0423
     53 H18        37.8756  -30.3073   14.3966 H         1 1YY         0.0404
     54 H19        39.3127  -30.7816   16.4925 H         1 1YY         0.0711
     55 H20        41.2200  -24.8237   16.5191 H         1 1YY         0.0499
     56 H21        39.9436  -26.0308   16.8939 H         1 1YY         0.0499
     57 H22        39.9461  -23.0374   17.2160 H         1 1YY         0.0552
     58 H23        39.4435  -24.3221   18.3664 H         1 1YY         0.0552
     59 H24        38.7562  -23.0425   19.4419 H         1 1YY         0.0631
     60 H25        37.5344  -21.6155   21.0157 H         1 1YY         0.0815
     61 H26        35.6653  -22.5789   16.5733 H         1 1YY         0.0631
     62 H27        34.4208  -21.1257   18.1203 H         1 1YY         0.0815
     63 H28        36.7997  -18.9874   20.4529 H         1 1YY         0.0135
     64 H29        36.9763  -20.1838   21.7811 H         1 1YY         0.0135
     65 H30        35.8215  -18.8183   21.9499 H         1 1YY         0.0135
     66 H31        34.6670  -19.1776   19.1954 H         1 1YY         0.1923
@<TRIPOS>BOND
     1    1    2 1  
     2    2    3 1  
     3    2    7 1  
     4    3    4 1  
     5    4    5 1  
     6    5    6 1  
     7    6    7 1  
     8    7    8 1  
     9    8    9 1  
    10    9   10 1  
    11    9   22 1  
    12   10   11 1  
    13   11   12 am 
    14   11   20 1  
    15   12   13 2  
    16   12   14 2  
    17   12   15 1  
    18   15   16 2  
    19   15   19 1  
    20   16   17 1  
    21   17   18 2  
    22   18   19 1  
    23   20   21 1  
    24   21   22 1  
    25   22   23 1  
    26   23   24 ar 
    27   23   26 ar 
    28   24   25 ar 
    29   25   28 ar 
    30   26   27 ar 
    31   27   28 ar 
    32   28   29 1  
    33   29   30 1  
    34   29   34 1  
    35   29   35 1  
    36   30   31 1  
    37   30   32 1  
    38   30   33 1  
    39    1   36 1  
    40    1   37 1  
    41    1   38 1  
    42    2   39 1  
    43    3   40 1  
    44    3   41 1  
    45    5   42 1  
    46    5   43 1  
    47    6   44 1  
    48    6   45 1  
    49    7   46 1  
    50    8   47 1  
    51    8   48 1  
    52    9   49 1  
    53   10   50 1  
    54   10   51 1  
    55   16   52 1  
    56   17   53 1  
    57   18   54 1  
    58   20   55 1  
    59   20   56 1  
    60   21   57 1  
    61   21   58 1  
    62   24   59 1  
    63   25   60 1  
    64   26   61 1  
    65   27   62 1  
    66   34   63 1  
    67   34   64 1  
    68   34   65 1  
    69   35   66 1  
@<TRIPOS>SUBSTRUCTURE
     1 1YY         1

