### 
### Created by X-TOOL on Mon Sep 10 21:13:14 2018
### 

@<TRIPOS>MOLECULE
4lyn_ligand
   50    52     1     0     0
SMALL
GAST_HUCK


@<TRIPOS>ATOM
      1 C5         28.5820   28.0220   24.8570 C.2       1 1YG         0.1067
      2 C7         29.9390   28.2790   24.9920 C.2       1 1YG         0.0512
      3 C8         27.8110   26.7300   24.5870 C.3       1 1YG        -0.0417
      4 C9         27.2000   31.3940   28.1370 C.2       1 1YG         0.0746
      5 C10        28.7200   25.5150   24.7640 C.3       1 1YG        -0.1014
      6 C11        27.2760   26.7380   23.1560 C.3       1 1YG        -0.1014
      7 C12        26.6410   26.6060   25.5630 C.3       1 1YG        -0.1014
      8 C14        26.3150   32.2630   28.6880 C.2       1 1YG        -0.0407
      9 C15        25.1140   30.4550   28.9440 C.2       1 1YG         0.1992
     10 N4         30.1290   29.5960   25.3080 N.2       1 1YG        -0.2326
     11 C1         28.9070   30.1190   25.3540 C.2       1 1YG         0.2397
     12 O2         27.9220   29.2140   25.0740 O.3       1 1YG        -0.2039
     13 C3         28.5420   31.4890   25.7620 C.3       1 1YG         0.1172
     14 S6         28.8380   31.5810   27.5340 S.3       1 1YG        -0.0674
     15 N16        25.1460   31.7380   29.1710 N.2       1 1YG        -0.3377
     16 N17        23.9480   29.7520   29.1830 N.am      1 1YG        -0.1972
     17 C18        23.6780   28.4770   28.7650 C.2       1 1YG         0.2271
     18 O20        24.4640   27.7990   28.1090 O.2       1 1YG        -0.3778
     19 C19        22.2830   27.9690   29.1230 C.3       1 1YG         0.0863
     20 C22        21.5900   27.4370   27.8680 C.3       1 1YG        -0.0350
     21 C21        22.4160   26.9390   30.2380 C.ar      1 1YG        -0.0209
     22 C24        22.7290   25.6090   29.9750 C.ar      1 1YG        -0.0577
     23 C26        22.7570   24.6720   30.9970 C.ar      1 1YG        -0.0681
     24 C27        22.4900   25.0560   32.2970 C.ar      1 1YG        -0.0684
     25 C25        22.2160   26.3800   32.5760 C.ar      1 1YG        -0.0681
     26 C23        22.1780   27.3160   31.5530 C.ar      1 1YG        -0.0577
     27 S13        26.5230   29.7840   28.1750 S.3       1 1YG         0.0298
     28 H1         30.7322   27.5436   24.8655 H         1 1YG         0.1151
     29 H2         28.1476   24.5969   24.5657 H         1 1YG         0.0072
     30 H3         29.1047   25.4918   25.7943 H         1 1YG         0.0072
     31 H4         29.5622   25.5814   24.0595 H         1 1YG         0.0072
     32 H5         26.6191   27.6090   23.0150 H         1 1YG         0.0072
     33 H6         26.7059   25.8154   22.9725 H         1 1YG         0.0072
     34 H7         28.1177   26.7955   22.4502 H         1 1YG         0.0072
     35 H8         27.0231   26.6000   26.5945 H         1 1YG         0.0072
     36 H9         26.0982   25.6695   25.3676 H         1 1YG         0.0072
     37 H10        25.9599   27.4594   25.4293 H         1 1YG         0.0072
     38 H11        26.5251   33.3301   28.7436 H         1 1YG         0.0355
     39 H12        27.4818   31.6826   25.5421 H         1 1YG         0.0761
     40 H13        29.1665   32.2236   25.2325 H         1 1YG         0.0761
     41 H14        23.2367   30.2176   29.7095 H         1 1YG         0.2385
     42 H15        21.6857   28.8097   29.5058 H         1 1YG         0.0699
     43 H16        21.5330   28.2360   27.1141 H         1 1YG         0.0278
     44 H17        20.5742   27.1016   28.1243 H         1 1YG         0.0278
     45 H18        22.1643   26.5908   27.4628 H         1 1YG         0.0278
     46 H19        22.9535   25.3018   28.9599 H         1 1YG         0.0561
     47 H20        22.9888   23.6365   30.7755 H         1 1YG         0.0600
     48 H21        22.4956   24.3213   33.0940 H         1 1YG         0.0561
     49 H22        22.0299   26.6892   33.5982 H         1 1YG         0.0600
     50 H23        21.9602   28.3528   31.7826 H         1 1YG         0.0561
@<TRIPOS>BOND
     1    1    2 2  
     2    1    3 1  
     3   12    1 1  
     4   10    2 1  
     5    3    5 1  
     6    3    6 1  
     7    3    7 1  
     8    4    8 2  
     9   14    4 1  
    10    4   27 1  
    11    8   15 1  
    12    9   15 2  
    13    9   16 1  
    14   27    9 1  
    15   11   10 2  
    16   11   12 1  
    17   13   11 1  
    18   13   14 1  
    19   16   17 am 
    20   17   18 2  
    21   17   19 1  
    22   19   20 1  
    23   19   21 1  
    24   21   22 ar 
    25   21   26 ar 
    26   22   23 ar 
    27   23   24 ar 
    28   24   25 ar 
    29   25   26 ar 
    30    2   28 1  
    31    5   29 1  
    32    5   30 1  
    33    5   31 1  
    34    6   32 1  
    35    6   33 1  
    36    6   34 1  
    37    7   35 1  
    38    7   36 1  
    39    7   37 1  
    40    8   38 1  
    41   13   39 1  
    42   13   40 1  
    43   16   41 1  
    44   19   42 1  
    45   20   43 1  
    46   20   44 1  
    47   20   45 1  
    48   22   46 1  
    49   23   47 1  
    50   24   48 1  
    51   25   49 1  
    52   26   50 1  
@<TRIPOS>SUBSTRUCTURE
     1 1YG         1

