### 
### Created by X-TOOL on Mon Sep 10 21:13:19 2018
### 

@<TRIPOS>MOLECULE
4lys_ligand
   51    53     1     0     0
SMALL
GAST_HUCK


@<TRIPOS>ATOM
      1 O4          6.9190   54.0140    4.4070 O.2       1 2SJ        -0.3972
      2 C12         6.3190   52.9510    4.5460 C.2       1 2SJ         0.1754
      3 C13         6.1320   52.0800    3.3640 C.3       1 2SJ         0.0258
      4 N1          5.8110   52.5710    5.7260 N.am      1 2SJ        -0.2699
      5 C11         5.1650   51.2900    5.9480 C.3       1 2SJ         0.0823
      6 C14         3.8390   51.1530    5.2440 C.2       1 2SJ        -0.0111
      7 C15         3.2130   52.2960    4.9170 C.2       1 2SJ        -0.0124
      8 C10         4.9800   51.0260    7.4440 C.3       1 2SJ        -0.0092
      9 C9          4.3600   49.6620    7.7590 C.3       1 2SJ        -0.0241
     10 C8          4.7070   48.5800    6.7510 C.ar      1 2SJ        -0.0625
     11 C7          5.4910   47.4970    7.1330 C.ar      1 2SJ        -0.0505
     12 C5          5.8160   46.4940    6.2290 C.ar      1 2SJ         0.1043
     13 C3          5.3670   46.5710    4.9350 C.ar      1 2SJ         0.1392
     14 C1          4.5730   47.6270    4.5510 C.ar      1 2SJ         0.1123
     15 O1          4.1450   47.6790    3.2550 O.3       1 2SJ        -0.3292
     16 C2          4.7090   48.6710    2.3970 C.3       1 2SJ         0.0565
     17 O2          5.6310   45.5580    4.0590 O.3       1 2SJ        -0.3345
     18 C4          6.6810   45.6610    3.1560 C.3       1 2SJ         0.0525
     19 O3          6.5780   45.4050    6.5560 O.3       1 2SJ        -0.3299
     20 C6          7.1210   45.2290    7.8550 C.3       1 2SJ         0.0563
     21 C22         4.2440   48.6430    5.4520 C.ar      1 2SJ        -0.0081
     22 C21         3.3820   49.7870    4.9890 C.2       1 2SJ        -0.0142
     23 C20         2.2390   49.3840    4.3870 C.2       1 2SJ        -0.0411
     24 C19         1.1650   50.1400    3.7880 C.3       1 2SJ         0.0675
     25 C17         1.0440   51.4650    3.7110 C.2       1 2SJ         0.1986
     26 C16         1.9460   52.4870    4.2180 C.2       1 2SJ         0.1821
     27 O5          1.6230   53.6540    4.0170 O.2       1 2SJ        -0.3724
     28 O6         -0.0210   51.9230    3.0840 O.2       1 2SJ        -0.3533
     29 H           5.5799   51.1754    3.6588 H         1 2SJ         0.0467
     30 H           7.1144   51.7945    2.9598 H         1 2SJ         0.0467
     31 H           5.5627   52.6227    2.5950 H         1 2SJ         0.0467
     32 H           5.8806   53.2047    6.4964 H         1 2SJ         0.1887
     33 H           5.8336   50.5145    5.5461 H         1 2SJ         0.0764
     34 H           3.7237   53.2101    5.2161 H         1 2SJ         0.0383
     35 H           4.3250   51.8080    7.8557 H         1 2SJ         0.0335
     36 H           5.9653   51.0795    7.9300 H         1 2SJ         0.0335
     37 H           3.2662   49.7758    7.7819 H         1 2SJ         0.0406
     38 H           4.7160   49.3401    8.7488 H         1 2SJ         0.0406
     39 H           5.8542   47.4346    8.1524 H         1 2SJ         0.0367
     40 H           4.2651   48.5838    1.3943 H         1 2SJ         0.0573
     41 H           5.7969   48.5227    2.3305 H         1 2SJ         0.0573
     42 H           4.4995   49.6708    2.8050 H         1 2SJ         0.0573
     43 H           6.7281   44.7489    2.5429 H         1 2SJ         0.0565
     44 H           7.6263   45.7828    3.7051 H         1 2SJ         0.0565
     45 H           6.5203   46.5327    2.5047 H         1 2SJ         0.0565
     46 H           7.6940   44.2907    7.8888 H         1 2SJ         0.0573
     47 H           6.3047   45.1868    8.5911 H         1 2SJ         0.0573
     48 H           7.7853   46.0730    8.0922 H         1 2SJ         0.0573
     49 H           2.1067   48.3038    4.3477 H         1 2SJ         0.0811
     50 H           0.2597   49.8068    4.3166 H         1 2SJ         0.0719
     51 H           1.1282   49.7947    2.7442 H         1 2SJ         0.0719
@<TRIPOS>BOND
     1    1    2 2  
     2    2    3 1  
     3    2    4 am 
     4    4    5 1  
     5    5    6 1  
     6    5    8 1  
     7    6    7 2  
     8    6   22 1  
     9    7   26 1  
    10    8    9 1  
    11    9   10 1  
    12   10   11 ar 
    13   10   21 ar 
    14   11   12 ar 
    15   12   13 ar 
    16   12   19 1  
    17   13   14 ar 
    18   13   17 1  
    19   14   15 1  
    20   14   21 ar 
    21   15   16 1  
    22   17   18 1  
    23   19   20 1  
    24   21   22 1  
    25   22   23 2  
    26   23   24 1  
    27   24   25 1  
    28   25   26 1  
    29   25   28 2  
    30   26   27 2  
    31    3   29 1  
    32    3   30 1  
    33    3   31 1  
    34    4   32 1  
    35    5   33 1  
    36    7   34 1  
    37    8   35 1  
    38    8   36 1  
    39    9   37 1  
    40    9   38 1  
    41   11   39 1  
    42   16   40 1  
    43   16   41 1  
    44   16   42 1  
    45   18   43 1  
    46   18   44 1  
    47   18   45 1  
    48   20   46 1  
    49   20   47 1  
    50   20   48 1  
    51   23   49 1  
    52   24   50 1  
    53   24   51 1  
@<TRIPOS>SUBSTRUCTURE
     1 2SJ         1

