### 
### Created by X-TOOL on Mon Sep 10 21:13:18 2018
### 

@<TRIPOS>MOLECULE
4lyw_ligand
   56    57     1     0     0
SMALL
GAST_HUCK


@<TRIPOS>ATOM
      1 C1          4.7060    9.9960   23.9470 C.3       1 21Q        -0.0585
      2 C2          4.1290    9.7990   22.5520 C.3       1 21Q        -0.0345
      3 C3          5.2040    9.4760   21.5890 C.2       1 21Q        -0.0328
      4 N6          6.5950    8.3540   20.2800 N.pl3     1 21Q        -0.2739
      5 C7          5.5660    8.2050   21.1660 C.2       1 21Q         0.1217
      6 C8          5.0770    6.8930   21.4620 C.2       1 21Q         0.2252
      7 C11         3.7240    5.5770   23.0290 C.ar      1 21Q         0.0968
      8 C12         3.4720    4.4860   22.2120 C.ar      1 21Q        -0.0230
      9 C13         2.7930    3.4020   22.7610 C.ar      1 21Q         0.0837
     10 C14         2.3650    3.3900   24.0760 C.ar      1 21Q        -0.0597
     11 C15         2.6210    4.4770   24.8820 C.ar      1 21Q        -0.0445
     12 C16         3.2970    5.5490   24.3410 C.ar      1 21Q         0.1090
     13 O17         3.5670    6.6550   25.1260 O.3       1 21Q        -0.3394
     14 C22         0.5180    3.4530   20.5740 C.3       1 21Q         0.0267
     15 C24        -0.2040    1.2260   21.4020 C.3       1 21Q         0.0267
     16 C27         6.0960   11.8390   21.0150 C.2       1 21Q         0.0977
     17 O28         7.1170   12.4840   20.8100 O.2       1 21Q        -0.4021
     18 C4          6.0580   10.4020   20.9380 C.2       1 21Q         0.0277
     19 C5          6.9110    9.6700   20.1250 C.2       1 21Q         0.0622
     20 C26         8.0110   10.0460   19.1950 C.3       1 21Q        -0.0012
     21 C29         4.8170   12.5450   21.3010 C.3       1 21Q         0.0031
     22 C23         0.1130    2.9090   19.2190 C.3       1 21Q        -0.0480
     23 C25         0.5740   -0.0520   21.1720 C.3       1 21Q        -0.0480
     24 N10         4.4030    6.7620   22.6510 N.am      1 21Q        -0.2405
     25 N21         0.7560    2.3440   21.5290 N.am      1 21Q        -0.2360
     26 O9          5.2740    5.9670   20.6990 O.2       1 21Q        -0.3932
     27 O19         3.0720    1.8820   20.5450 O.2       1 21Q        -0.1517
     28 O20         2.4630    0.8150   22.7790 O.2       1 21Q        -0.1517
     29 S18         2.3880    1.9160   21.8280 S.o2      1 21Q         0.0623
     30 H           3.8938   10.2351   24.6493 H         1 21Q         0.0248
     31 H           5.4315   10.8226   23.9304 H         1 21Q         0.0248
     32 H           5.2094    9.0726   24.2694 H         1 21Q         0.0248
     33 H           3.6244   10.7235   22.2348 H         1 21Q         0.0382
     34 H           3.4023    8.9735   22.5738 H         1 21Q         0.0382
     35 H           7.0674    7.5775   19.7954 H         1 21Q         0.2317
     36 H           3.7939    4.4772   21.1769 H         1 21Q         0.0485
     37 H           1.8322    2.5318   24.4693 H         1 21Q         0.0479
     38 H           2.2985    4.4890   25.9169 H         1 21Q         0.0495
     39 H           4.0348    7.3013   24.6104 H         1 21Q         0.2433
     40 H          -0.2856    4.0971   20.9604 H         1 21Q         0.0475
     41 H           1.4406    4.0423   20.4665 H         1 21Q         0.0475
     42 H          -0.7961    1.1389   22.3249 H         1 21Q         0.0475
     43 H          -0.8763    1.4093   20.5509 H         1 21Q         0.0475
     44 H           8.1306   11.1395   19.1916 H         1 21Q         0.0449
     45 H           7.7668    9.7008   18.1795 H         1 21Q         0.0449
     46 H           8.9484    9.5757   19.5267 H         1 21Q         0.0449
     47 H           4.0173   11.8060   21.4571 H         1 21Q         0.0441
     48 H           4.5572   13.1922   20.4503 H         1 21Q         0.0441
     49 H           4.9313   13.1583   22.2069 H         1 21Q         0.0441
     50 H          -0.0590    3.7448   18.5249 H         1 21Q         0.0245
     51 H          -0.8111    2.3211   19.3212 H         1 21Q         0.0245
     52 H           0.9151    2.2662   18.8272 H         1 21Q         0.0245
     53 H          -0.1260   -0.8950   21.0752 H         1 21Q         0.0245
     54 H           1.2468   -0.2301   22.0239 H         1 21Q         0.0245
     55 H           1.1665    0.0403   20.2498 H         1 21Q         0.0245
     56 H           4.3907    7.5394   23.2799 H         1 21Q         0.2205
@<TRIPOS>BOND
     1    2    1 1  
     2    3    2 1  
     3    5    3 2  
     4    3   18 1  
     5    5    4 1  
     6    4   19 1  
     7    6    5 1  
     8   24    6 am 
     9    6   26 2  
    10    8    7 ar 
    11    7   12 ar 
    12    7   24 1  
    13    9    8 ar 
    14    9   10 ar 
    15   29    9 1  
    16   10   11 ar 
    17   11   12 ar 
    18   12   13 1  
    19   14   22 1  
    20   25   14 1  
    21   15   23 1  
    22   25   15 1  
    23   16   17 2  
    24   18   16 1  
    25   16   21 1  
    26   19   18 2  
    27   19   20 1  
    28   25   29 am 
    29   29   27 2  
    30   29   28 2  
    31    1   30 1  
    32    1   31 1  
    33    1   32 1  
    34    2   33 1  
    35    2   34 1  
    36    4   35 1  
    37    8   36 1  
    38   10   37 1  
    39   11   38 1  
    40   13   39 1  
    41   14   40 1  
    42   14   41 1  
    43   15   42 1  
    44   15   43 1  
    45   20   44 1  
    46   20   45 1  
    47   20   46 1  
    48   21   47 1  
    49   21   48 1  
    50   21   49 1  
    51   22   50 1  
    52   22   51 1  
    53   22   52 1  
    54   23   53 1  
    55   23   54 1  
    56   23   55 1  
    57   24   56 1  
@<TRIPOS>SUBSTRUCTURE
     1 21Q         1

