### 
### Created by X-TOOL on Mon Sep 10 21:13:19 2018
### 

@<TRIPOS>MOLECULE
4lzr_ligand
   54    56     1     0     0
SMALL
GAST_HUCK


@<TRIPOS>ATOM
      1 O4        -14.5370    6.0370   -5.7800 O.2       1 LOC        -0.3972
      2 C12       -13.8110    6.4180   -4.8550 C.2       1 LOC         0.1753
      3 C13       -12.3610    6.0970   -4.7960 C.3       1 LOC         0.0258
      4 N1        -14.2680    7.1770   -3.8470 N.am      1 LOC        -0.2705
      5 C11       -13.3990    7.8030   -2.8640 C.3       1 LOC         0.0828
      6 C14       -13.1780    6.9710   -1.6150 C.2       1 LOC        -0.0038
      7 C15       -14.1460    6.1160   -1.2320 C.2       1 LOC        -0.0143
      8 C10       -13.9090    9.2110   -2.5360 C.3       1 LOC        -0.0094
      9 C9        -13.0720    9.9320   -1.4750 C.3       1 LOC        -0.0226
     10 C8        -11.5990    9.6260   -1.6240 C.ar      1 LOC        -0.0580
     11 C7        -10.7890   10.6660   -2.0600 C.ar      1 LOC        -0.0473
     12 C5         -9.4250   10.4750   -2.2230 C.ar      1 LOC         0.1074
     13 C3         -8.8700    9.2220   -1.9540 C.ar      1 LOC         0.1422
     14 C1         -9.6750    8.1680   -1.5260 C.ar      1 LOC         0.1169
     15 O1         -9.0870    6.9490   -1.2960 O.3       1 LOC        -0.3270
     16 C2         -9.0450    6.0520   -2.4150 C.3       1 LOC         0.0572
     17 O2         -7.5060    9.0360   -2.0910 O.3       1 LOC        -0.3339
     18 C4         -6.6980    9.4670   -1.0060 C.3       1 LOC         0.0526
     19 O3         -8.6080   11.5050   -2.6350 O.3       1 LOC        -0.3280
     20 C6         -9.0390   12.8530   -2.8820 C.3       1 LOC         0.0570
     21 C22       -11.0500    8.3640   -1.3680 C.ar      1 LOC        -0.0006
     22 C21       -11.9260    7.2420   -0.8870 C.2       1 LOC        -0.0155
     23 C20       -11.4770    6.6850    0.2460 C.2       1 LOC        -0.0540
     24 C19       -12.0020    5.5830    1.0320 C.2       1 LOC        -0.0134
     25 C17       -13.1580    4.9330    0.8990 C.2       1 LOC         0.1536
     26 C16       -14.2040    5.1940   -0.0890 C.2       1 LOC         0.1391
     27 O5        -15.2340    4.5570    0.0340 O.2       1 LOC        -0.4348
     28 O6        -13.4060    3.8550    1.8360 O.3       1 LOC        -0.3002
     29 C18       -12.3330    3.1890    2.5060 C.3       1 LOC         0.0662
     30 H         -11.9243    6.5388   -3.8882 H         1 LOC         0.0467
     31 H         -11.8578    6.5093   -5.6830 H         1 LOC         0.0467
     32 H         -12.2277    5.0054   -4.7731 H         1 LOC         0.0467
     33 H         -15.2547    7.3189   -3.7682 H         1 LOC         0.1885
     34 H         -12.4133    7.9172   -3.3386 H         1 LOC         0.0753
     35 H         -15.0270    6.1065   -1.8721 H         1 LOC         0.0486
     36 H         -14.9426    9.1301   -2.1683 H         1 LOC         0.0335
     37 H         -13.8937    9.8105   -3.4581 H         1 LOC         0.0335
     38 H         -13.4045    9.6083   -0.4777 H         1 LOC         0.0413
     39 H         -13.2232   11.0167   -1.5778 H         1 LOC         0.0413
     40 H         -11.2260   11.6345   -2.2746 H         1 LOC         0.0376
     41 H          -8.5552    5.1140   -2.1148 H         1 LOC         0.0575
     42 H          -8.4777    6.5156   -3.2355 H         1 LOC         0.0575
     43 H         -10.0699    5.8386   -2.7526 H         1 LOC         0.0575
     44 H          -5.6407    9.2664   -1.2339 H         1 LOC         0.0565
     45 H          -6.9865    8.9223   -0.0949 H         1 LOC         0.0565
     46 H          -6.8407   10.5463   -0.8486 H         1 LOC         0.0565
     47 H          -8.1786   13.4608   -3.1988 H         1 LOC         0.0574
     48 H          -9.4672   13.2756   -1.9611 H         1 LOC         0.0574
     49 H          -9.8011   12.8548   -3.6752 H         1 LOC         0.0574
     50 H         -10.5674    7.1333    0.6431 H         1 LOC         0.0649
     51 H         -11.3620    5.2396    1.8434 H         1 LOC         0.0579
     52 H         -12.7407    2.4096    3.1665 H         1 LOC         0.0593
     53 H         -11.7662    3.9173    3.1047 H         1 LOC         0.0593
     54 H         -11.6665    2.7276    1.7624 H         1 LOC         0.0593
@<TRIPOS>BOND
     1    1    2 2  
     2    2    3 1  
     3    2    4 am 
     4    4    5 1  
     5    5    6 1  
     6    5    8 1  
     7    6    7 2  
     8    6   22 1  
     9    7   26 1  
    10    8    9 1  
    11    9   10 1  
    12   10   11 ar 
    13   10   21 ar 
    14   11   12 ar 
    15   12   13 ar 
    16   12   19 1  
    17   13   14 ar 
    18   13   17 1  
    19   14   15 1  
    20   14   21 ar 
    21   15   16 1  
    22   17   18 1  
    23   19   20 1  
    24   21   22 1  
    25   22   23 2  
    26   23   24 1  
    27   24   25 2  
    28   25   26 1  
    29   25   28 1  
    30   26   27 2  
    31   28   29 1  
    32    3   30 1  
    33    3   31 1  
    34    3   32 1  
    35    4   33 1  
    36    5   34 1  
    37    7   35 1  
    38    8   36 1  
    39    8   37 1  
    40    9   38 1  
    41    9   39 1  
    42   11   40 1  
    43   16   41 1  
    44   16   42 1  
    45   16   43 1  
    46   18   44 1  
    47   18   45 1  
    48   18   46 1  
    49   20   47 1  
    50   20   48 1  
    51   20   49 1  
    52   23   50 1  
    53   24   51 1  
    54   29   52 1  
    55   29   53 1  
    56   29   54 1  
@<TRIPOS>SUBSTRUCTURE
     1 LOC         1

