### 
### Created by X-TOOL on Mon Sep 10 21:13:18 2018
### 

@<TRIPOS>MOLECULE
4lzs_ligand
   31    31     1     0     0
SMALL
GAST_HUCK


@<TRIPOS>ATOM
      1 C4         12.6820   38.5720   77.4760 C.2       1 L46         0.0277
      2 C3         11.7030   37.6910   77.0090 C.2       1 L46        -0.0333
      3 C7         10.4630   38.1280   77.7220 C.2       1 L46         0.1160
      4 C5         12.0390   39.4910   78.4520 C.2       1 L46         0.0622
      5 C27        14.1440   38.6210   77.1330 C.2       1 L46         0.0977
      6 C8          9.1280   37.4740   77.5610 C.2       1 L46         0.2001
      7 C26        12.6800   40.6100   79.2290 C.3       1 L46        -0.0012
      8 C29        14.8290   37.3540   76.6940 C.3       1 L46         0.0031
      9 C1         12.0780   37.1810   74.6180 C.3       1 L46        -0.0585
     10 C2         11.8370   36.5820   75.9930 C.3       1 L46        -0.0345
     11 N6         10.7390   39.1630   78.5340 N.pl3     1 L46        -0.2744
     12 N10         8.3330   37.4690   78.6420 N.am      1 L46        -0.2939
     13 O28        14.7850   39.6480   77.2540 O.2       1 L46        -0.4022
     14 O9          8.7840   36.9810   76.4910 O.2       1 L46        -0.4032
     15 C6          6.9750   36.9200   78.6330 C.3       1 L46         0.0180
     16 H          11.9243   41.0950   79.8644 H         1 L46         0.0449
     17 H          13.0998   41.3483   78.5300 H         1 L46         0.0449
     18 H          13.4842   40.2043   79.8604 H         1 L46         0.0449
     19 H          15.8880   37.5639   76.4832 H         1 L46         0.0441
     20 H          14.3431   36.9706   75.7847 H         1 L46         0.0441
     21 H          14.7564   36.6020   77.4935 H         1 L46         0.0441
     22 H          12.1756   36.3730   73.8780 H         1 L46         0.0248
     23 H          13.0026   37.7767   74.6344 H         1 L46         0.0248
     24 H          11.2304   37.8270   74.3458 H         1 L46         0.0248
     25 H          10.9124   35.9863   75.9764 H         1 L46         0.0382
     26 H          12.6847   35.9359   76.2651 H         1 L46         0.0382
     27 H          10.0503   39.6380   79.1348 H         1 L46         0.2317
     28 H           8.6841   37.8583   79.4936 H         1 L46         0.1825
     29 H           6.5280   37.0311   79.6319 H         1 L46         0.0481
     30 H           7.0122   35.8539   78.3645 H         1 L46         0.0481
     31 H           6.3649   37.4627   77.8959 H         1 L46         0.0481
@<TRIPOS>BOND
     1    1    2 1  
     2    1    4 2  
     3    1    5 1  
     4    2    3 2  
     5    2   10 1  
     6    3    6 1  
     7    3   11 1  
     8    4    7 1  
     9    4   11 1  
    10    5    8 1  
    11    5   13 2  
    12    6   12 am 
    13    6   14 2  
    14   10    9 1  
    15   12   15 1  
    16    7   16 1  
    17    7   17 1  
    18    7   18 1  
    19    8   19 1  
    20    8   20 1  
    21    8   21 1  
    22    9   22 1  
    23    9   23 1  
    24    9   24 1  
    25   10   25 1  
    26   10   26 1  
    27   11   27 1  
    28   12   28 1  
    29   15   29 1  
    30   15   30 1  
    31   15   31 1  
@<TRIPOS>SUBSTRUCTURE
     1 L46         1

