### 
### Created by X-TOOL on Mon Sep 10 21:13:12 2018
### 

@<TRIPOS>MOLECULE
4m0e_ligand
   35    38     1     0     0
SMALL
GAST_HUCK


@<TRIPOS>ATOM
      1 C18       -21.9220  -40.4310   26.4360 C.3       1 1YL        -0.0284
      2 C4        -20.8500  -40.7160   25.2850 C.ar      1 1YL        -0.0341
      3 C3        -21.0960  -40.3650   23.8880 C.ar      1 1YL        -0.0602
      4 C2        -20.0970  -40.6540   22.8700 C.ar      1 1YL        -0.0701
      5 C1        -18.8400  -41.3020   23.2570 C.ar      1 1YL        -0.0616
      6 C10       -18.5870  -41.6580   24.6620 C.ar      1 1YL        -0.0094
      7 C5        -19.6030  -41.3510   25.6650 C.ar      1 1YL        -0.0079
      8 C6        -19.4110  -41.6760   27.0780 C.ar      1 1YL        -0.0492
      9 C7        -18.1650  -42.3210   27.4940 C.ar      1 1YL        -0.0461
     10 C8        -17.1390  -42.6000   26.4960 C.ar      1 1YL         0.0280
     11 C9        -17.3260  -42.2970   25.0800 C.ar      1 1YL         0.0540
     12 C11       -16.2130  -42.6280   24.1350 C.2       1 1YL         0.2156
     13 O21       -16.2790  -42.3790   22.9000 O.2       1 1YL        -0.3410
     14 C12       -14.9840  -43.2650   24.5860 C.2       1 1YL         0.2051
     15 O20       -14.0660  -43.5380   23.7340 O.2       1 1YL        -0.3540
     16 C13       -14.8330  -43.6020   26.0950 C.2       1 1YL         0.0507
     17 C14       -15.8520  -43.2890   26.9740 C.2       1 1YL         0.1137
     18 O19       -15.5000  -43.6870   28.3540 O.3       1 1YL        -0.3149
     19 C16       -14.3550  -44.6420   28.2610 C.3       1 1YL         0.0797
     20 C15       -13.6170  -44.2840   26.9010 C.3       1 1YL         0.0169
     21 C17       -12.4200  -43.2130   27.0780 C.3       1 1YL        -0.0530
     22 H1        -22.8095  -39.9497   25.9994 H         1 1YL         0.0405
     23 H2        -21.4796  -39.7665   27.1928 H         1 1YL         0.0405
     24 H3        -22.2147  -41.3806   26.9078 H         1 1YL         0.0405
     25 H4        -22.0277  -39.8867   23.6084 H         1 1YL         0.0529
     26 H5        -20.2807  -40.3924   21.8342 H         1 1YL         0.0605
     27 H6        -18.0923  -41.5202   22.5031 H         1 1YL         0.0537
     28 H7        -20.1797  -41.4427   27.8058 H         1 1YL         0.0673
     29 H8        -18.0065  -42.5884   28.5325 H         1 1YL         0.0626
     30 H9        -14.7199  -45.6795   28.2393 H         1 1YL         0.0637
     31 H10       -13.6738  -44.5106   29.1147 H         1 1YL         0.0637
     32 H11       -13.2357  -45.1858   26.3996 H         1 1YL         0.0446
     33 H12       -11.9577  -43.0148   26.0997 H         1 1YL         0.0252
     34 H13       -11.6634  -43.6190   27.7655 H         1 1YL         0.0252
     35 H14       -12.8240  -42.2761   27.4892 H         1 1YL         0.0252
@<TRIPOS>BOND
     1    1    2 1  
     2    2    3 ar 
     3    2    7 ar 
     4    3    4 ar 
     5    4    5 ar 
     6    5    6 ar 
     7    6    7 ar 
     8    6   11 ar 
     9    7    8 ar 
    10    8    9 ar 
    11    9   10 ar 
    12   10   11 ar 
    13   10   17 1  
    14   11   12 1  
    15   12   13 2  
    16   12   14 1  
    17   14   15 2  
    18   14   16 1  
    19   16   17 2  
    20   16   20 1  
    21   17   18 1  
    22   18   19 1  
    23   19   20 1  
    24   20   21 1  
    25    1   22 1  
    26    1   23 1  
    27    1   24 1  
    28    3   25 1  
    29    4   26 1  
    30    5   27 1  
    31    8   28 1  
    32    9   29 1  
    33   19   30 1  
    34   19   31 1  
    35   20   32 1  
    36   21   33 1  
    37   21   34 1  
    38   21   35 1  
@<TRIPOS>SUBSTRUCTURE
     1 1YL         1

