### 
### Created by X-TOOL on Mon Sep 10 21:13:18 2018
### 

@<TRIPOS>MOLECULE
4m0r_ligand
   42    44     1     0     0
SMALL
GAST_HUCK


@<TRIPOS>ATOM
      1 O05       -19.8080   34.1910  -18.2240 O.co2     1 644        -0.5646
      2 C21       -19.7320   35.3800  -17.8360 C.2       1 644         0.0569
      3 O06       -20.6290   36.2300  -18.0540 O.co2     1 644        -0.5646
      4 C15       -18.5320   35.8350  -17.0620 C.ar      1 644         0.0321
      5 C16       -18.2690   37.2000  -17.0550 C.ar      1 644        -0.0578
      6 C17       -17.1820   37.7050  -16.3530 C.ar      1 644        -0.0703
      7 C18       -16.3680   36.8250  -15.6530 C.ar      1 644        -0.0695
      8 C19       -16.6480   35.4600  -15.6710 C.ar      1 644        -0.0356
      9 C14       -17.7390   34.9300  -16.3590 C.ar      1 644         0.0739
     10 N02       -18.0560   33.5860  -16.3910 N.pl3     1 644        -0.2719
     11 C10       -17.7060   32.5950  -15.5040 C.ar      1 644         0.0635
     12 C09       -18.0260   31.2710  -15.7940 C.ar      1 644         0.0530
     13 C20       -18.7400   30.9480  -17.0800 C.2       1 644         0.0506
     14 O04       -19.7910   31.5430  -17.3830 O.co2     1 644        -0.5687
     15 O03       -18.2310   30.0970  -17.8480 O.co2     1 644        -0.5687
     16 C11       -17.0260   32.8460  -14.3060 C.ar      1 644        -0.0477
     17 C12       -16.6590   31.8280  -13.4380 C.ar      1 644        -0.0793
     18 C13       -16.9790   30.5180  -13.7510 C.ar      1 644        -0.0477
     19 C08       -17.6840   30.2360  -14.9210 C.ar      1 644         0.0635
     20 N01       -18.0120   28.9440  -15.2230 N.pl3     1 644        -0.2719
     21 C03       -18.7410   28.1030  -14.4160 C.ar      1 644         0.0739
     22 C04       -19.0860   28.4120  -13.0900 C.ar      1 644        -0.0356
     23 C05       -19.7990   27.5260  -12.2990 C.ar      1 644        -0.0695
     24 C06       -20.2060   26.3010  -12.8170 C.ar      1 644        -0.0703
     25 C07       -19.8810   25.9770  -14.1270 C.ar      1 644        -0.0578
     26 C02       -19.1480   26.8680  -14.9160 C.ar      1 644         0.0321
     27 C01       -18.8190   26.4750  -16.3280 C.2       1 644         0.0569
     28 O02       -18.5450   27.3680  -17.1590 O.co2     1 644        -0.5646
     29 O01       -18.8440   25.2620  -16.6350 O.co2     1 644        -0.5646
     30 H         -18.9172   37.8755  -17.6016 H         1 644         0.0619
     31 H         -16.9728   38.7686  -16.3518 H         1 644         0.0522
     32 H         -15.5174   37.1984  -15.0943 H         1 644         0.0607
     33 H         -15.9938   34.7856  -15.1304 H         1 644         0.0538
     34 H         -18.6338   33.2846  -17.1886 H         1 644         0.2108
     35 H         -16.7782   33.8694  -14.0484 H         1 644         0.0439
     36 H         -16.1260   32.0564  -12.5221 H         1 644         0.0578
     37 H         -16.6823   29.7131  -13.0882 H         1 644         0.0439
     38 H         -17.6874   28.5710  -16.1265 H         1 644         0.2108
     39 H         -18.7868   29.3678  -12.6752 H         1 644         0.0538
     40 H         -20.0400   27.7877  -11.2751 H         1 644         0.0607
     41 H         -20.7706   25.6072  -12.2046 H         1 644         0.0522
     42 H         -20.1978   25.0265  -14.5409 H         1 644         0.0619
@<TRIPOS>BOND
     1    1    2 ar 
     2    2    3 ar 
     3    2    4 1  
     4    4    5 ar 
     5    4    9 ar 
     6    5    6 ar 
     7    6    7 ar 
     8    7    8 ar 
     9    8    9 ar 
    10    9   10 1  
    11   10   11 1  
    12   11   12 ar 
    13   11   16 ar 
    14   12   13 1  
    15   12   19 ar 
    16   13   14 ar 
    17   13   15 ar 
    18   16   17 ar 
    19   17   18 ar 
    20   18   19 ar 
    21   19   20 1  
    22   20   21 1  
    23   21   22 ar 
    24   21   26 ar 
    25   22   23 ar 
    26   23   24 ar 
    27   24   25 ar 
    28   25   26 ar 
    29   26   27 1  
    30   27   28 ar 
    31   27   29 ar 
    32    5   30 1  
    33    6   31 1  
    34    7   32 1  
    35    8   33 1  
    36   10   34 1  
    37   16   35 1  
    38   17   36 1  
    39   18   37 1  
    40   20   38 1  
    41   22   39 1  
    42   23   40 1  
    43   24   41 1  
    44   25   42 1  
@<TRIPOS>SUBSTRUCTURE
     1 644         1

