### 
### Created by X-TOOL on Mon Sep 10 21:13:18 2018
### 

@<TRIPOS>MOLECULE
4m0y_ligand
   35    37     1     0     0
SMALL
GAST_HUCK


@<TRIPOS>ATOM
      1 C1         10.6440    8.7990   22.7300 C.ar      1 M0Y        -0.0630
      2 C2          9.9470    8.0980   23.7580 C.ar      1 M0Y        -0.0625
      3 C3          8.8830    7.2850   23.4510 C.ar      1 M0Y        -0.0519
      4 C4          8.4490    7.1240   22.0830 C.ar      1 M0Y         0.0226
      5 C5          9.1490    7.8550   21.0510 C.ar      1 M0Y        -0.0214
      6 C6         10.2600    8.6850   21.4070 C.ar      1 M0Y        -0.0569
      7 C7          8.7250    7.7710   19.6790 C.ar      1 M0Y        -0.0630
      8 C8          7.6440    6.9880   19.3300 C.ar      1 M0Y        -0.0679
      9 C9          6.9380    6.2360   20.3100 C.ar      1 M0Y        -0.0258
     10 C10         7.3370    6.2860   21.6550 C.ar      1 M0Y         0.1195
     11 N1          6.6360    5.4170   22.5740 N.pl3     1 M0Y        -0.1695
     12 C11         7.2430    4.6710   23.5950 C.2       1 M0Y         0.0815
     13 C12         6.2110    3.9680   24.2040 C.2       1 M0Y         0.0979
     14 C13         5.0100    4.3500   23.4850 C.2       1 M0Y         0.1357
     15 N2          5.3080    5.2320   22.5090 N.2       1 M0Y        -0.1839
     16 C14         3.6280    3.9330   23.7720 C.2       1 M0Y         0.2054
     17 O1          3.4080    3.2830   24.7770 O.2       1 M0Y        -0.3894
     18 N3          2.5790    4.3300   22.9250 N.am      1 M0Y        -0.3012
     19 N4          6.2540    3.0540   25.2530 N.am      1 M0Y        -0.2349
     20 C15         7.4320    2.6880   25.9990 C.2       1 M0Y         0.2757
     21 O2          8.5710    3.1750   25.8300 O.2       1 M0Y        -0.3943
     22 N5          7.2340    1.7330   26.9890 N.am      1 M0Y        -0.2833
     23 H          11.4864    9.4298   22.9897 H         1 M0Y         0.0615
     24 H          10.2594    8.2076   24.7902 H         1 M0Y         0.0601
     25 H           8.3638    6.7588   24.2439 H         1 M0Y         0.0628
     26 H          10.8007    9.2247   20.6380 H         1 M0Y         0.0608
     27 H           9.2577    8.3259   18.9152 H         1 M0Y         0.0542
     28 H           7.3279    6.9451   18.2940 H         1 M0Y         0.0595
     29 H           6.0920    5.6244   20.0180 H         1 M0Y         0.0560
     30 H           8.3002    4.6478   23.8554 H         1 M0Y         0.0776
     31 H           1.6412    4.0448   23.1231 H         1 M0Y         0.1805
     32 H           2.7704    4.8977   22.1243 H         1 M0Y         0.1805
     33 H           5.3941    2.6136   25.5112 H         1 M0Y         0.2144
     34 H           8.0035    1.4271   27.5497 H         1 M0Y         0.1813
     35 H           6.3221    1.3517   27.1407 H         1 M0Y         0.1813
@<TRIPOS>BOND
     1    1    2 ar 
     2    1    6 ar 
     3    2    3 ar 
     4    3    4 ar 
     5    4    5 ar 
     6    4   10 ar 
     7    5    6 ar 
     8    5    7 ar 
     9    7    8 ar 
    10    8    9 ar 
    11    9   10 ar 
    12   10   11 1  
    13   11   12 1  
    14   11   15 1  
    15   12   13 2  
    16   13   14 1  
    17   13   19 1  
    18   14   15 2  
    19   14   16 1  
    20   16   17 2  
    21   16   18 am 
    22   19   20 am 
    23   20   21 2  
    24   20   22 am 
    25    1   23 1  
    26    2   24 1  
    27    3   25 1  
    28    6   26 1  
    29    7   27 1  
    30    8   28 1  
    31    9   29 1  
    32   12   30 1  
    33   18   31 1  
    34   18   32 1  
    35   19   33 1  
    36   22   34 1  
    37   22   35 1  
@<TRIPOS>SUBSTRUCTURE
     1 M0Y         1

