### 
### Created by X-TOOL on Mon Sep 10 21:13:18 2018
### 

@<TRIPOS>MOLECULE
4m12_ligand
   42    44     1     0     0
SMALL
GAST_HUCK


@<TRIPOS>ATOM
      1 N1         -4.8520    8.2250   13.2540 N.pl3     1 1YZ        -0.1717
      2 N2         -5.9410    7.5450   13.6640 N.2       1 1YZ        -0.1849
      3 C1         -5.4700    6.6200   14.5570 C.2       1 1YZ         0.1351
      4 C2         -4.0450    6.7350   14.6910 C.2       1 1YZ         0.0974
      5 C3         -3.6590    7.7730   13.8350 C.2       1 1YZ         0.0806
      6 N3         -3.2870    5.9330   15.5370 N.am      1 1YZ        -0.2350
      7 C4         -1.8990    6.1020   15.6570 C.2       1 1YZ         0.2757
      8 N4         -1.2680    5.3260   16.6210 N.am      1 1YZ        -0.2833
      9 O1         -1.2530    6.8870   14.9540 O.2       1 1YZ        -0.3943
     10 C5         -6.3310    5.6780   15.2720 C.2       1 1YZ         0.2051
     11 N5         -7.6620    5.6490   14.9370 N.am      1 1YZ        -0.3012
     12 O2         -5.8870    4.9340   16.1540 O.2       1 1YZ        -0.3896
     13 C6         -4.9620    9.3460   12.3640 C.ar      1 1YZ         0.1139
     14 C7         -4.2780    9.2990   11.1760 C.ar      1 1YZ        -0.0297
     15 C8         -4.3800   10.3860   10.2800 C.ar      1 1YZ        -0.0713
     16 C9         -5.1510   11.4700   10.5940 C.ar      1 1YZ        -0.0672
     17 C10        -5.7580   10.4690   12.7410 C.ar      1 1YZ         0.0123
     18 C11        -5.8290   11.5410   11.8370 C.ar      1 1YZ        -0.0281
     19 C12        -6.5650   12.7060   12.1940 C.ar      1 1YZ        -0.0591
     20 C13        -7.2030   12.7920   13.3940 C.ar      1 1YZ        -0.0292
     21 C14        -7.1330   11.6860   14.2930 C.ar      1 1YZ         0.0910
     22 C15        -6.4320   10.5490   13.9830 C.ar      1 1YZ        -0.0266
     23 O3         -7.7980   11.9020   15.4610 O.3       1 1YZ        -0.3188
     24 C16        -7.8100   10.8420   16.4030 C.3       1 1YZ         0.0675
     25 C17        -8.4840   11.4180   17.6420 C.3       1 1YZ        -0.0372
     26 H          -2.6518    8.1477   13.6588 H         1 1YZ         0.0774
     27 H          -3.7409    5.2201   16.0717 H         1 1YZ         0.2143
     28 H          -0.2798    5.4008   16.7549 H         1 1YZ         0.1813
     29 H          -1.8019    4.6925   17.1810 H         1 1YZ         0.1813
     30 H          -8.2815    5.0181   15.4041 H         1 1YZ         0.1805
     31 H          -8.0120    6.2587   14.2259 H         1 1YZ         0.1805
     32 H          -3.6670    8.4386   10.9280 H         1 1YZ         0.0550
     33 H          -3.8439   10.3604    9.3382 H         1 1YZ         0.0565
     34 H          -5.2451   12.2844    9.8848 H         1 1YZ         0.0536
     35 H          -6.6184   13.5372   11.5002 H         1 1YZ         0.0603
     36 H          -7.7549   13.6857   13.6619 H         1 1YZ         0.0586
     37 H          -6.3945    9.7207   14.6813 H         1 1YZ         0.0505
     38 H          -6.7840   10.5209   16.6359 H         1 1YZ         0.0611
     39 H          -8.3826    9.9869   16.0145 H         1 1YZ         0.0611
     40 H          -8.5311   10.6473   18.4255 H         1 1YZ         0.0256
     41 H          -9.5031   11.7442   17.3869 H         1 1YZ         0.0256
     42 H          -7.9045   12.2782   18.0082 H         1 1YZ         0.0256
@<TRIPOS>BOND
     1    1    2 1  
     2    1    5 1  
     3    1   13 1  
     4    2    3 2  
     5    3    4 1  
     6    3   10 1  
     7    4    5 2  
     8    4    6 1  
     9    6    7 am 
    10    7    8 am 
    11    7    9 2  
    12   10   11 am 
    13   10   12 2  
    14   13   14 ar 
    15   13   17 ar 
    16   14   15 ar 
    17   15   16 ar 
    18   16   18 ar 
    19   17   18 ar 
    20   17   22 ar 
    21   18   19 ar 
    22   19   20 ar 
    23   20   21 ar 
    24   21   22 ar 
    25   21   23 1  
    26   23   24 1  
    27   24   25 1  
    28    5   26 1  
    29    6   27 1  
    30    8   28 1  
    31    8   29 1  
    32   11   30 1  
    33   11   31 1  
    34   14   32 1  
    35   15   33 1  
    36   16   34 1  
    37   19   35 1  
    38   20   36 1  
    39   22   37 1  
    40   24   38 1  
    41   24   39 1  
    42   25   40 1  
    43   25   41 1  
    44   25   42 1  
@<TRIPOS>SUBSTRUCTURE
     1 1YZ         1

