### 
### Created by X-TOOL on Mon Sep 10 21:13:18 2018
### 

@<TRIPOS>MOLECULE
4m13_ligand
   45    47     1     0     0
SMALL
GAST_HUCK


@<TRIPOS>ATOM
      1 N1         -4.8280    8.2800   13.1770 N.pl3     1 1E0        -0.1717
      2 N2         -5.9160    7.6250   13.6250 N.2       1 1E0        -0.1849
      3 C1         -5.4400    6.7140   14.5300 C.2       1 1E0         0.1351
      4 C2         -4.0100    6.8140   14.6280 C.2       1 1E0         0.0974
      5 C3         -3.6290    7.8300   13.7450 C.2       1 1E0         0.0806
      6 N3         -3.2400    6.0040   15.4490 N.am      1 1E0        -0.2350
      7 C4         -1.8430    6.1290   15.5270 C.2       1 1E0         0.2757
      8 N4         -1.2110    5.2470   16.3970 N.am      1 1E0        -0.2833
      9 O1         -1.1960    6.9640   14.8830 O.2       1 1E0        -0.3943
     10 C5         -6.2960    5.7880   15.2740 C.2       1 1E0         0.2051
     11 N5         -7.6370    5.7640   14.9730 N.am      1 1E0        -0.3012
     12 O2         -5.8340    5.0530   16.1550 O.2       1 1E0        -0.3896
     13 C6         -4.9340    9.3780   12.2570 C.ar      1 1E0         0.1139
     14 C7         -4.3100    9.2630   11.0400 C.ar      1 1E0        -0.0297
     15 C8         -4.4000   10.3270   10.1180 C.ar      1 1E0        -0.0713
     16 C9         -5.1070   11.4550   10.4330 C.ar      1 1E0        -0.0672
     17 C10        -5.6720   10.5390   12.6270 C.ar      1 1E0         0.0123
     18 C11        -5.7440   11.5830   11.6900 C.ar      1 1E0        -0.0281
     19 C12        -6.4560   12.7680   12.0260 C.ar      1 1E0        -0.0591
     20 C13        -7.0740   12.8930   13.2320 C.ar      1 1E0        -0.0292
     21 C14        -7.0070   11.8140   14.1660 C.ar      1 1E0         0.0910
     22 C15        -6.3150   10.6670   13.8840 C.ar      1 1E0        -0.0266
     23 O3         -7.6780   12.0670   15.3210 O.3       1 1E0        -0.3185
     24 C16        -7.6970   11.0380   16.2960 C.3       1 1E0         0.0700
     25 C17        -8.3910   11.6470   17.5180 C.3       1 1E0        -0.0279
     26 C18        -7.5530   12.7660   18.1140 C.3       1 1E0        -0.0628
     27 H          -2.6218    8.1916   13.5435 H         1 1E0         0.0774
     28 H          -3.6945    5.3075   16.0042 H         1 1E0         0.2143
     29 H          -0.2173    5.2770   16.5049 H         1 1E0         0.1813
     30 H          -1.7503    4.5828   16.9147 H         1 1E0         0.1813
     31 H          -8.2484    5.1428   15.4631 H         1 1E0         0.1805
     32 H          -8.0012    6.3678   14.2639 H         1 1E0         0.1805
     33 H          -3.7550    8.3659   10.7904 H         1 1E0         0.0550
     34 H          -3.9068   10.2504    9.1557 H         1 1E0         0.0565
     35 H          -5.1801   12.2603    9.7111 H         1 1E0         0.0536
     36 H          -6.5069   13.5820   11.3120 H         1 1E0         0.0603
     37 H          -7.6111   13.8010   13.4812 H         1 1E0         0.0586
     38 H          -6.2594    9.8665   14.6128 H         1 1E0         0.0505
     39 H          -6.6721   10.7295   16.5497 H         1 1E0         0.0613
     40 H          -8.2609   10.1687   15.9269 H         1 1E0         0.0613
     41 H          -8.5383   10.8640   18.2764 H         1 1E0         0.0288
     42 H          -9.3677   12.0511   17.2137 H         1 1E0         0.0288
     43 H          -8.0714   13.1865   18.9883 H         1 1E0         0.0231
     44 H          -7.4053   13.5543   17.3612 H         1 1E0         0.0231
     45 H          -6.5758   12.3672   18.4239 H         1 1E0         0.0231
@<TRIPOS>BOND
     1    1    2 1  
     2    1    5 1  
     3    1   13 1  
     4    2    3 2  
     5    3    4 1  
     6    3   10 1  
     7    4    5 2  
     8    4    6 1  
     9    6    7 am 
    10    7    8 am 
    11    7    9 2  
    12   10   11 am 
    13   10   12 2  
    14   13   14 ar 
    15   13   17 ar 
    16   14   15 ar 
    17   15   16 ar 
    18   16   18 ar 
    19   17   18 ar 
    20   17   22 ar 
    21   18   19 ar 
    22   19   20 ar 
    23   20   21 ar 
    24   21   22 ar 
    25   21   23 1  
    26   23   24 1  
    27   24   25 1  
    28   25   26 1  
    29    5   27 1  
    30    6   28 1  
    31    8   29 1  
    32    8   30 1  
    33   11   31 1  
    34   11   32 1  
    35   14   33 1  
    36   15   34 1  
    37   16   35 1  
    38   19   36 1  
    39   20   37 1  
    40   22   38 1  
    41   24   39 1  
    42   24   40 1  
    43   25   41 1  
    44   25   42 1  
    45   26   43 1  
    46   26   44 1  
    47   26   45 1  
@<TRIPOS>SUBSTRUCTURE
     1 1E0         1

