### 
### Created by X-TOOL on Mon Sep 10 21:13:17 2018
### 

@<TRIPOS>MOLECULE
4m14_ligand
   45    47     1     0     0
SMALL
GAST_HUCK


@<TRIPOS>ATOM
      1 N1          7.4070    4.3510   24.1000 N.pl3     1 QWS        -0.1717
      2 N2          7.8760    4.7650   22.9060 N.2       1 QWS        -0.1849
      3 C3          6.7900    5.1220   22.2070 C.2       1 QWS         0.1351
      4 C4          5.6050    4.9240   22.9580 C.2       1 QWS         0.0974
      5 C5          6.0390    4.4130   24.1630 C.2       1 QWS         0.0806
      6 N6          4.2920    5.1690   22.5610 N.am      1 QWS        -0.2350
      7 C7          3.2250    4.4710   23.1100 C.2       1 QWS         0.2757
      8 N8          2.1010    4.5890   22.3320 N.am      1 QWS        -0.2833
      9 O9          3.2830    3.8070   24.1490 O.2       1 QWS        -0.3943
     10 C10         6.8960    5.6290   20.8620 C.2       1 QWS         0.2051
     11 N11         8.1660    5.5480   20.3400 N.am      1 QWS        -0.3012
     12 O12         5.9230    6.0540   20.2550 O.2       1 QWS        -0.3896
     13 C13         8.2460    3.8770   25.1320 C.ar      1 QWS         0.1139
     14 C14         7.7970    2.7760   25.8360 C.ar      1 QWS        -0.0297
     15 C15         8.5440    2.2590   26.8740 C.ar      1 QWS        -0.0713
     16 C16         9.7330    2.8640   27.2280 C.ar      1 QWS        -0.0672
     17 C17         9.4500    4.4860   25.4670 C.ar      1 QWS         0.0123
     18 C18        10.1810    3.9690   26.5340 C.ar      1 QWS        -0.0281
     19 C19        11.3830    4.5330   26.9050 C.ar      1 QWS        -0.0591
     20 C20        11.8650    5.6380   26.2350 C.ar      1 QWS        -0.0292
     21 C21        11.1560    6.1620   25.1740 C.ar      1 QWS         0.0913
     22 C22         9.9550    5.5820   24.7880 C.ar      1 QWS        -0.0265
     23 O23        11.7180    7.3000   24.6000 O.3       1 QWS        -0.3159
     24 C24        11.1820    7.6660   23.3280 C.3       1 QWS         0.0755
     25 C25        10.1480    8.7540   23.5260 C.3       1 QWS        -0.0345
     26 C26        12.3330    8.2610   22.5500 C.3       1 QWS        -0.0345
     27 H           5.4144    4.1155   25.0040 H         1 QWS         0.0774
     28 H           4.1142    5.8639   21.8643 H         1 QWS         0.2143
     29 H           1.2529    4.1359   22.6067 H         1 QWS         0.1813
     30 H           2.1299    5.1281   21.4902 H         1 QWS         0.1813
     31 H           8.3468    5.8735   19.4119 H         1 QWS         0.1805
     32 H           8.9085    5.1636   20.8886 H         1 QWS         0.1805
     33 H           6.8520    2.3158   25.5709 H         1 QWS         0.0550
     34 H           8.1989    1.3817   27.4091 H         1 QWS         0.0565
     35 H          10.3159    2.4702   28.0528 H         1 QWS         0.0536
     36 H          11.9503    4.1073   27.7247 H         1 QWS         0.0603
     37 H          12.7994    6.0940   26.5416 H         1 QWS         0.0586
     38 H           9.4073    5.9912   23.9468 H         1 QWS         0.0505
     39 H          10.7478    6.7980   22.8103 H         1 QWS         0.0644
     40 H           9.7287    9.0432   22.5510 H         1 QWS         0.0258
     41 H          10.6215    9.6288   23.9955 H         1 QWS         0.0258
     42 H           9.3424    8.3805   24.1753 H         1 QWS         0.0258
     43 H          11.9829    8.5656   21.5527 H         1 QWS         0.0258
     44 H          13.1312    7.5114   22.4452 H         1 QWS         0.0258
     45 H          12.7227    9.1391   23.0857 H         1 QWS         0.0258
@<TRIPOS>BOND
     1    1    2 1  
     2    1    5 1  
     3    1   13 1  
     4    2    3 2  
     5    3    4 1  
     6    3   10 1  
     7    4    5 2  
     8    4    6 1  
     9    6    7 am 
    10    7    8 am 
    11    7    9 2  
    12   10   11 am 
    13   10   12 2  
    14   13   14 ar 
    15   13   17 ar 
    16   14   15 ar 
    17   15   16 ar 
    18   16   18 ar 
    19   17   18 ar 
    20   17   22 ar 
    21   18   19 ar 
    22   19   20 ar 
    23   20   21 ar 
    24   21   22 ar 
    25   21   23 1  
    26   23   24 1  
    27   24   25 1  
    28   24   26 1  
    29    5   27 1  
    30    6   28 1  
    31    8   29 1  
    32    8   30 1  
    33   11   31 1  
    34   11   32 1  
    35   14   33 1  
    36   15   34 1  
    37   16   35 1  
    38   19   36 1  
    39   20   37 1  
    40   22   38 1  
    41   24   39 1  
    42   25   40 1  
    43   25   41 1  
    44   25   42 1  
    45   26   43 1  
    46   26   44 1  
    47   26   45 1  
@<TRIPOS>SUBSTRUCTURE
     1 QWS         1

