### 
### Created by X-TOOL on Mon Sep 10 21:13:13 2018
### 

@<TRIPOS>MOLECULE
4m2r_ligand
   45    46     1     0     0
SMALL
GAST_HUCK


@<TRIPOS>ATOM
      1 C3         19.3320    7.7930   13.9050 C.3       1 BZ1        -0.0123
      2 C9         17.0760    3.3690   14.4870 C.2       1 BZ1         0.0145
      3 C10        16.0340    4.2130   14.7560 C.2       1 BZ1         0.1611
      4 C11        18.3010    3.5160   13.6450 C.3       1 BZ1         0.0179
      5 C12        18.6110    4.9650   13.4820 C.3       1 BZ1         0.0785
      6 S1         15.3480    0.6850   16.8540 S.o2      1 BZ1         0.0744
      7 C4         19.8300    9.1330   13.4760 C.3       1 BZ1         0.0488
      8 C5         19.8030    1.9320   10.5290 C.3       1 BZ1        -0.0245
      9 C6         19.5760    2.7470   11.7770 C.3       1 BZ1        -0.0353
     10 S2         14.9960    3.4670   15.7860 S.3       1 BZ1        -0.0013
     11 N2         15.9470   -0.6850   16.2080 N.am      1 BZ1        -0.2605
     12 O3         13.8900    0.7850   16.8530 O.2       1 BZ1        -0.1500
     13 O4         15.8250    0.8750   18.2290 O.2       1 BZ1        -0.1500
     14 C7         15.8800    2.0250   15.8720 C.2       1 BZ1         0.1594
     15 C8         17.0580    2.1070   15.0910 C.2       1 BZ1        -0.0394
     16 S3         16.0800    5.8060   14.0710 S.o2      1 BZ1         0.0727
     17 O2         15.8470    6.5690   15.2880 O.2       1 BZ1        -0.1520
     18 O5         15.0240    5.9900   13.0760 O.2       1 BZ1        -0.1520
     19 N3         17.6140    5.9990   13.4680 N.am      1 BZ1        -0.2286
     20 N1         18.2770    2.7760   12.4070 N.4       1 BZ1         0.2389
     21 C2         18.1850    7.2540   13.1200 C.3       1 BZ1         0.0319
     22 O1         20.0320   10.1490   14.3890 O.3       1 BZ1        -0.3829
     23 C1         21.1890   10.1720   15.1500 C.3       1 BZ1         0.0364
     24 H1         19.0174    7.8688   14.9563 H         1 BZ1         0.0303
     25 H2         20.1648    7.0792   13.8220 H         1 BZ1         0.0303
     26 H3         19.1289    3.0839   14.2263 H         1 BZ1         0.0982
     27 H4         19.1443    5.0508   12.5238 H         1 BZ1         0.0552
     28 H5         19.2940    5.2193   14.3059 H         1 BZ1         0.0552
     29 H6         19.1052    9.5140   12.7416 H         1 BZ1         0.0560
     30 H7         20.7976    8.9619   12.9815 H         1 BZ1         0.0560
     31 H8         20.8490    2.0398   10.2059 H         1 BZ1         0.0281
     32 H9         19.1344    2.2885    9.7316 H         1 BZ1         0.0281
     33 H10        19.5914    0.8732   10.7390 H         1 BZ1         0.0281
     34 H11        19.8267    3.7877   11.5238 H         1 BZ1         0.0811
     35 H12        20.2837    2.3724   12.5312 H         1 BZ1         0.0811
     36 H13        15.7058   -0.9439   15.2727 H         1 BZ1         0.1635
     37 H14        16.5559   -1.2672   16.7467 H         1 BZ1         0.1635
     38 H15        17.8126    1.3296   14.9805 H         1 BZ1         0.0415
     39 H16        17.6191    3.2108   11.7792 H         1 BZ1         0.2027
     40 H17        17.9851    1.8302   12.5973 H         1 BZ1         0.2027
     41 H18        18.5250    7.1702   12.0772 H         1 BZ1         0.0479
     42 H19        17.3781    7.9989   13.1839 H         1 BZ1         0.0479
     43 H20        21.1730   11.0480   15.8151 H         1 BZ1         0.0523
     44 H21        22.0637   10.2319   14.4857 H         1 BZ1         0.0523
     45 H22        21.2491    9.2544   15.7537 H         1 BZ1         0.0523
@<TRIPOS>BOND
     1    1    7 1  
     2   21    1 1  
     3    3    2 2  
     4    4    2 1  
     5    2   15 1  
     6    3   10 1  
     7   16    3 1  
     8    5    4 1  
     9    4   20 1  
    10   19    5 1  
    11    6   11 am 
    12    6   12 2  
    13    6   13 2  
    14   14    6 1  
    15    7   22 1  
    16    9    8 1  
    17   20    9 1  
    18   10   14 1  
    19   14   15 2  
    20   16   17 2  
    21   16   18 2  
    22   19   16 am 
    23   19   21 1  
    24   22   23 1  
    25    1   24 1  
    26    1   25 1  
    27    4   26 1  
    28    5   27 1  
    29    5   28 1  
    30    7   29 1  
    31    7   30 1  
    32    8   31 1  
    33    8   32 1  
    34    8   33 1  
    35    9   34 1  
    36    9   35 1  
    37   11   36 1  
    38   11   37 1  
    39   15   38 1  
    40   20   39 1  
    41   20   40 1  
    42   21   41 1  
    43   21   42 1  
    44   23   43 1  
    45   23   44 1  
    46   23   45 1  
@<TRIPOS>SUBSTRUCTURE
     1 BZ1         1

