### 
### Created by X-TOOL on Mon Sep 10 21:13:12 2018
### 

@<TRIPOS>MOLECULE
4m2u_ligand
   36    37     1     0     0
SMALL
GAST_HUCK


@<TRIPOS>ATOM
      1 S1         15.1710    3.5450   15.6720 S.3       1 ETS        -0.0031
      2 C2         16.1270    2.1520   15.8960 C.2       1 ETS         0.1594
      3 C3         17.4440    2.2250   15.2700 C.2       1 ETS        -0.0395
      4 C4         17.4600    3.5510   14.6820 C.2       1 ETS         0.0112
      5 C5         18.7240    3.9180   13.9270 C.3       1 ETS         0.0022
      6 C6         18.8240    5.3970   13.5950 C.3       1 ETS         0.0190
      7 C7         17.5880    5.9550   12.9580 C.3       1 ETS         0.0839
      8 S8         16.2900    5.9180   14.2020 S.o2      1 ETS         0.0018
      9 C9         16.3450    4.3020   14.8260 C.2       1 ETS         0.1413
     10 S10        15.4470    0.8200   16.8300 S.o2      1 ETS         0.0744
     11 O11        15.9340    0.9220   18.2040 O.2       1 ETS        -0.1500
     12 O12        13.9990    0.9660   16.7230 O.2       1 ETS        -0.1500
     13 N13        16.0700   -0.5590   16.2440 N.am      1 ETS        -0.2605
     14 N14        18.6830    3.1280   12.7030 N.4       1 ETS         0.2378
     15 C15        17.8730    7.3560   12.5020 C.3       1 ETS        -0.0423
     16 O16        16.5980    6.7600   15.3240 O.2       1 ETS        -0.1710
     17 O17        14.9960    6.2150   13.6350 O.2       1 ETS        -0.1710
     18 C18        19.9070    3.1180   11.9390 C.3       1 ETS        -0.0353
     19 C19        20.0380    2.0840   10.8520 C.3       1 ETS        -0.0245
     20 H1         18.2256    1.4670   15.2495 H         1 ETS         0.0415
     21 H2         19.6018    3.6370   14.5274 H         1 ETS         0.0966
     22 H3         19.6670    5.5417   12.9033 H         1 ETS         0.0356
     23 H4         19.0148    5.9501   14.5265 H         1 ETS         0.0356
     24 H5         17.2928    5.3415   12.0940 H         1 ETS         0.0538
     25 H6         15.8060   -1.4366   16.6440 H         1 ETS         0.1635
     26 H7         16.7180   -0.5312   15.4828 H         1 ETS         0.1635
     27 H8         17.9520    3.4989   12.1164 H         1 ETS         0.2026
     28 H9         18.4632    2.1765   12.9528 H         1 ETS         0.2026
     29 H10        18.6696    7.3398   11.7436 H         1 ETS         0.0248
     30 H11        18.1966    7.9625   13.3608 H         1 ETS         0.0248
     31 H12        16.9618    7.7927   12.0673 H         1 ETS         0.0248
     32 H13        20.7354    2.9606   12.6454 H         1 ETS         0.0811
     33 H14        20.0097    4.1066   11.4678 H         1 ETS         0.0811
     34 H15        21.0143    2.1938   10.3573 H         1 ETS         0.0281
     35 H16        19.2349    2.2245   10.1136 H         1 ETS         0.0281
     36 H17        19.9606    1.0785   11.2912 H         1 ETS         0.0281
@<TRIPOS>BOND
     1    1    2 1  
     2    1    9 1  
     3    2    3 2  
     4    2   10 1  
     5    3    4 1  
     6    4    5 1  
     7    4    9 2  
     8    5    6 1  
     9    5   14 1  
    10    6    7 1  
    11    7    8 1  
    12    7   15 1  
    13    8    9 1  
    14    8   16 2  
    15    8   17 2  
    16   10   11 2  
    17   10   12 2  
    18   10   13 am 
    19   14   18 1  
    20   18   19 1  
    21    3   20 1  
    22    5   21 1  
    23    6   22 1  
    24    6   23 1  
    25    7   24 1  
    26   13   25 1  
    27   13   26 1  
    28   14   27 1  
    29   14   28 1  
    30   15   29 1  
    31   15   30 1  
    32   15   31 1  
    33   18   32 1  
    34   18   33 1  
    35   19   34 1  
    36   19   35 1  
    37   19   36 1  
@<TRIPOS>SUBSTRUCTURE
     1 ETS         1

