### 
### Created by X-TOOL on Mon Sep 10 21:13:12 2018
### 

@<TRIPOS>MOLECULE
4m2v_ligand
   45    46     1     0     0
SMALL
GAST_HUCK


@<TRIPOS>ATOM
      1 C3          1.6400    8.3000   84.3460 C.3       1 BZ1        -0.0123
      2 C9         -0.2140    3.8410   85.0740 C.2       1 BZ1         0.0145
      3 C10        -1.2870    4.5570   85.4550 C.2       1 BZ1         0.1611
      4 C11         0.9490    4.0960   84.1630 C.3       1 BZ1         0.0179
      5 C12         0.5350    5.3890   83.4140 C.3       1 BZ1         0.0785
      6 S1         -1.9470    0.9640   87.5100 S.o2      1 BZ1         0.0744
      7 C4          0.7240    9.4680   84.4920 C.3       1 BZ1         0.0488
      8 C5          2.3470    1.9880   81.3530 C.3       1 BZ1        -0.0245
      9 C6          2.1170    3.1300   82.2920 C.3       1 BZ1        -0.0353
     10 S2         -2.3230    3.7370   86.4750 S.3       1 BZ1        -0.0013
     11 N2         -1.3560   -0.3860   86.8720 N.am      1 BZ1        -0.2605
     12 O3         -1.4030    1.1870   88.8390 O.2       1 BZ1        -0.1500
     13 O4         -3.4040    1.0910   87.4970 O.2       1 BZ1        -0.1500
     14 C7         -1.4120    2.2920   86.5380 C.2       1 BZ1         0.1594
     15 C8         -0.1670    2.4150   85.6700 C.2       1 BZ1        -0.0394
     16 S3         -1.5120    6.1680   84.9070 S.o2      1 BZ1         0.0727
     17 O2         -1.7720    7.0580   86.0420 O.2       1 BZ1        -0.1520
     18 O5         -2.5480    6.2810   83.8780 O.2       1 BZ1        -0.1520
     19 N3         -0.0200    6.4180   84.3100 N.am      1 BZ1        -0.2286
     20 N1          1.0170    3.0070   83.2040 N.4       1 BZ1         0.2389
     21 C2          1.1610    6.9930   84.8810 C.3       1 BZ1         0.0319
     22 O1          1.2680   10.7170   84.6820 O.3       1 BZ1        -0.3829
     23 C1          0.6640   11.8230   84.1200 C.3       1 BZ1         0.0364
     24 H1          2.5781    8.5471   84.8646 H         1 BZ1         0.0303
     25 H2          1.8387    8.1663   83.2724 H         1 BZ1         0.0303
     26 H3          1.8966    4.2116   84.7096 H         1 BZ1         0.0982
     27 H4         -0.2256    5.1310   82.6624 H         1 BZ1         0.0552
     28 H5          1.4217    5.8026   82.9114 H         1 BZ1         0.0552
     29 H6          0.0745    9.2635   85.3559 H         1 BZ1         0.0560
     30 H7          0.1140    9.5167   83.5779 H         1 BZ1         0.0560
     31 H8          3.2142    2.2084   80.7131 H         1 BZ1         0.0281
     32 H9          1.4553    1.8442   80.7252 H         1 BZ1         0.0281
     33 H10         2.5407    1.0719   81.9303 H         1 BZ1         0.0281
     34 H11         1.9461    4.0309   81.6845 H         1 BZ1         0.0811
     35 H12         3.0316    3.2587   82.8895 H         1 BZ1         0.0811
     36 H13        -0.3678   -0.5371   86.8486 H         1 BZ1         0.1635
     37 H14        -1.9762   -1.0756   86.4981 H         1 BZ1         0.1635
     38 H15         0.5970    1.6570   85.5037 H         1 BZ1         0.0415
     39 H16         0.1601    2.9926   82.6733 H         1 BZ1         0.2027
     40 H17         1.1141    2.1401   83.7090 H         1 BZ1         0.2027
     41 H18         0.9693    7.1312   85.9553 H         1 BZ1         0.0479
     42 H19         1.9757    6.2667   84.7443 H         1 BZ1         0.0479
     43 H20         1.2377   12.7252   84.3788 H         1 BZ1         0.0523
     44 H21        -0.3614   11.9170   84.5068 H         1 BZ1         0.0523
     45 H22         0.6343   11.7086   83.0264 H         1 BZ1         0.0523
@<TRIPOS>BOND
     1    1    7 1  
     2   21    1 1  
     3    3    2 2  
     4    4    2 1  
     5    2   15 1  
     6    3   10 1  
     7   16    3 1  
     8    5    4 1  
     9    4   20 1  
    10   19    5 1  
    11    6   11 am 
    12    6   12 2  
    13    6   13 2  
    14   14    6 1  
    15    7   22 1  
    16    9    8 1  
    17   20    9 1  
    18   10   14 1  
    19   14   15 2  
    20   16   17 2  
    21   16   18 2  
    22   19   16 am 
    23   19   21 1  
    24   22   23 1  
    25    1   24 1  
    26    1   25 1  
    27    4   26 1  
    28    5   27 1  
    29    5   28 1  
    30    7   29 1  
    31    7   30 1  
    32    8   31 1  
    33    8   32 1  
    34    8   33 1  
    35    9   34 1  
    36    9   35 1  
    37   11   36 1  
    38   11   37 1  
    39   15   38 1  
    40   20   39 1  
    41   20   40 1  
    42   21   41 1  
    43   21   42 1  
    44   23   43 1  
    45   23   44 1  
    46   23   45 1  
@<TRIPOS>SUBSTRUCTURE
     1 BZ1         1

