### 
### Created by X-TOOL on Mon Sep 10 21:13:12 2018
### 

@<TRIPOS>MOLECULE
4m2w_ligand
   36    37     1     0     0
SMALL
GAST_HUCK


@<TRIPOS>ATOM
      1 S1         15.2390    3.6180   15.7780 S.3       1 ETS        -0.0031
      2 C2         16.2560    2.2600   15.9680 C.2       1 ETS         0.1594
      3 C3         17.5720    2.4470   15.3650 C.2       1 ETS        -0.0395
      4 C4         17.5210    3.7620   14.7810 C.2       1 ETS         0.0112
      5 C5         18.7930    4.1790   14.0700 C.3       1 ETS         0.0022
      6 C6         18.8740    5.6860   13.9170 C.3       1 ETS         0.0190
      7 C7         17.6350    6.3130   13.3560 C.3       1 ETS         0.0839
      8 S8         16.1880    6.0670   14.3380 S.o2      1 ETS         0.0018
      9 C9         16.3720    4.4570   14.9510 C.2       1 ETS         0.1413
     10 S10        15.6590    0.8920   16.9040 S.o2      1 ETS         0.0744
     11 O11        16.1950    1.0650   18.2340 O.2       1 ETS        -0.1500
     12 O12        14.1890    1.0170   16.8420 O.2       1 ETS        -0.1500
     13 N13        16.2200   -0.4590   16.2660 N.am      1 ETS        -0.2605
     14 N14        18.7910    3.4050   12.8490 N.4       1 ETS         0.2378
     15 C15        17.3970    5.6960   12.0240 C.3       1 ETS        -0.0423
     16 O16        16.2330    6.9900   15.4640 O.2       1 ETS        -0.1710
     17 O17        15.0130    6.1340   13.5070 O.2       1 ETS        -0.1710
     18 C18        19.9950    3.4380   12.0770 C.3       1 ETS        -0.0353
     19 C19        20.1230    2.3590   11.0510 C.3       1 ETS        -0.0245
     20 H1         18.4067    1.7476   15.3583 H         1 ETS         0.0415
     21 H2         19.6620    3.8719   14.6704 H         1 ETS         0.0966
     22 H3         19.7134    5.9201   13.2458 H         1 ETS         0.0356
     23 H4         19.0638    6.1238   14.9081 H         1 ETS         0.0356
     24 H5         17.8044    7.3943   13.2457 H         1 ETS         0.0538
     25 H6         15.9805   -1.3409   16.6721 H         1 ETS         0.1635
     26 H7         16.8111   -0.4237   15.4601 H         1 ETS         0.1635
     27 H8         18.0435    3.7502   12.2675 H         1 ETS         0.2026
     28 H9         18.6095    2.4443   13.0944 H         1 ETS         0.2026
     29 H10        18.2858    5.8357   11.3912 H         1 ETS         0.0248
     30 H11        16.5289    6.1751   11.5478 H         1 ETS         0.0248
     31 H12        17.2003    4.6208   12.1478 H         1 ETS         0.0248
     32 H13        20.8455    3.3519   12.7692 H         1 ETS         0.0811
     33 H14        20.0406    4.4073   11.5589 H         1 ETS         0.0811
     34 H15        21.0773    2.4732   10.5159 H         1 ETS         0.0281
     35 H16        19.2905    2.4325   10.3358 H         1 ETS         0.0281
     36 H17        20.0955    1.3771   11.5461 H         1 ETS         0.0281
@<TRIPOS>BOND
     1    1    2 1  
     2    1    9 1  
     3    2    3 2  
     4    2   10 1  
     5    3    4 1  
     6    4    5 1  
     7    4    9 2  
     8    5    6 1  
     9    5   14 1  
    10    6    7 1  
    11    7    8 1  
    12    7   15 1  
    13    8    9 1  
    14    8   16 2  
    15    8   17 2  
    16   10   11 2  
    17   10   12 2  
    18   10   13 am 
    19   14   18 1  
    20   18   19 1  
    21    3   20 1  
    22    5   21 1  
    23    6   22 1  
    24    6   23 1  
    25    7   24 1  
    26   13   25 1  
    27   13   26 1  
    28   14   27 1  
    29   14   28 1  
    30   15   29 1  
    31   15   30 1  
    32   15   31 1  
    33   18   32 1  
    34   18   33 1  
    35   19   34 1  
    36   19   35 1  
    37   19   36 1  
@<TRIPOS>SUBSTRUCTURE
     1 ETS         1

