### 
### Created by X-TOOL on Mon Sep 10 21:13:19 2018
### 

@<TRIPOS>MOLECULE
4m3b_ligand
   34    35     1     0     0
SMALL
GAST_HUCK


@<TRIPOS>ATOM
      1 F3         32.2130  -17.4240   -7.7590 F         1 2B2        -0.1707
      2 C14        30.9710  -17.4980   -7.3620 C.3       1 2B2         0.3920
      3 F1         30.2820  -17.4360   -8.4660 F         1 2B2        -0.1707
      4 F2         30.7560  -18.6680   -6.7530 F         1 2B2        -0.1707
      5 C13        30.5640  -16.3400   -6.4780 C.3       1 2B2         0.0628
      6 C12        29.0670  -16.3640   -6.1160 C.3       1 2B2         0.0385
      7 N2         28.6360  -15.0430   -5.5700 N.am      1 2B2        -0.2865
      8 C11        28.4180  -14.0110   -6.3820 C.2       1 2B2         0.2020
      9 O          28.3150  -14.1820   -7.6130 O.2       1 2B2        -0.3866
     10 C8         28.1510  -12.6480   -5.7960 C.ar      1 2B2         0.0459
     11 C7         28.2910  -12.4380   -4.4080 C.ar      1 2B2        -0.0454
     12 C6         28.0540  -11.1570   -3.8690 C.ar      1 2B2        -0.0534
     13 C9         27.7470  -11.5930   -6.6310 C.ar      1 2B2        -0.0454
     14 C10        27.4880  -10.3170   -6.0730 C.ar      1 2B2        -0.0534
     15 C5         27.6480  -10.1080   -4.6920 C.ar      1 2B2        -0.0191
     16 C3         27.3710   -8.8400   -4.1670 C.2       1 2B2         0.0199
     17 N1         27.0420   -7.8190   -5.0010 N.2       1 2B2        -0.3149
     18 C4         27.3940   -8.4500   -2.8440 C.2       1 2B2         0.0189
     19 S          26.9270   -6.8200   -2.7130 S.3       1 2B2         0.0021
     20 C2         26.7930   -6.6400   -4.4090 C.2       1 2B2         0.0912
     21 C1         26.3960   -5.3560   -5.0820 C.3       1 2B2         0.0070
     22 H          30.7829  -15.4004   -7.0064 H         1 2B2         0.0371
     23 H          31.1511  -16.3836   -5.5488 H         1 2B2         0.0371
     24 H          28.8907  -17.1426   -5.3592 H         1 2B2         0.0522
     25 H          28.4806  -16.5905   -7.0187 H         1 2B2         0.0522
     26 H          28.5098  -14.9323   -4.5842 H         1 2B2         0.1843
     27 H          28.5793  -13.2573   -3.7593 H         1 2B2         0.0659
     28 H          28.1885  -10.9867   -2.8069 H         1 2B2         0.0604
     29 H          27.6340  -11.7545   -7.6969 H         1 2B2         0.0659
     30 H          27.1664   -9.5017   -6.7109 H         1 2B2         0.0604
     31 H          27.6701   -9.0906   -2.0078 H         1 2B2         0.0749
     32 H          26.3841   -5.5019   -6.1722 H         1 2B2         0.0487
     33 H          27.1198   -4.5685   -4.8254 H         1 2B2         0.0487
     34 H          25.3936   -5.0579   -4.7410 H         1 2B2         0.0487
@<TRIPOS>BOND
     1    1    2 1  
     2    2    3 1  
     3    2    4 1  
     4    2    5 1  
     5    5    6 1  
     6    6    7 1  
     7    7    8 am 
     8    8    9 2  
     9    8   10 1  
    10   10   11 ar 
    11   10   13 ar 
    12   11   12 ar 
    13   12   15 ar 
    14   13   14 ar 
    15   14   15 ar 
    16   15   16 1  
    17   16   17 1  
    18   16   18 2  
    19   17   20 2  
    20   18   19 1  
    21   19   20 1  
    22   20   21 1  
    23    5   22 1  
    24    5   23 1  
    25    6   24 1  
    26    6   25 1  
    27    7   26 1  
    28   11   27 1  
    29   12   28 1  
    30   13   29 1  
    31   14   30 1  
    32   18   31 1  
    33   21   32 1  
    34   21   33 1  
    35   21   34 1  
@<TRIPOS>SUBSTRUCTURE
     1 2B2         1

