### 
### Created by X-TOOL on Mon Sep 10 21:13:17 2018
### 

@<TRIPOS>MOLECULE
4m3d_ligand
   45    46     1     0     0
SMALL
GAST_HUCK


@<TRIPOS>ATOM
      1 O2         27.4340   -2.5410   -5.2470 O.2       1 2H2        -0.1503
      2 S          26.3100   -3.4180   -4.9850 S.o2      1 2H2         0.0691
      3 O1         25.9110   -4.1490   -6.1800 O.2       1 2H2        -0.1503
      4 C13        25.0290   -2.5640   -4.4750 C.ar      1 2H2         0.1082
      5 C18        23.7440   -2.8120   -4.9940 C.ar      1 2H2        -0.0351
      6 C17        22.6420   -2.0820   -4.5220 C.ar      1 2H2        -0.0599
      7 C16        22.7860   -1.1000   -3.5460 C.ar      1 2H2        -0.0616
      8 C15        24.0700   -0.8580   -3.0370 C.ar      1 2H2        -0.0599
      9 C14        25.1900   -1.5730   -3.4910 C.ar      1 2H2        -0.0351
     10 N1         26.7680   -4.4500   -3.8780 N.am      1 2H2        -0.2354
     11 C12        25.8330   -5.5470   -3.6230 C.3       1 2H2         0.0886
     12 C11        26.2540   -6.9080   -4.1040 C.1       1 2H2        -0.0745
     13 C10        26.5550   -7.9980   -4.4570 C.1       1 2H2        -0.0612
     14 C7         26.8590   -9.2090   -4.8560 C.ar      1 2H2         0.0290
     15 C6         27.2690  -10.1840   -3.9640 C.ar      1 2H2        -0.0411
     16 C5         27.4990  -11.4770   -4.4450 C.ar      1 2H2        -0.0412
     17 C8         26.5660   -9.5370   -6.1880 C.ar      1 2H2        -0.0411
     18 C9         26.7810  -10.7910   -6.6980 C.ar      1 2H2        -0.0412
     19 C4         27.2610  -11.7730   -5.8260 C.ar      1 2H2         0.0494
     20 C3         27.5320  -13.1460   -6.3550 C.2       1 2H2         0.2045
     21 O          27.4340  -13.3070   -7.5690 O.2       1 2H2        -0.3850
     22 N          27.9260  -14.1330   -5.5150 N.am      1 2H2        -0.2860
     23 C2         28.2360  -15.4500   -5.9830 C.3       1 2H2         0.0385
     24 C1         29.6830  -15.4350   -6.5360 C.3       1 2H2         0.0629
     25 C          30.0760  -16.6270   -7.3910 C.3       1 2H2         0.3920
     26 F          29.9410  -17.7930   -6.7770 F         1 2H2        -0.1707
     27 F1         29.3150  -16.6310   -8.4470 F         1 2H2        -0.1707
     28 F2         31.3210  -16.4820   -7.8020 F         1 2H2        -0.1707
     29 H          23.6055   -3.5675   -5.7589 H         1 2H2         0.0637
     30 H          21.6574   -2.2874   -4.9263 H         1 2H2         0.0618
     31 H          21.9300   -0.5384   -3.1896 H         1 2H2         0.0618
     32 H          24.2013   -0.0997   -2.2736 H         1 2H2         0.0618
     33 H          26.1728   -1.3621   -3.0852 H         1 2H2         0.0637
     34 H          27.6346   -4.3597   -3.3871 H         1 2H2         0.1684
     35 H          24.8815   -5.2974   -4.1153 H         1 2H2         0.0614
     36 H          25.6781   -5.6092   -2.5357 H         1 2H2         0.0614
     37 H          27.4090   -9.9507   -2.9147 H         1 2H2         0.0640
     38 H          27.8557  -12.2515   -3.7757 H         1 2H2         0.0668
     39 H          26.1551   -8.7719   -6.8368 H         1 2H2         0.0640
     40 H          26.5858  -11.0136   -7.7408 H         1 2H2         0.0668
     41 H          28.0027  -13.9356   -4.5377 H         1 2H2         0.1844
     42 H          27.5349  -15.7371   -6.7805 H         1 2H2         0.0522
     43 H          28.1613  -16.1680   -5.1530 H         1 2H2         0.0522
     44 H          30.3714  -15.3927   -5.6791 H         1 2H2         0.0371
     45 H          29.8016  -14.5279   -7.1468 H         1 2H2         0.0371
@<TRIPOS>BOND
     1    1    2 2  
     2    2    3 2  
     3    2    4 1  
     4    2   10 am 
     5    4    5 ar 
     6    4    9 ar 
     7    5    6 ar 
     8    6    7 ar 
     9    7    8 ar 
    10    8    9 ar 
    11   10   11 1  
    12   11   12 1  
    13   12   13 3  
    14   13   14 1  
    15   14   15 ar 
    16   14   17 ar 
    17   15   16 ar 
    18   16   19 ar 
    19   17   18 ar 
    20   18   19 ar 
    21   19   20 1  
    22   20   21 2  
    23   20   22 am 
    24   22   23 1  
    25   23   24 1  
    26   24   25 1  
    27   25   26 1  
    28   25   27 1  
    29   25   28 1  
    30    5   29 1  
    31    6   30 1  
    32    7   31 1  
    33    8   32 1  
    34    9   33 1  
    35   10   34 1  
    36   11   35 1  
    37   11   36 1  
    38   15   37 1  
    39   16   38 1  
    40   17   39 1  
    41   18   40 1  
    42   22   41 1  
    43   23   42 1  
    44   23   43 1  
    45   24   44 1  
    46   24   45 1  
@<TRIPOS>SUBSTRUCTURE
     1 2H2         1

