### 
### Created by X-TOOL on Mon Sep 10 21:13:20 2018
### 

@<TRIPOS>MOLECULE
4m3e_ligand
   48    49     1     0     0
SMALL
GAST_HUCK


@<TRIPOS>ATOM
      1 F3        -30.6140   18.5200   -7.0110 F         1 2B3        -0.1707
      2 C17       -30.7990   17.2730   -7.3920 C.3       1 2B3         0.3920
      3 F1        -32.0500   17.1080   -7.6250 F         1 2B3        -0.1707
      4 F2        -30.1240   17.1010   -8.5040 F         1 2B3        -0.1707
      5 C16       -30.4090   16.2290   -6.3800 C.3       1 2B3         0.0628
      6 C15       -28.9050   16.0850   -6.5050 C.3       1 2B3         0.0385
      7 N3        -28.4370   14.8500   -5.9340 N.am      1 2B3        -0.2865
      8 C14       -28.1180   13.8490   -6.7260 C.2       1 2B3         0.2020
      9 O3        -27.9850   14.0440   -7.9250 O.2       1 2B3        -0.3866
     10 C11       -27.8820   12.5020   -6.1050 C.ar      1 2B3         0.0459
     11 C10       -28.0650   12.3100   -4.7440 C.ar      1 2B3        -0.0454
     12 C9        -27.8300   11.0480   -4.1320 C.ar      1 2B3        -0.0534
     13 C12       -27.4910   11.4330   -6.8560 C.ar      1 2B3        -0.0454
     14 C13       -27.2750   10.1920   -6.2600 C.ar      1 2B3        -0.0534
     15 C8        -27.4250    9.9670   -4.8880 C.ar      1 2B3        -0.0191
     16 C6        -27.1810    8.6860   -4.3340 C.2       1 2B3         0.0199
     17 N2        -26.7680    7.6190   -5.1280 N.2       1 2B3        -0.3133
     18 C7        -27.2770    8.3170   -2.9760 C.2       1 2B3         0.0189
     19 S2        -26.8530    6.6790   -2.8820 S.3       1 2B3         0.0041
     20 C5        -26.5650    6.4370   -4.5280 C.2       1 2B3         0.1130
     21 C4        -26.1350    5.1010   -5.1230 C.3       1 2B3         0.0970
     22 N1        -26.4190    3.9190   -4.3140 N.am      1 2B3        -0.2327
     23 S1        -27.8390    3.1190   -4.2890 S.o2      1 2B3         0.0415
     24 O1        -28.3570    3.1570   -2.9320 O.2       1 2B3        -0.1553
     25 O2        -28.7910    3.7530   -5.1670 O.2       1 2B3        -0.1553
     26 C3        -27.6610    1.5130   -4.7990 C.3       1 2B3         0.0844
     27 C2        -27.1350    0.5470   -3.7140 C.3       1 2B3        -0.0347
     28 C1        -28.2300   -0.1660   -2.9340 C.3       1 2B3        -0.0637
     29 H         -30.9064   15.2734   -6.6024 H         1 2B3         0.0371
     30 H         -30.6807   16.5565   -5.3657 H         1 2B3         0.0371
     31 H         -28.4223   16.9241   -5.9826 H         1 2B3         0.0522
     32 H         -28.6322   16.1106   -7.5703 H         1 2B3         0.0522
     33 H         -28.3548   14.7532   -4.9421 H         1 2B3         0.1843
     34 H         -28.3950   13.1416   -4.1320 H         1 2B3         0.0659
     35 H         -27.9701   10.9343   -3.0631 H         1 2B3         0.0604
     36 H         -27.3472   11.5494   -7.9241 H         1 2B3         0.0659
     37 H         -26.9766    9.3617   -6.8898 H         1 2B3         0.0604
     38 H         -27.5677    8.9609   -2.1473 H         1 2B3         0.0749
     39 H         -25.0486    5.1411   -5.2903 H         1 2B3         0.0737
     40 H         -26.6503    4.9805   -6.0873 H         1 2B3         0.0737
     41 H         -25.6849    3.5733   -3.7296 H         1 2B3         0.1707
     42 H         -26.9557    1.4974   -5.6430 H         1 2B3         0.0518
     43 H         -28.6431    1.1491   -5.1351 H         1 2B3         0.0518
     44 H         -26.5248    1.1243   -3.0038 H         1 2B3         0.0279
     45 H         -26.5080   -0.2132   -4.2027 H         1 2B3         0.0279
     46 H         -27.7737   -0.8309   -2.1859 H         1 2B3         0.0230
     47 H         -28.8455   -0.7600   -3.6256 H         1 2B3         0.0230
     48 H         -28.8623    0.5775   -2.4266 H         1 2B3         0.0230
@<TRIPOS>BOND
     1    1    2 1  
     2    2    3 1  
     3    2    4 1  
     4    2    5 1  
     5    5    6 1  
     6    6    7 1  
     7    7    8 am 
     8    8    9 2  
     9    8   10 1  
    10   10   11 ar 
    11   10   13 ar 
    12   11   12 ar 
    13   12   15 ar 
    14   13   14 ar 
    15   14   15 ar 
    16   15   16 1  
    17   16   17 1  
    18   16   18 2  
    19   17   20 2  
    20   18   19 1  
    21   19   20 1  
    22   20   21 1  
    23   21   22 1  
    24   22   23 am 
    25   23   24 2  
    26   23   25 2  
    27   23   26 1  
    28   26   27 1  
    29   27   28 1  
    30    5   29 1  
    31    5   30 1  
    32    6   31 1  
    33    6   32 1  
    34    7   33 1  
    35   11   34 1  
    36   12   35 1  
    37   13   36 1  
    38   14   37 1  
    39   18   38 1  
    40   21   39 1  
    41   21   40 1  
    42   22   41 1  
    43   26   42 1  
    44   26   43 1  
    45   27   44 1  
    46   27   45 1  
    47   28   46 1  
    48   28   47 1  
    49   28   48 1  
@<TRIPOS>SUBSTRUCTURE
     1 2B3         1

