### 
### Created by X-TOOL on Mon Sep 10 21:13:20 2018
### 

@<TRIPOS>MOLECULE
4m3f_ligand
   41    42     1     0     0
SMALL
GAST_HUCK


@<TRIPOS>ATOM
      1 O2         13.5890   27.7130    0.6320 O.2       1 2D1        -0.1507
      2 S1         13.6700   27.8210    2.0630 S.o2      1 2D1         0.0669
      3 O1         14.3270   26.6130    2.4110 O.2       1 2D1        -0.1507
      4 N1         14.2860   29.2480    2.5060 N.am      1 2D1        -0.2477
      5 C5         15.4450   29.5030    3.3180 C.3       1 2D1         0.0268
      6 C4         16.6940   29.7100    2.4380 C.3       1 2D1        -0.0338
      7 C2         16.6280   30.7760    1.3670 C.3       1 2D1        -0.0453
      8 C3         17.8800   31.6200    1.4200 C.3       1 2D1        -0.0626
      9 C1         16.7140   30.1260    0.0190 C.3       1 2D1        -0.0626
     10 C6         12.1250   27.6730    2.6900 C.ar      1 2D1         0.1051
     11 C11        11.8880   27.8210    4.0590 C.ar      1 2D1        -0.0380
     12 C10        10.6090   27.6420    4.6750 C.ar      1 2D1        -0.0566
     13 C9          9.5350   27.3150    3.8270 C.ar      1 2D1        -0.0230
     14 C8          9.7370   27.1880    2.4740 C.ar      1 2D1        -0.0566
     15 C7         11.0110   27.3470    1.8860 C.ar      1 2D1        -0.0380
     16 C12         8.2510   27.1010    4.3460 C.2       1 2D1         0.0167
     17 N2          7.2260   26.7800    3.5110 N.2       1 2D1        -0.3157
     18 C14         6.0300   26.6310    4.1380 C.2       1 2D1         0.0907
     19 C15         4.6790   26.2850    3.5300 C.3       1 2D1         0.0069
     20 S2          6.2630   26.7960    5.8350 S.3       1 2D1         0.0002
     21 C13         7.8960   27.1640    5.7180 C.2       1 2D1         0.0165
     22 H          13.7995   30.0559    2.1733 H         1 2D1         0.1672
     23 H          15.6128   28.6458    3.9866 H         1 2D1         0.0475
     24 H          15.2727   30.4083    3.9186 H         1 2D1         0.0475
     25 H          16.9060   28.7537    1.9376 H         1 2D1         0.0283
     26 H          17.5287   29.9669    3.1068 H         1 2D1         0.0283
     27 H          15.7169   31.3827    1.4757 H         1 2D1         0.0296
     28 H          17.8326   32.3955    0.6413 H         1 2D1         0.0232
     29 H          18.7597   30.9821    1.2491 H         1 2D1         0.0232
     30 H          17.9592   32.0969    2.4081 H         1 2D1         0.0232
     31 H          15.8389   29.4767   -0.1314 H         1 2D1         0.0232
     32 H          17.6322   29.5232   -0.0395 H         1 2D1         0.0232
     33 H          16.7339   30.9011   -0.7613 H         1 2D1         0.0232
     34 H          12.7251   28.0880    4.6939 H         1 2D1         0.0629
     35 H          10.4739   27.7531    5.7448 H         1 2D1         0.0595
     36 H           8.8906   26.9582    1.8369 H         1 2D1         0.0595
     37 H          11.1338   27.2187    0.8166 H         1 2D1         0.0629
     38 H           4.7720   26.2336    2.4351 H         1 2D1         0.0487
     39 H           3.9462   27.0598    3.7997 H         1 2D1         0.0487
     40 H           4.3420   25.3114    3.9154 H         1 2D1         0.0487
     41 H           8.5619   27.4069    6.5447 H         1 2D1         0.0728
@<TRIPOS>BOND
     1    1    2 2  
     2    2    3 2  
     3    2    4 am 
     4    2   10 1  
     5    4    5 1  
     6    5    6 1  
     7    6    7 1  
     8    7    8 1  
     9    7    9 1  
    10   10   11 ar 
    11   10   15 ar 
    12   11   12 ar 
    13   12   13 ar 
    14   13   14 ar 
    15   13   16 1  
    16   14   15 ar 
    17   16   17 1  
    18   16   21 2  
    19   17   18 2  
    20   18   19 1  
    21   18   20 1  
    22   20   21 1  
    23    4   22 1  
    24    5   23 1  
    25    5   24 1  
    26    6   25 1  
    27    6   26 1  
    28    7   27 1  
    29    8   28 1  
    30    8   29 1  
    31    8   30 1  
    32    9   31 1  
    33    9   32 1  
    34    9   33 1  
    35   11   34 1  
    36   12   35 1  
    37   14   36 1  
    38   15   37 1  
    39   19   38 1  
    40   19   39 1  
    41   19   40 1  
    42   21   41 1  
@<TRIPOS>SUBSTRUCTURE
     1 2D1         1

