### 
### Created by X-TOOL on Mon Sep 10 21:13:19 2018
### 

@<TRIPOS>MOLECULE
4m3g_ligand
   35    36     1     0     0
SMALL
GAST_HUCK


@<TRIPOS>ATOM
      1 C01         5.2490   26.6810    3.6060 C.3       1 2G1         0.0069
      2 C02         6.5670   27.0120    4.2400 C.2       1 2G1         0.0907
      3 N03         7.7640   27.2870    3.6580 N.2       1 2G1        -0.3157
      4 C04         8.8060   27.6130    4.4490 C.2       1 2G1         0.0167
      5 C05         8.5240   27.5320    5.8110 C.2       1 2G1         0.0165
      6 S06         6.8500   27.0970    5.9070 S.3       1 2G1         0.0002
      7 C07        10.0960   27.8760    3.9290 C.ar      1 2G1        -0.0230
      8 C08        10.3670   27.5450    2.5870 C.ar      1 2G1        -0.0566
      9 C09        11.6430   27.6940    2.0390 C.ar      1 2G1        -0.0380
     10 C10        12.6850   28.2240    2.8170 C.ar      1 2G1         0.1051
     11 C11        12.4490   28.5440    4.1540 C.ar      1 2G1        -0.0380
     12 C12        11.1480   28.3530    4.7350 C.ar      1 2G1        -0.0566
     13 S13        14.2970   28.4420    2.0990 S.o2      1 2G1         0.0669
     14 O14        15.0480   27.2570    2.3690 O.2       1 2G1        -0.1507
     15 O15        14.1400   28.3850    0.6680 O.2       1 2G1        -0.1507
     16 N16        14.9170   29.8810    2.7050 N.am      1 2G1        -0.2475
     17 C17        16.2510   29.8480    3.2020 C.3       1 2G1         0.0347
     18 C18        17.3910   29.7230    2.1800 C.3       1 2G1         0.0596
     19 C19        17.4750   30.8780    1.2660 C.3       1 2G1         0.3916
     20 F20        17.0320   31.9150    1.9940 F         1 2G1        -0.1707
     21 F21        16.6380   30.6310    0.2530 F         1 2G1        -0.1707
     22 F22        18.7310   31.1130    0.8660 F         1 2G1        -0.1707
     23 H           5.3545   26.6971    2.5112 H         1 2G1         0.0487
     24 H           4.4977   27.4235    3.9129 H         1 2G1         0.0487
     25 H           4.9280   25.6796    3.9287 H         1 2G1         0.0487
     26 H           9.2099   27.7053    6.6389 H         1 2G1         0.0728
     27 H           9.5653   27.1652    1.9640 H         1 2G1         0.0595
     28 H          11.8291   27.4003    1.0123 H         1 2G1         0.0629
     29 H          13.2547   28.9407    4.7610 H         1 2G1         0.0629
     30 H          10.9784   28.5738    5.7826 H         1 2G1         0.0595
     31 H          14.3748   30.7212    2.7162 H         1 2G1         0.1672
     32 H          16.3261   28.9887    3.8846 H         1 2G1         0.0478
     33 H          16.4150   30.7788    3.7648 H         1 2G1         0.0478
     34 H          17.2278   28.8142    1.5822 H         1 2G1         0.0367
     35 H          18.3426   29.6375    2.7251 H         1 2G1         0.0367
@<TRIPOS>BOND
     1    1    2 1  
     2    2    3 2  
     3    2    6 1  
     4    3    4 1  
     5    4    5 2  
     6    4    7 1  
     7    5    6 1  
     8    7    8 ar 
     9    7   12 ar 
    10    8    9 ar 
    11    9   10 ar 
    12   10   11 ar 
    13   10   13 1  
    14   11   12 ar 
    15   13   14 2  
    16   13   15 2  
    17   13   16 am 
    18   16   17 1  
    19   17   18 1  
    20   18   19 1  
    21   19   20 1  
    22   19   21 1  
    23   19   22 1  
    24    1   23 1  
    25    1   24 1  
    26    1   25 1  
    27    5   26 1  
    28    8   27 1  
    29    9   28 1  
    30   11   29 1  
    31   12   30 1  
    32   16   31 1  
    33   17   32 1  
    34   17   33 1  
    35   18   34 1  
    36   18   35 1  
@<TRIPOS>SUBSTRUCTURE
     1 2G1         1

