### 
### Created by X-TOOL on Mon Sep 10 21:13:17 2018
### 

@<TRIPOS>MOLECULE
4m3m_ligand
   44    44     1     0     0
SMALL
GAST_HUCK


@<TRIPOS>ATOM
      1 C1        -68.5800   23.3450  141.1490 C.2       1 22N         0.0478
      2 O1A       -68.5300   22.3270  140.5050 O.co2     1 22N        -0.5666
      3 O1B       -68.0600   23.3590  142.2410 O.co2     1 22N        -0.5666
      4 C2        -69.2040   24.4790  140.6920 C.2       1 22N        -0.0181
      5 C3        -68.9800   25.6770  141.4120 C.2       1 22N        -0.0283
      6 C4        -69.6300   26.8660  140.7920 C.3       1 22N         0.0251
      7 C5        -71.0100   26.4830  140.4270 C.3       1 22N         0.1202
      8 N5        -71.7410   26.1550  141.6670 N.am      1 22N        -0.2740
      9 C10       -72.5670   25.1290  142.0180 C.2       1 22N         0.1735
     10 O10       -72.9180   24.2140  141.3220 O.2       1 22N        -0.3974
     11 C11       -73.1030   25.1630  143.4220 C.3       1 22N         0.0257
     12 C6        -70.9260   25.4690  139.2400 C.3       1 22N         0.0955
     13 C7        -70.0930   24.3980  139.6240 C.3       1 22N         0.0036
     14 O7        -72.1560   25.0110  138.8020 O.3       1 22N        -0.3690
     15 C8        -72.4960   25.2390  137.4740 C.3       1 22N         0.0589
     16 C9        -74.0200   25.1260  137.3630 C.3       1 22N        -0.0294
     17 C81       -71.8500   24.1960  136.6110 C.3       1 22N        -0.0294
     18 C82       -72.2480   22.8340  137.1220 C.3       1 22N        -0.0629
     19 C91       -74.6460   26.3760  137.9710 C.3       1 22N        -0.0629
     20 N4        -69.6150   28.0260  141.6810 N.4       1 22N         0.2343
     21 H         -68.3917   25.7249  142.3272 H         1 22N         0.0622
     22 H         -69.0808   27.1321  139.8768 H         1 22N         0.1029
     23 H         -71.5140   27.3711  140.0181 H         1 22N         0.0664
     24 H         -71.6017   26.8218  142.3991 H         1 22N         0.1859
     25 H         -73.7524   24.2908  143.5877 H         1 22N         0.0467
     26 H         -73.6832   26.0856  143.5708 H         1 22N         0.0467
     27 H         -72.2657   25.1374  144.1349 H         1 22N         0.0467
     28 H         -70.4525   25.9864  138.3926 H         1 22N         0.0642
     29 H         -70.7646   23.5569  139.8507 H         1 22N         0.0411
     30 H         -69.4851   24.1540  138.7404 H         1 22N         0.0411
     31 H         -72.1649   26.2404  137.1617 H         1 22N         0.0596
     32 H         -74.3663   24.2356  137.9081 H         1 22N         0.0287
     33 H         -74.3094   25.0438  136.3050 H         1 22N         0.0287
     34 H         -70.7562   24.3034  136.6560 H         1 22N         0.0287
     35 H         -72.1877   24.3146  135.5709 H         1 22N         0.0287
     36 H         -71.7812   22.0575  136.4981 H         1 22N         0.0231
     37 H         -73.3423   22.7311  137.0777 H         1 22N         0.0231
     38 H         -71.9108   22.7199  138.1628 H         1 22N         0.0231
     39 H         -75.7416   26.3096  137.8987 H         1 22N         0.0231
     40 H         -74.2957   27.2643  137.4249 H         1 22N         0.0231
     41 H         -74.3525   26.4560  139.0281 H         1 22N         0.0231
     42 H         -68.6620   28.2611  141.9105 H         1 22N         0.2011
     43 H         -70.1202   27.8085  142.5257 H         1 22N         0.2011
     44 H         -70.0523   28.8084  141.2199 H         1 22N         0.2011
@<TRIPOS>BOND
     1    1    2 ar 
     2    1    3 ar 
     3    1    4 1  
     4    4    5 2  
     5    4   13 1  
     6    5    6 1  
     7    6    7 1  
     8    6   20 1  
     9    7    8 1  
    10    7   12 1  
    11    8    9 am 
    12    9   10 2  
    13    9   11 1  
    14   12   13 1  
    15   12   14 1  
    16   14   15 1  
    17   15   16 1  
    18   15   17 1  
    19   16   19 1  
    20   17   18 1  
    21    5   21 1  
    22    6   22 1  
    23    7   23 1  
    24    8   24 1  
    25   11   25 1  
    26   11   26 1  
    27   11   27 1  
    28   12   28 1  
    29   13   29 1  
    30   13   30 1  
    31   15   31 1  
    32   16   32 1  
    33   16   33 1  
    34   17   34 1  
    35   17   35 1  
    36   18   36 1  
    37   18   37 1  
    38   18   38 1  
    39   19   39 1  
    40   19   40 1  
    41   19   41 1  
    42   20   42 1  
    43   20   43 1  
    44   20   44 1  
@<TRIPOS>SUBSTRUCTURE
     1 22N         1

