### 
### Created by X-TOOL on Mon Sep 10 21:13:18 2018
### 

@<TRIPOS>MOLECULE
4m3p_ligand
   17    16     1     0     0
SMALL
GAST_HUCK


@<TRIPOS>ATOM
      1 N          79.7900    6.5170  -38.6110 N.4       1 HCS         0.2327
      2 CA         79.1440    5.4400  -37.8670 C.3       1 HCS         0.0291
      3 CB         79.6710    5.4790  -36.3600 C.3       1 HCS         0.0111
      4 CG         78.9710    4.4140  -35.5110 C.3       1 HCS        -0.0026
      5 SD         80.0040    4.0560  -33.9970 S.3       1 HCS        -0.1779
      6 C          77.5410    5.5880  -37.9610 C.2       1 HCS         0.0844
      7 OXT        76.8480    4.6160  -37.6310 O.co2     1 HCS        -0.5643
      8 O          77.1290    6.6900  -38.4140 O.co2     1 HCS        -0.5643
      9 H          80.7909    6.4164  -38.5467 H         1 HCS         0.2010
     10 H          79.5159    7.4056  -38.2219 H         1 HCS         0.2010
     11 H          79.5093    6.4727  -39.5781 H         1 HCS         0.2010
     12 H          79.4279    4.4752  -38.3126 H         1 HCS         0.1024
     13 H          79.4676    6.4719  -35.9325 H         1 HCS         0.0346
     14 H          80.7548    5.2913  -36.3521 H         1 HCS         0.0346
     15 H          78.8521    3.4932  -36.1010 H         1 HCS         0.0377
     16 H          77.9815    4.7820  -35.2022 H         1 HCS         0.0377
     17 H          79.5450    3.3551  -33.4366 H         1 HCS         0.1016
@<TRIPOS>BOND
     1    1    2 1  
     2    2    3 1  
     3    2    6 1  
     4    3    4 1  
     5    4    5 1  
     6    6    7 ar 
     7    6    8 ar 
     8    1    9 1  
     9    1   10 1  
    10    1   11 1  
    11    2   12 1  
    12    3   13 1  
    13    3   14 1  
    14    4   15 1  
    15    4   16 1  
    16    5   17 1  
@<TRIPOS>SUBSTRUCTURE
     1 HCS         1

