### 
### Created by X-TOOL on Mon Sep 10 21:13:16 2018
### 

@<TRIPOS>MOLECULE
4m3q_ligand
   52    54     1     0     0
SMALL
GAST_HUCK


@<TRIPOS>ATOM
      1 C01       -13.5650   40.8330  -20.6530 C.3       1 24K        -0.0652
      2 C02       -13.3850   41.4410  -19.2660 C.3       1 24K        -0.0540
      3 C03       -13.6080   42.9600  -19.2560 C.3       1 24K        -0.0325
      4 C04       -13.6570   43.5260  -17.8210 C.3       1 24K         0.0312
      5 N05       -15.0170   43.8910  -17.4330 N.pl3     1 24K        -0.2908
      6 C06       -15.6720   43.1660  -16.3520 C.ar      1 24K         0.1766
      7 N07       -16.6910   43.6840  -15.6400 N.ar      1 24K        -0.2688
      8 C08       -17.2590   42.9440  -14.6410 C.ar      1 24K         0.0125
      9 C09       -16.7900   41.6550  -14.3410 C.ar      1 24K         0.0564
     10 C10       -15.7290   41.1530  -15.1180 C.ar      1 24K         0.1279
     11 N11       -15.1400   39.8380  -14.9410 N.pl3     1 24K        -0.2973
     12 C12       -13.9580   39.4580  -15.6860 C.3       1 24K         0.0416
     13 C13       -14.4330   38.6380  -16.8690 C.3       1 24K        -0.0271
     14 C14       -13.2940   37.9680  -17.6060 C.3       1 24K        -0.0247
     15 C15       -12.3940   37.1910  -16.6710 C.3       1 24K         0.0554
     16 O16       -11.2880   36.7040  -17.4170 O.3       1 24K        -0.3918
     17 C17       -11.8900   38.0510  -15.5310 C.3       1 24K        -0.0247
     18 C18       -13.0290   38.7030  -14.7670 C.3       1 24K        -0.0271
     19 N19       -15.2200   41.9280  -16.0850 N.ar      1 24K        -0.2378
     20 C20       -17.3900   40.8810  -13.3160 C.ar      1 24K         0.0505
     21 C21       -18.7600   40.9770  -13.1020 C.ar      1 24K        -0.0311
     22 C22       -19.3490   40.2010  -12.1000 C.ar      1 24K        -0.0452
     23 C23       -18.5560   39.3510  -11.3430 C.ar      1 24K        -0.0372
     24 C24       -17.1890   39.2770  -11.5890 C.ar      1 24K         0.0064
     25 N25       -16.6530   40.0400  -12.5620 N.ar      1 24K        -0.2971
     26 H1        -13.3944   39.7475  -20.6024 H         1 24K         0.0230
     27 H2        -12.8428   41.2856  -21.3483 H         1 24K         0.0230
     28 H3        -14.5876   41.0272  -21.0086 H         1 24K         0.0230
     29 H4        -12.3620   41.2325  -18.9195 H         1 24K         0.0263
     30 H5        -14.1069   40.9741  -18.5798 H         1 24K         0.0263
     31 H6        -14.5608   43.1827  -19.7586 H         1 24K         0.0285
     32 H7        -12.7840   43.4438  -19.8009 H         1 24K         0.0285
     33 H8        -13.0186   44.4202  -17.7680 H         1 24K         0.0526
     34 H9        -13.2793   42.7638  -17.1236 H         1 24K         0.0526
     35 H10       -15.5088   44.6543  -17.9193 H         1 24K         0.1872
     36 H11       -18.0835   43.3583  -14.0721 H         1 24K         0.0873
     37 H12       -15.5656   39.1712  -14.2814 H         1 24K         0.1868
     38 H13       -13.4388   40.3550  -16.0544 H         1 24K         0.0562
     39 H14       -14.9630   39.3017  -17.5679 H         1 24K         0.0289
     40 H15       -15.1227   37.8619  -16.5058 H         1 24K         0.0289
     41 H16       -12.6970   38.7396  -18.1141 H         1 24K         0.0291
     42 H17       -13.7118   37.2768  -18.3528 H         1 24K         0.0291
     43 H18       -12.9573   36.3434  -16.2536 H         1 24K         0.0593
     44 H19       -10.7120   36.2128  -16.8431 H         1 24K         0.2098
     45 H20       -11.2396   38.8382  -15.9400 H         1 24K         0.0291
     46 H21       -11.3122   37.4210  -14.8387 H         1 24K         0.0291
     47 H22       -13.6012   37.9219  -14.2450 H         1 24K         0.0289
     48 H23       -12.6089   39.4038  -14.0305 H         1 24K         0.0289
     49 H24       -19.3641   41.6454  -13.7048 H         1 24K         0.0690
     50 H25       -20.4155   40.2627  -11.9161 H         1 24K         0.0727
     51 H26       -19.0008   38.7457  -10.5614 H         1 24K         0.0683
     52 H27       -16.5620   38.6132  -11.0048 H         1 24K         0.0817
@<TRIPOS>BOND
     1    1    2 1  
     2    2    3 1  
     3    3    4 1  
     4    4    5 1  
     5    5    6 1  
     6    6    7 ar 
     7    6   19 ar 
     8    7    8 ar 
     9    8    9 ar 
    10    9   10 ar 
    11    9   20 1  
    12   10   11 1  
    13   10   19 ar 
    14   11   12 1  
    15   12   13 1  
    16   12   18 1  
    17   13   14 1  
    18   14   15 1  
    19   15   16 1  
    20   15   17 1  
    21   17   18 1  
    22   20   21 ar 
    23   20   25 ar 
    24   21   22 ar 
    25   22   23 ar 
    26   23   24 ar 
    27   24   25 ar 
    28    1   26 1  
    29    1   27 1  
    30    1   28 1  
    31    2   29 1  
    32    2   30 1  
    33    3   31 1  
    34    3   32 1  
    35    4   33 1  
    36    4   34 1  
    37    5   35 1  
    38    8   36 1  
    39   11   37 1  
    40   12   38 1  
    41   13   39 1  
    42   13   40 1  
    43   14   41 1  
    44   14   42 1  
    45   15   43 1  
    46   16   44 1  
    47   17   45 1  
    48   17   46 1  
    49   18   47 1  
    50   18   48 1  
    51   21   49 1  
    52   22   50 1  
    53   23   51 1  
    54   24   52 1  
@<TRIPOS>SUBSTRUCTURE
     1 24K         1

