### 
### Created by X-TOOL on Mon Sep 10 21:13:15 2018
### 

@<TRIPOS>MOLECULE
4m48_ligand
   42    44     1     0     0
SMALL
GAST_HUCK


@<TRIPOS>ATOM
      1 C16       -43.0980   -1.5900   52.1250 C.3       1 21B        -0.0447
      2 N         -43.0980   -2.7380   53.0010 N.4       1 21B         0.2267
      3 C15       -42.9720   -2.5550   54.4310 C.3       1 21B        -0.0223
      4 C14       -41.6120   -3.0090   54.9610 C.3       1 21B         0.0200
      5 C13       -40.6070   -1.9090   54.7230 C.2       1 21B        -0.0618
      6 C4        -39.4070   -1.7540   55.3160 C.2       1 21B        -0.0258
      7 C3        -38.6270   -0.5640   54.8750 C.ar      1 21B        -0.0279
      8 C17       -39.0420    0.7310   55.1650 C.ar      1 21B        -0.0662
      9 C18       -38.2710    1.7950   54.7120 C.ar      1 21B        -0.0723
     10 C         -37.1110    1.5540   53.9750 C.ar      1 21B        -0.0722
     11 C5        -38.7940   -2.6520   56.3600 C.ar      1 21B        -0.0279
     12 C10       -39.5410   -2.9770   57.4890 C.ar      1 21B        -0.0662
     13 C9        -39.0200   -3.7880   58.4920 C.ar      1 21B        -0.0723
     14 C8        -37.7240   -4.2730   58.3930 C.ar      1 21B        -0.0722
     15 C7        -36.9660   -3.9370   57.2800 C.ar      1 21B        -0.0632
     16 C6        -37.4820   -3.1340   56.2650 C.ar      1 21B        -0.0376
     17 C11       -36.5190   -2.8620   55.1240 C.3       1 21B        -0.0101
     18 C12       -37.1270   -2.2430   53.8760 C.3       1 21B        -0.0101
     19 C2        -37.4860   -0.8040   54.1470 C.ar      1 21B        -0.0376
     20 C1        -36.7100    0.2520   53.6860 C.ar      1 21B        -0.0632
     21 H1        -43.2022   -1.9245   51.0823 H         1 21B         0.0777
     22 H2        -42.1523   -1.0403   52.2409 H         1 21B         0.0777
     23 H3        -43.9395   -0.9308   52.3844 H         1 21B         0.0777
     24 H4        -42.3297   -3.3238   52.7135 H         1 21B         0.2013
     25 H5        -43.9675   -3.2235   52.8450 H         1 21B         0.2013
     26 H6        -43.7586   -3.1383   54.9321 H         1 21B         0.0846
     27 H7        -43.1027   -1.4878   54.6631 H         1 21B         0.0846
     28 H8        -41.2947   -3.9204   54.4332 H         1 21B         0.0522
     29 H9        -41.6854   -3.2161   56.0388 H         1 21B         0.0522
     30 H10       -40.8830   -1.1542   53.9881 H         1 21B         0.0724
     31 H11       -39.9484    0.9072   55.7328 H         1 21B         0.0566
     32 H12       -38.5712    2.8132   54.9315 H         1 21B         0.0551
     33 H13       -36.5157    2.3890   53.6237 H         1 21B         0.0568
     34 H14       -40.5488   -2.5903   57.5885 H         1 21B         0.0566
     35 H15       -39.6280   -4.0416   59.3529 H         1 21B         0.0551
     36 H16       -37.3104   -4.9036   59.1717 H         1 21B         0.0568
     37 H17       -35.9505   -4.3073   57.1986 H         1 21B         0.0545
     38 H18       -36.0589   -3.8187   54.8359 H         1 21B         0.0448
     39 H19       -35.7414   -2.1781   55.4949 H         1 21B         0.0448
     40 H20       -38.0335   -2.7996   53.5959 H         1 21B         0.0448
     41 H21       -36.3990   -2.2896   53.0527 H         1 21B         0.0448
     42 H22       -35.8093    0.0661   53.1121 H         1 21B         0.0545
@<TRIPOS>BOND
     1    1    2 1  
     2    2    3 1  
     3    3    4 1  
     4    4    5 1  
     5    5    6 2  
     6    6    7 1  
     7    6   11 1  
     8    7    8 ar 
     9    7   19 ar 
    10    8    9 ar 
    11    9   10 ar 
    12   10   20 ar 
    13   11   12 ar 
    14   11   16 ar 
    15   12   13 ar 
    16   13   14 ar 
    17   14   15 ar 
    18   15   16 ar 
    19   16   17 1  
    20   17   18 1  
    21   18   19 1  
    22   19   20 ar 
    23    1   21 1  
    24    1   22 1  
    25    1   23 1  
    26    2   24 1  
    27    2   25 1  
    28    3   26 1  
    29    3   27 1  
    30    4   28 1  
    31    4   29 1  
    32    5   30 1  
    33    8   31 1  
    34    9   32 1  
    35   10   33 1  
    36   12   34 1  
    37   13   35 1  
    38   14   36 1  
    39   15   37 1  
    40   17   38 1  
    41   17   39 1  
    42   18   40 1  
    43   18   41 1  
    44   20   42 1  
@<TRIPOS>SUBSTRUCTURE
     1 21B         1

