### 
### Created by X-TOOL on Mon Sep 10 21:13:14 2018
### 

@<TRIPOS>MOLECULE
4m4q_ligand
   38    41     1     0     0
SMALL
GAST_HUCK


@<TRIPOS>ATOM
      1 O01         8.8630   19.8500   -8.6420 O.2       1 21A        -0.4051
      2 C02         9.4150   20.5040   -9.4990 C.2       1 21A         0.2451
      3 C03         9.7990   21.8350   -9.2370 C.2       1 21A         0.1502
      4 O04         9.5410   22.4270   -7.9870 O.3       1 21A        -0.3340
      5 C05        10.4430   22.5910  -10.2440 C.2       1 21A        -0.0367
      6 C06        10.7360   22.0660  -11.5110 C.2       1 21A        -0.0016
      7 C07        11.4310   23.0440  -12.4380 C.ar      1 21A        -0.0342
      8 C08        12.8010   22.9890  -12.6260 C.ar      1 21A        -0.0597
      9 C09        13.4200   23.9160  -13.4520 C.ar      1 21A        -0.0514
     10 C10        12.6650   24.9010  -14.0740 C.ar      1 21A         0.0322
     11 C11        13.3310   25.9290  -14.9610 C.2       1 21A         0.1788
     12 N12        12.7720   26.5900  -15.9950 N.pl3     1 21A        -0.1534
     13 N13        13.7040   27.4200  -16.5020 N.2       1 21A        -0.0662
     14 N14        14.8300   27.2780  -15.7820 N.2       1 21A        -0.1414
     15 N15        14.5990   26.3610  -14.8260 N.2       1 21A        -0.2121
     16 C16        11.3010   24.9710  -13.8610 C.ar      1 21A        -0.0514
     17 C17        10.6830   24.0400  -13.0430 C.ar      1 21A        -0.0597
     18 C18        10.3690   20.7250  -11.8260 C.2       1 21A         0.0988
     19 N19         9.7010   19.9220  -10.8050 N.am      1 21A        -0.2202
     20 C20        10.6360   20.0690  -13.1680 C.ar      1 21A         0.0155
     21 C21        10.1360   20.6120  -14.3430 C.ar      1 21A        -0.0497
     22 C22        10.3830   19.9900  -15.5580 C.ar      1 21A        -0.0250
     23 C23        11.1220   18.8170  -15.5990 C.ar      1 21A         0.1353
     24 F24        11.3580   18.2190  -16.7740 F         1 21A        -0.1810
     25 C25        11.6170   18.2700  -14.4220 C.ar      1 21A        -0.0250
     26 C26        11.3690   18.8950  -13.2100 C.ar      1 21A        -0.0497
     27 H1          9.9793   21.9302   -7.3061 H         1 21A         0.2459
     28 H2         10.7222   23.6210  -10.0270 H         1 21A         0.0467
     29 H3         13.3881   22.2247  -12.1298 H         1 21A         0.0571
     30 H4         14.4913   23.8712  -13.6114 H         1 21A         0.0641
     31 H5         11.8062   26.4800  -16.3358 H         1 21A         0.2694
     32 H6         10.7167   25.7526  -14.3330 H         1 21A         0.0641
     33 H7          9.6131   24.0910  -12.8762 H         1 21A         0.0571
     34 H8          9.4408   18.9765  -11.0009 H         1 21A         0.2483
     35 H9          9.5512   21.5242  -14.3114 H         1 21A         0.0634
     36 H10         9.9985   20.4207  -16.4754 H         1 21A         0.0611
     37 H11        12.1970   17.3547  -14.4514 H         1 21A         0.0611
     38 H12        11.7502   18.4632  -12.2917 H         1 21A         0.0634
@<TRIPOS>BOND
     1    1    2 2  
     2    2    3 1  
     3    2   19 am 
     4    3    4 1  
     5    3    5 2  
     6    5    6 1  
     7    6    7 1  
     8    6   18 2  
     9    7    8 ar 
    10    7   17 ar 
    11    8    9 ar 
    12    9   10 ar 
    13   10   11 1  
    14   10   16 ar 
    15   11   12 1  
    16   11   15 2  
    17   12   13 1  
    18   13   14 2  
    19   14   15 1  
    20   16   17 ar 
    21   18   19 1  
    22   18   20 1  
    23   20   21 ar 
    24   20   26 ar 
    25   21   22 ar 
    26   22   23 ar 
    27   23   24 1  
    28   23   25 ar 
    29   25   26 ar 
    30    4   27 1  
    31    5   28 1  
    32    8   29 1  
    33    9   30 1  
    34   12   31 1  
    35   16   32 1  
    36   17   33 1  
    37   19   34 1  
    38   21   35 1  
    39   22   36 1  
    40   25   37 1  
    41   26   38 1  
@<TRIPOS>SUBSTRUCTURE
     1 21A         1

