### 
### Created by X-TOOL on Mon Sep 10 21:13:16 2018
### 

@<TRIPOS>MOLECULE
4m5g_ligand
   32    34     1     0     0
SMALL
GAST_HUCK


@<TRIPOS>ATOM
      1 N01        54.7510    6.3420   32.0090 N.am      1 YH1        -0.1847
      2 C02        54.2460    7.2810   31.1930 C.2       1 YH1         0.2253
      3 N03        54.6620    8.5370   31.1770 N.2       1 YH1        -0.3120
      4 C04        55.6530    8.8650   32.0450 C.2       1 YH1         0.0387
      5 C05        56.2090    7.9350   32.8990 C.2       1 YH1         0.1387
      6 C06        55.7290    6.6080   32.8720 C.2       1 YH1         0.2348
      7 O07        56.2250    5.6400   33.6920 O.2       1 YH1        -0.4066
      8 N08        53.2090    6.9130   30.3150 N.pl3     1 YH1        -0.2837
      9 N09        56.2840   10.0440   32.2650 N.2       1 YH1        -0.3089
     10 C10        57.1850    9.8330   33.2240 C.2       1 YH1         0.1813
     11 N11        57.1690    8.5640   33.6480 N.pl3     1 YH1        -0.2479
     12 S12        58.1900   11.1240   33.8040 S.3       1 YH1        -0.0224
     13 C13        57.1230   12.5710   33.7700 C.3       1 YH1         0.0898
     14 C14        55.7390   12.5960   34.3810 C.2       1 YH1         0.1457
     15 C15        54.9130   13.8550   34.4270 C.ar      1 YH1         0.0336
     16 O16        55.2550   11.5730   34.8460 O.2       1 YH1        -0.3773
     17 C17        53.5560   13.7850   34.7300 C.ar      1 YH1        -0.0430
     18 C18        52.7760   14.9360   34.7800 C.ar      1 YH1        -0.0559
     19 C19        53.3500   16.1690   34.5180 C.ar      1 YH1        -0.0572
     20 C20        54.7000   16.2520   34.2130 C.ar      1 YH1        -0.0559
     21 C21        55.4790   15.0990   34.1700 C.ar      1 YH1        -0.0430
     22 H1         54.3809    5.4139   31.9672 H         1 YH1         0.2499
     23 H2         52.8018    7.6119   29.6773 H         1 YH1         0.1881
     24 H3         52.8574    5.9449   30.3103 H         1 YH1         0.1881
     25 H4         57.7561    8.1467   34.3842 H         1 YH1         0.2321
     26 H5         56.9883   12.8218   32.7075 H         1 YH1         0.0632
     27 H6         57.6870   13.3737   34.2676 H         1 YH1         0.0632
     28 H7         53.1013   12.8214   34.9295 H         1 YH1         0.0672
     29 H8         51.7219   14.8680   35.0234 H         1 YH1         0.0630
     30 H9         52.7447   17.0677   34.5514 H         1 YH1         0.0655
     31 H10        55.1498   17.2167   34.0076 H         1 YH1         0.0630
     32 H11        56.5346   15.1714   33.9344 H         1 YH1         0.0672
@<TRIPOS>BOND
     1    1    2 am 
     2    1    6 am 
     3    2    3 2  
     4    2    8 1  
     5    3    4 1  
     6    4    5 2  
     7    4    9 1  
     8    5    6 1  
     9    5   11 1  
    10    6    7 2  
    11    9   10 2  
    12   10   11 1  
    13   10   12 1  
    14   12   13 1  
    15   13   14 1  
    16   14   15 1  
    17   14   16 2  
    18   15   17 ar 
    19   15   21 ar 
    20   17   18 ar 
    21   18   19 ar 
    22   19   20 ar 
    23   20   21 ar 
    24    1   22 1  
    25    8   23 1  
    26    8   24 1  
    27   11   25 1  
    28   13   26 1  
    29   13   27 1  
    30   17   28 1  
    31   18   29 1  
    32   19   30 1  
    33   20   31 1  
    34   21   32 1  
@<TRIPOS>SUBSTRUCTURE
     1 YH1         1

