### 
### Created by X-TOOL on Mon Sep 10 21:13:16 2018
### 

@<TRIPOS>MOLECULE
4m5h_ligand
   32    34     1     0     0
SMALL
GAST_HUCK


@<TRIPOS>ATOM
      1 C01        73.9470    8.1060   67.4920 C.2       1 YH2         0.3013
      2 N02        72.9230    7.8280   66.5890 N.am      1 YH2        -0.2440
      3 C03        72.4150    8.7750   65.6860 C.cat     1 YH2         0.1928
      4 N04        72.8920   10.0810   65.6070 N.pl3     1 YH2        -0.2262
      5 C05        73.9410   10.3780   66.5390 C.2       1 YH2         0.2583
      6 C06        74.4680    9.4920   67.4360 C.2       1 YH2         0.3016
      7 O07        74.3460    7.2370   68.2640 O.2       1 YH2        -0.3429
      8 N08        71.4000    8.4070   64.8290 N.pl3     1 YH2        -0.3352
      9 N09        74.5430   11.5550   66.6850 N.2       1 YH2        -0.1891
     10 C10        75.4630   11.3880   67.6590 C.2       1 YH2         0.2591
     11 N11        75.4280   10.1220   68.1550 N.pl3     1 YH2        -0.1498
     12 S12        76.4770   12.6610   68.2250 S.3       1 YH2         0.0218
     13 C13        75.5470   13.3010   69.6060 C.3       1 YH2         0.0644
     14 C14        74.3270   14.0660   69.1780 C.ar      1 YH2        -0.0190
     15 C15        72.9690   13.4440   69.2050 C.ar      1 YH2        -0.0475
     16 C16        71.7730   14.2240   68.7720 C.ar      1 YH2        -0.0334
     17 C17        71.9380   15.6270   68.3040 C.ar      1 YH2         0.0883
     18 C18        73.2840   16.2550   68.2750 C.ar      1 YH2        -0.0334
     19 C19        74.4720   15.4750   68.7130 C.ar      1 YH2        -0.0475
     20 C20        70.7510   16.4050   67.8680 C.1       1 YH2         0.0934
     21 N21        69.8440   17.0080   67.5320 N.1       1 YH2        -0.3338
     22 H          72.5305    6.9082   66.5840 H         1 YH2         0.1822
     23 H          72.5240   10.7726   64.9383 H         1 YH2         0.2370
     24 H          71.0224    7.4492   64.8592 H         1 YH2         0.1763
     25 H          71.0192    9.0898   64.1584 H         1 YH2         0.1763
     26 H          76.0052    9.7283   68.9118 H         1 YH2         0.2698
     27 H          76.1968   13.9715   70.1876 H         1 YH2         0.0612
     28 H          75.2302   12.4582   70.2379 H         1 YH2         0.0612
     29 H          72.8518   12.4201   69.5411 H         1 YH2         0.0584
     30 H          70.7886   13.7709   68.7982 H         1 YH2         0.0701
     31 H          73.3998   17.2780   67.9358 H         1 YH2         0.0701
     32 H          75.4531   15.9355   68.6940 H         1 YH2         0.0584
@<TRIPOS>BOND
     1    1    2 am 
     2    1    6 1  
     3    1    7 2  
     4    2    3 ar 
     5    3    4 ar 
     6    3    8 ar 
     7    4    5 1  
     8    5    6 2  
     9    5    9 1  
    10    6   11 1  
    11    9   10 2  
    12   10   11 1  
    13   10   12 1  
    14   12   13 1  
    15   13   14 1  
    16   14   15 ar 
    17   14   19 ar 
    18   15   16 ar 
    19   16   17 ar 
    20   17   18 ar 
    21   17   20 1  
    22   18   19 ar 
    23   20   21 3  
    24    2   22 1  
    25    4   23 1  
    26    8   24 1  
    27    8   25 1  
    28   11   26 1  
    29   13   27 1  
    30   13   28 1  
    31   15   29 1  
    32   16   30 1  
    33   18   31 1  
    34   19   32 1  
@<TRIPOS>SUBSTRUCTURE
     1 YH2         1

