### 
### Created by X-TOOL on Mon Sep 10 21:13:16 2018
### 

@<TRIPOS>MOLECULE
4m5i_ligand
   35    37     1     0     0
SMALL
GAST_HUCK


@<TRIPOS>ATOM
      1 O07        55.4230    6.6660   33.4580 O.2       1 YH6        -0.4066
      2 C06        54.9500    7.6420   32.6410 C.2       1 YH6         0.2348
      3 N01        53.9080    7.4080   31.8400 N.am      1 YH6        -0.1847
      4 C02        53.4090    8.3400   31.0100 C.2       1 YH6         0.2253
      5 N08        52.3170    7.9840   30.2080 N.pl3     1 YH6        -0.2837
      6 N03        53.8930    9.5660   30.9200 N.2       1 YH6        -0.3120
      7 C04        54.9460    9.8640   31.7260 C.2       1 YH6         0.0387
      8 C05        55.5020    8.9360   32.5990 C.2       1 YH6         0.1387
      9 N11        56.5400    9.5470   33.2620 N.pl3     1 YH6        -0.2479
     10 N09        55.6340   11.0230   31.8660 N.2       1 YH6        -0.3089
     11 C10        56.5810   10.7980   32.7830 C.2       1 YH6         0.1813
     12 S12        57.6620   12.0380   33.3290 S.3       1 YH6        -0.0225
     13 C13        56.7280   12.6700   34.7110 C.3       1 YH6         0.0886
     14 C14        55.2270   12.7230   34.6430 C.2       1 YH6         0.1407
     15 O16        54.5800   11.6940   34.7640 O.2       1 YH6        -0.3807
     16 C15        54.4770   14.0090   34.4500 C.ar      1 YH6         0.0266
     17 C17        53.1150   14.0200   34.7230 C.ar      1 YH6        -0.0496
     18 C18        52.3710   15.1790   34.5660 C.ar      1 YH6        -0.0544
     19 C19        52.9870   16.3400   34.1270 C.ar      1 YH6        -0.0410
     20 C22        52.1820   17.5840   33.9570 C.3       1 YH6        -0.0287
     21 C20        54.3490   16.3340   33.8480 C.ar      1 YH6        -0.0544
     22 C21        55.0970   15.1720   34.0090 C.ar      1 YH6        -0.0496
     23 H1         53.4819    6.5035   31.8582 H         1 YH6         0.2499
     24 H2         51.9080    8.6721   29.5598 H         1 YH6         0.1881
     25 H3         51.9230    7.0341   30.2665 H         1 YH6         0.1881
     26 H4         57.1556    9.1314   33.9756 H         1 YH6         0.2321
     27 H5         57.0745   13.6995   34.8841 H         1 YH6         0.0631
     28 H6         56.9846   12.0458   35.5796 H         1 YH6         0.0631
     29 H7         52.6288   13.1126   35.0624 H         1 YH6         0.0655
     30 H8         51.3096   15.1771   34.7862 H         1 YH6         0.0571
     31 H9         52.8336   18.3971   33.6044 H         1 YH6         0.0402
     32 H10        51.7338   17.8654   34.9213 H         1 YH6         0.0402
     33 H11        51.3849   17.4071   33.2199 H         1 YH6         0.0402
     34 H12        54.8316   17.2411   33.5026 H         1 YH6         0.0571
     35 H13        56.1589   15.1738   33.7914 H         1 YH6         0.0655
@<TRIPOS>BOND
     1    1    2 2  
     2    2    3 am 
     3    2    8 1  
     4    3    4 am 
     5    4    5 1  
     6    4    6 2  
     7    6    7 1  
     8    7    8 2  
     9    7   10 1  
    10    8    9 1  
    11    9   11 1  
    12   10   11 2  
    13   11   12 1  
    14   12   13 1  
    15   13   14 1  
    16   14   15 2  
    17   14   16 1  
    18   16   17 ar 
    19   16   22 ar 
    20   17   18 ar 
    21   18   19 ar 
    22   19   20 1  
    23   19   21 ar 
    24   21   22 ar 
    25    3   23 1  
    26    5   24 1  
    27    5   25 1  
    28    9   26 1  
    29   13   27 1  
    30   13   28 1  
    31   17   29 1  
    32   18   30 1  
    33   20   31 1  
    34   20   32 1  
    35   20   33 1  
    36   21   34 1  
    37   22   35 1  
@<TRIPOS>SUBSTRUCTURE
     1 YH6         1

