### 
### Created by X-TOOL on Mon Sep 10 21:13:17 2018
### 

@<TRIPOS>MOLECULE
4m5j_ligand
   36    38     1     0     0
SMALL
GAST_HUCK


@<TRIPOS>ATOM
      1 C1         57.2800   10.6100   32.8290 C.2       1 YH5         0.2348
      2 O1         57.8170    9.6450   33.6590 O.2       1 YH5        -0.4066
      3 N1         58.9240   12.4350   33.4120 N.pl3     1 YH5        -0.2479
      4 S1         60.1380   14.8620   33.4390 S.3       1 YH5        -0.0226
      5 C10        56.6000   19.1160   34.1060 C.ar      1 YH5        -0.0266
      6 C11        55.2550   18.9480   34.3300 C.ar      1 YH5         0.0966
      7 C12        54.7520   17.6460   34.7910 C.ar      1 YH5        -0.0266
      8 C13        55.6190   16.6140   34.9990 C.ar      1 YH5        -0.0514
      9 C14        54.1050   20.8990   35.1520 C.3       1 YH5         0.0608
     10 N2         57.9130   13.9690   32.0090 N.2       1 YH5        -0.3089
     11 C2         57.8220   11.8880   32.7610 C.2       1 YH5         0.1387
     12 O2         57.3460   14.5410   35.3820 O.2       1 YH5        -0.3829
     13 N3         56.0770   12.5950   31.1480 N.2       1 YH5        -0.3120
     14 C3         58.9380   13.6870   32.9260 C.2       1 YH5         0.1813
     15 O3         54.3530   19.9820   34.1350 O.3       1 YH5        -0.3175
     16 C4         57.1870   12.7870   31.9280 C.2       1 YH5         0.0387
     17 N4         56.1680   10.3140   32.0970 N.am      1 YH5        -0.1847
     18 C5         55.5580   11.3200   31.2570 C.2       1 YH5         0.2253
     19 N5         54.4050   10.9710   30.5080 N.pl3     1 YH5        -0.2837
     20 C6         59.4540   15.4690   34.9850 C.3       1 YH5         0.0879
     21 C7         57.9390   15.5490   35.0370 C.2       1 YH5         0.1375
     22 C8         57.0980   16.7710   34.7580 C.ar      1 YH5         0.0223
     23 C9         57.5560   17.9720   34.3370 C.ar      1 YH5        -0.0514
     24 H1         59.5623   11.9945   34.0898 H         1 YH5         0.2321
     25 H2         56.9754   20.0731   33.7624 H         1 YH5         0.0558
     26 H3         53.6914   17.5060   34.9657 H         1 YH5         0.0558
     27 H4         55.2360   15.6608   35.3450 H         1 YH5         0.0645
     28 H5         53.3658   21.6373   34.8077 H         1 YH5         0.0580
     29 H6         55.0403   21.4132   35.4182 H         1 YH5         0.0580
     30 H7         53.7128   20.3714   36.0339 H         1 YH5         0.0580
     31 H8         55.7727    9.3965   32.1416 H         1 YH5         0.2499
     32 H9         53.9529   11.6709   29.9025 H         1 YH5         0.1881
     33 H10        54.0199   10.0177   30.5697 H         1 YH5         0.1881
     34 H11        59.8538   16.4787   35.1603 H         1 YH5         0.0630
     35 H12        59.7867   14.7979   35.7905 H         1 YH5         0.0630
     36 H13        58.6168   18.1135   34.1645 H         1 YH5         0.0645
@<TRIPOS>BOND
     1    1    2 2  
     2   11    1 1  
     3    1   17 am 
     4    3   11 1  
     5   14    3 1  
     6    4   14 1  
     7   20    4 1  
     8    6    5 ar 
     9    5   23 ar 
    10    7    6 ar 
    11    6   15 1  
    12    8    7 ar 
    13   22    8 ar 
    14   15    9 1  
    15   14   10 2  
    16   10   16 1  
    17   16   11 2  
    18   21   12 2  
    19   16   13 1  
    20   13   18 2  
    21   18   17 am 
    22   18   19 1  
    23   21   20 1  
    24   21   22 1  
    25   22   23 ar 
    26    3   24 1  
    27    5   25 1  
    28    7   26 1  
    29    8   27 1  
    30    9   28 1  
    31    9   29 1  
    32    9   30 1  
    33   17   31 1  
    34   19   32 1  
    35   19   33 1  
    36   20   34 1  
    37   20   35 1  
    38   23   36 1  
@<TRIPOS>SUBSTRUCTURE
     1 YH5         1

