### 
### Created by X-TOOL on Mon Sep 10 21:13:16 2018
### 

@<TRIPOS>MOLECULE
4m5k_ligand
   35    37     1     0     0
SMALL
GAST_HUCK


@<TRIPOS>ATOM
      1 O16        54.2670   12.3580   34.5990 O.2       1 YH3        -0.3773
      2 C14        54.7970   13.4160   34.2910 C.2       1 YH3         0.1441
      3 C15        53.9330   14.6550   34.3640 C.ar      1 YH3         0.0269
      4 C17        52.6440   14.5710   34.9020 C.ar      1 YH3        -0.0420
      5 C18        51.8120   15.6880   34.9870 C.ar      1 YH3        -0.0403
      6 C22        50.4390   15.5820   35.5740 C.3       1 YH3        -0.0301
      7 C19        52.2610   16.9130   34.5220 C.ar      1 YH3        -0.0560
      8 C20        53.5360   17.0150   33.9840 C.ar      1 YH3        -0.0626
      9 C21        54.3640   15.8980   33.9030 C.ar      1 YH3        -0.0499
     10 C13        56.2510   13.4310   33.8500 C.3       1 YH3         0.0896
     11 S12        57.3410   11.9950   33.7950 S.3       1 YH3        -0.0224
     12 C10        56.3750   10.6960   33.1610 C.2       1 YH3         0.1813
     13 N09        55.5040   10.9040   32.1740 N.2       1 YH3        -0.3089
     14 C04        54.8990    9.7150   31.9250 C.2       1 YH3         0.0387
     15 C05        55.4280    8.7730   32.7840 C.2       1 YH3         0.1387
     16 N11        56.3590    9.4150   33.5620 N.pl3     1 YH3        -0.2479
     17 N03        53.9500    9.3900   31.0150 N.2       1 YH3        -0.3120
     18 C02        53.5190    8.1370   31.0030 C.2       1 YH3         0.2253
     19 N08        52.5080    7.7840   30.0900 N.pl3     1 YH3        -0.2837
     20 N01        53.9940    7.1870   31.8190 N.am      1 YH3        -0.1847
     21 C06        54.9500    7.4510   32.7120 C.2       1 YH3         0.2348
     22 O07        55.4260    6.4780   33.5380 O.2       1 YH3        -0.4066
     23 H1         52.2828   13.6143   35.2617 H         1 YH3         0.0609
     24 H2         49.9519   16.5679   35.5477 H         1 YH3         0.0391
     25 H3         50.5113   15.2365   36.6158 H         1 YH3         0.0391
     26 H4         49.8449   14.8638   34.9898 H         1 YH3         0.0391
     27 H5         51.6208   17.7860   34.5780 H         1 YH3         0.0595
     28 H6         53.8911   17.9735   33.6232 H         1 YH3         0.0612
     29 H7         55.3556   15.9964   33.4763 H         1 YH3         0.0614
     30 H8         56.7501   14.1501   34.5162 H         1 YH3         0.0632
     31 H9         56.2402   13.8279   32.8242 H         1 YH3         0.0632
     32 H10        56.9330    8.9959   34.3075 H         1 YH3         0.2321
     33 H11        52.1224    8.4924   29.4494 H         1 YH3         0.1881
     34 H12        52.1536    6.8173   30.0624 H         1 YH3         0.1881
     35 H13        53.6243    6.2599   31.7578 H         1 YH3         0.2499
@<TRIPOS>BOND
     1    1    2 2  
     2    2    3 1  
     3    2   10 1  
     4    3    4 ar 
     5    3    9 ar 
     6    4    5 ar 
     7    5    6 1  
     8    5    7 ar 
     9    7    8 ar 
    10    8    9 ar 
    11   10   11 1  
    12   11   12 1  
    13   12   13 2  
    14   12   16 1  
    15   13   14 1  
    16   14   15 2  
    17   14   17 1  
    18   15   16 1  
    19   15   21 1  
    20   17   18 2  
    21   18   19 1  
    22   18   20 am 
    23   20   21 am 
    24   21   22 2  
    25    4   23 1  
    26    6   24 1  
    27    6   25 1  
    28    6   26 1  
    29    7   27 1  
    30    8   28 1  
    31    9   29 1  
    32   10   30 1  
    33   10   31 1  
    34   16   32 1  
    35   19   33 1  
    36   19   34 1  
    37   20   35 1  
@<TRIPOS>SUBSTRUCTURE
     1 YH3         1

