### 
### Created by X-TOOL on Mon Sep 10 21:13:17 2018
### 

@<TRIPOS>MOLECULE
4m5l_ligand
   35    37     1     0     0
SMALL
GAST_HUCK


@<TRIPOS>ATOM
      1 O16        54.2080   11.3910   34.9340 O.2       1 YH4        -0.3815
      2 C14        54.6960   12.3860   34.4330 C.2       1 YH4         0.1408
      3 C15        53.9430   13.6830   34.3740 C.ar      1 YH4         0.0348
      4 C21        52.5510   13.8260   34.4770 C.ar      1 YH4        -0.0266
      5 C22        51.5830   12.6790   34.6590 C.3       1 YH4        -0.0273
      6 C20        51.9730   15.1020   34.4070 C.ar      1 YH4        -0.0543
      7 C19        52.7580   16.2340   34.2370 C.ar      1 YH4        -0.0639
      8 C18        54.1340   16.0990   34.1370 C.ar      1 YH4        -0.0627
      9 C17        54.7170   14.8380   34.2040 C.ar      1 YH4        -0.0495
     10 C13        56.0870   12.3050   33.8830 C.3       1 YH4         0.0884
     11 S12        57.1240   10.8320   33.9790 S.3       1 YH4        -0.0225
     12 C10        56.1330    9.5640   33.3560 C.2       1 YH4         0.1813
     13 N11        56.0830    8.2880   33.7950 N.pl3     1 YH4        -0.2479
     14 C05        55.1400    7.6780   32.9970 C.2       1 YH4         0.1387
     15 C06        54.6200    6.3670   32.9280 C.2       1 YH4         0.2348
     16 O07        55.0530    5.3820   33.7820 O.2       1 YH4        -0.4066
     17 N01        53.6710    6.1110   32.0290 N.am      1 YH4        -0.1847
     18 C02        53.2290    7.0570   31.1840 C.2       1 YH4         0.2253
     19 N08        52.2300    6.7010   30.2560 N.pl3     1 YH4        -0.2837
     20 N03        53.6880    8.3120   31.1770 N.2       1 YH4        -0.3120
     21 C04        54.6300    8.6120   32.0980 C.2       1 YH4         0.0387
     22 N09        55.2790    9.7910   32.3490 N.2       1 YH4        -0.3089
     23 H1         50.5562   13.0703   34.7097 H         1 YH4         0.0405
     24 H2         51.8183   12.1451   35.5915 H         1 YH4         0.0405
     25 H3         51.6701   11.9871   33.8083 H         1 YH4         0.0405
     26 H4         50.8969   15.2057   34.4869 H         1 YH4         0.0569
     27 H5         52.2993   17.2147   34.1829 H         1 YH4         0.0638
     28 H6         54.7562   16.9770   34.0065 H         1 YH4         0.0572
     29 H7         55.7941   14.7470   34.1229 H         1 YH4         0.0653
     30 H8         56.6538   13.1022   34.3862 H         1 YH4         0.0631
     31 H9         55.9984   12.5382   32.8117 H         1 YH4         0.0631
     32 H10        56.6295    7.8641   34.5583 H         1 YH4         0.2321
     33 H11        53.2782    5.1926   31.9820 H         1 YH4         0.2499
     34 H12        51.8688    7.4023   29.5937 H         1 YH4         0.1881
     35 H13        51.8610    5.7395   30.2400 H         1 YH4         0.1881
@<TRIPOS>BOND
     1    1    2 2  
     2    2    3 1  
     3    2   10 1  
     4    3    4 ar 
     5    3    9 ar 
     6    4    5 1  
     7    4    6 ar 
     8    6    7 ar 
     9    7    8 ar 
    10    8    9 ar 
    11   10   11 1  
    12   11   12 1  
    13   12   13 1  
    14   12   22 2  
    15   13   14 1  
    16   14   15 1  
    17   14   21 2  
    18   15   16 2  
    19   15   17 am 
    20   17   18 am 
    21   18   19 1  
    22   18   20 2  
    23   20   21 1  
    24   21   22 1  
    25    5   23 1  
    26    5   24 1  
    27    5   25 1  
    28    6   26 1  
    29    7   27 1  
    30    8   28 1  
    31    9   29 1  
    32   10   30 1  
    33   10   31 1  
    34   13   32 1  
    35   17   33 1  
    36   19   34 1  
    37   19   35 1  
@<TRIPOS>SUBSTRUCTURE
     1 YH4         1

