### 
### Created by X-TOOL on Mon Sep 10 21:13:17 2018
### 

@<TRIPOS>MOLECULE
4m5m_ligand
   17    18     1     0     0
SMALL
GAST_HUCK


@<TRIPOS>ATOM
      1 C4         75.0730    9.0070   66.4160 C.2       1 DX4         0.2456
      2 C5         75.6770    8.1250   67.4270 C.2       1 DX4         0.2636
      3 C6         74.9870    6.8580   67.7480 C.2       1 DX4         0.2020
      4 C8         76.9310    9.8820   67.1510 C.2       1 DX4         0.1555
      5 N1         73.8400    6.6510   67.0670 N.am      1 DX4        -0.2537
      6 N2         72.1640    7.1750   65.5280 N.pl3     1 DX4        -0.3332
      7 N3         73.9170    8.6700   65.8170 N.pl3     1 DX4        -0.2263
      8 C2         73.3270    7.5040   66.1480 C.cat     1 DX4         0.2010
      9 N9         75.8890   10.0540   66.2980 N.2       1 DX4        -0.2035
     10 N7         76.8150    8.7240   67.8430 N.pl3     1 DX4        -0.1851
     11 S6         75.5710    5.8250   68.8400 S.2       1 DX4        -0.0794
     12 H          77.7547   10.5853   67.2642 H         1 DX4         0.1680
     13 H          73.3336    5.8092   67.2539 H         1 DX4         0.1966
     14 H          71.7571    7.8096   64.8262 H         1 DX4         0.1764
     15 H          71.6891    6.2909   65.7597 H         1 DX4         0.1764
     16 H          73.4894    9.2927   65.1167 H         1 DX4         0.2361
     17 H          77.4705    8.3668   68.5527 H         1 DX4         0.2601
@<TRIPOS>BOND
     1    1    2 2  
     2    1    7 1  
     3    1    9 1  
     4    2    3 1  
     5    2   10 1  
     6    3    5 am 
     7    3   11 2  
     8    9    4 2  
     9    4   10 1  
    10    5    8 ar 
    11    8    6 ar 
    12    7    8 ar 
    13    4   12 1  
    14    5   13 1  
    15    6   14 1  
    16    6   15 1  
    17    7   16 1  
    18   10   17 1  
@<TRIPOS>SUBSTRUCTURE
     1 DX4         1

