### 
### Created by X-TOOL on Mon Sep 10 21:13:16 2018
### 

@<TRIPOS>MOLECULE
4m5n_ligand
   17    18     1     0     0
SMALL
GAST_HUCK


@<TRIPOS>ATOM
      1 C01        44.5010  -15.6910   -8.3400 C.2       1 YH7         0.1111
      2 C02        43.4460  -16.0060   -7.5430 C.2       1 YH7         0.1862
      3 N03        42.1390  -16.3300   -8.1340 N.am      1 YH7        -0.2117
      4 C04        41.9830  -16.2990   -9.5570 C.2       1 YH7         0.1689
      5 N05        43.0730  -15.9640  -10.3950 N.am      1 YH7        -0.2104
      6 C06        44.3240  -15.6640   -9.8340 C.cat     1 YH7         0.2721
      7 N07        45.5720  -15.4430   -7.5280 N.2       1 YH7        -0.3421
      8 C08        45.1740  -15.6130   -6.2350 C.2       1 YH7         0.0815
      9 N09        43.8540  -15.9560   -6.2390 N.pl3     1 YH7        -0.2425
     10 N10        45.4010  -15.3370  -10.7090 N.pl3     1 YH7        -0.2227
     11 S11        40.5210  -16.6420  -10.2270 S.2       1 YH7        -0.2978
     12 H          41.3657  -16.5699   -7.5471 H         1 YH7         0.2373
     13 H          42.9518  -15.9410  -11.3874 H         1 YH7         0.2052
     14 H          45.8011  -15.4953   -5.3525 H         1 YH7         0.1088
     15 H          43.2709  -16.1432   -5.4108 H         1 YH7         0.2364
     16 H          46.3290  -15.1130  -10.3222 H         1 YH7         0.4598
     17 H          45.2512  -15.3248  -11.7280 H         1 YH7         0.4598
@<TRIPOS>BOND
     1    1    2 2  
     2    1    6 1  
     3    1    7 1  
     4    2    3 1  
     5    2    9 1  
     6    3    4 am 
     7    4    5 am 
     8    4   11 2  
     9    5    6 ar 
    10    6   10 ar 
    11    7    8 2  
    12    8    9 1  
    13    3   12 1  
    14    5   13 1  
    15    8   14 1  
    16    9   15 1  
    17   10   16 1  
    18   10   17 1  
@<TRIPOS>SUBSTRUCTURE
     1 YH7         1

