### 
### Created by X-TOOL on Mon Sep 10 21:13:13 2018
### 

@<TRIPOS>MOLECULE
4m5o_ligand
   23    24     1     0     0
SMALL
GAST_HUCK


@<TRIPOS>ATOM
      1 O          10.0220   22.1940   -8.4190 O.2       1 X48        -0.3897
      2 C          10.2310   21.7550   -9.5390 C.2       1 X48         0.2000
      3 N          10.9020   22.5190  -10.4350 N.2       1 X48        -0.2675
      4 C4         11.1570   22.0500  -11.6930 C.2       1 X48         0.0485
      5 C3         10.7370   20.7760  -12.0760 C.2       1 X48        -0.0151
      6 C2         10.0460   20.0020  -11.1710 C.2       1 X48         0.0021
      7 C1          9.7910   20.4860   -9.9190 C.3       1 X48         0.1800
      8 O1          9.0960   19.7140   -8.9910 O.3       1 X48        -0.3517
      9 C5         11.9390   22.9560  -12.6160 C.ar      1 X48         0.0150
     10 C10        12.9830   23.7050  -12.0680 C.ar      1 X48        -0.0420
     11 C9         13.7220   24.5480  -12.8810 C.ar      1 X48        -0.0532
     12 C8         13.4180   24.6310  -14.2380 C.ar      1 X48        -0.0547
     13 C7         12.3820   23.8850  -14.7880 C.ar      1 X48        -0.0532
     14 C6         11.6350   23.0430  -13.9740 C.ar      1 X48        -0.0420
     15 H1         10.9523   20.3997  -13.0750 H         1 X48         0.0549
     16 H2          9.7038   19.0071  -11.4522 H         1 X48         0.1047
     17 H3          8.8450   20.9161  -10.2798 H         1 X48         0.1114
     18 H4          8.2342   19.5085   -9.3338 H         1 X48         0.2189
     19 H5         13.2135   23.6268  -11.0117 H         1 X48         0.0692
     20 H6         14.5303   25.1384  -12.4649 H         1 X48         0.0637
     21 H7         13.9987   25.2880  -14.8753 H         1 X48         0.0677
     22 H8         12.1583   23.9599  -15.8460 H         1 X48         0.0637
     23 H9         10.8228   22.4586  -14.3909 H         1 X48         0.0692
@<TRIPOS>BOND
     1    1    2 2  
     2    2    3 1  
     3    2    7 1  
     4    3    4 2  
     5    4    5 1  
     6    4    9 1  
     7    5    6 2  
     8    6    7 1  
     9    7    8 1  
    10    9   10 ar 
    11    9   14 ar 
    12   10   11 ar 
    13   11   12 ar 
    14   12   13 ar 
    15   13   14 ar 
    16    5   15 1  
    17    6   16 1  
    18    7   17 1  
    19    8   18 1  
    20   10   19 1  
    21   11   20 1  
    22   12   21 1  
    23   13   22 1  
    24   14   23 1  
@<TRIPOS>SUBSTRUCTURE
     1 X48         1

