### 
### Created by X-TOOL on Mon Sep 10 21:13:12 2018
### 

@<TRIPOS>MOLECULE
4m5r_ligand
   20    21     1     0     0
SMALL
GAST_HUCK


@<TRIPOS>ATOM
      1 C12        10.6920   12.7120  -16.7180 C.ar      1 MSR        -0.0345
      2 C13        10.5550   11.7610  -17.7120 C.ar      1 MSR        -0.0365
      3 C14        11.2850   10.5840  -17.6450 C.ar      1 MSR         0.0813
      4 O17        11.1420    9.6390  -18.6380 O.3       1 MSR        -0.3372
      5 C15        12.1530   10.3590  -16.5860 C.ar      1 MSR        -0.0365
      6 C16        12.2990   11.3220  -15.5970 C.ar      1 MSR        -0.0345
      7 C11        11.5650   12.4950  -15.6470 C.ar      1 MSR         0.0888
      8 N3         11.6980   13.4420  -14.6770 N.pl3     1 MSR        -0.2163
      9 C4         12.8680   13.9190  -14.2150 C.2       1 MSR         0.0483
     10 C5         12.5760   14.8710  -13.2480 C.2       1 MSR        -0.0217
     11 NFE        11.2340   14.9500  -13.1560 N.2       1 MSR        -0.3287
     12 C2         10.6990   14.0670  -14.0240 C.2       1 MSR         0.1096
     13 H1         10.1196   13.6311  -16.7689 H         1 MSR         0.0562
     14 H2          9.8789   11.9349  -18.5413 H         1 MSR         0.0528
     15 H3         11.7039    8.8964  -18.4502 H         1 MSR         0.2461
     16 H4         12.7154    9.4339  -16.5312 H         1 MSR         0.0528
     17 H5         12.9920   11.1547  -14.7804 H         1 MSR         0.0562
     18 H6         13.8617   13.6142  -14.5400 H         1 MSR         0.0866
     19 H7         13.2976   15.4472  -12.6708 H         1 MSR         0.0449
     20 H8          9.6350   13.8887  -14.1725 H         1 MSR         0.1224
@<TRIPOS>BOND
     1    1    2 ar 
     2    1    7 ar 
     3    2    3 ar 
     4    3    4 1  
     5    3    5 ar 
     6    5    6 ar 
     7    6    7 ar 
     8    7    8 1  
     9    8    9 1  
    10    8   12 1  
    11    9   10 2  
    12   10   11 1  
    13   11   12 2  
    14    1   13 1  
    15    2   14 1  
    16    4   15 1  
    17    5   16 1  
    18    6   17 1  
    19    9   18 1  
    20   10   19 1  
    21   12   20 1  
@<TRIPOS>SUBSTRUCTURE
     1 MSR         1

