### 
### Created by X-TOOL on Mon Sep 10 21:13:13 2018
### 

@<TRIPOS>MOLECULE
4m5u_ligand
   38    41     1     0     0
SMALL
GAST_HUCK


@<TRIPOS>ATOM
      1 O01         9.8500   22.3000   -8.0690 O.2       1 20F        -0.4062
      2 C02        10.0350   21.7680   -9.1760 C.2       1 20F         0.2440
      3 C03         9.6830   20.4280   -9.5380 C.2       1 20F         0.1514
      4 O04         9.0970   19.6660   -8.5810 O.3       1 20F        -0.3328
      5 C05         9.9560   19.9860  -10.8000 C.2       1 20F        -0.0362
      6 C06        10.5700   20.7680  -11.8210 C.2       1 20F        -0.0056
      7 C07        10.8000   20.1140  -13.1620 C.ar      1 20F        -0.0396
      8 C08        11.3750   18.8300  -13.2640 C.ar      1 20F        -0.0646
      9 C09        11.6140   18.1670  -14.4650 C.ar      1 20F        -0.0338
     10 C10        11.2790   18.7820  -15.6710 C.ar      1 20F         0.1266
     11 C11        10.7080   20.0550  -15.6410 C.ar      1 20F        -0.0338
     12 C12        10.4790   20.6880  -14.4140 C.ar      1 20F        -0.0646
     13 F13        11.5000   18.1690  -16.8170 F         1 20F        -0.1877
     14 C14        10.9230   22.0770  -11.4990 C.2       1 20F         0.0959
     15 C15        11.5840   23.1070  -12.3850 C.ar      1 20F         0.0146
     16 C16        12.9400   23.0450  -12.7370 C.ar      1 20F        -0.0501
     17 C17        13.5800   24.0010  -13.5420 C.ar      1 20F        -0.0513
     18 C18        12.9130   25.1150  -14.0670 C.ar      1 20F         0.0093
     19 C19        11.5640   25.1980  -13.7120 C.ar      1 20F        -0.0513
     20 C20        10.9310   24.2360  -12.9090 C.ar      1 20F        -0.0501
     21 C21        13.5900   26.1310  -14.8960 C.2       1 20F         0.1485
     22 N22        14.8720   26.6260  -14.8430 N.2       1 20F        -0.1754
     23 N23        14.9940   27.5670  -15.8130 N.2       1 20F        -0.0516
     24 N24        13.8860   27.7240  -16.4720 N.pl3     1 20F        -0.1037
     25 N25        12.9690   26.8620  -15.9380 N.2       1 20F        -0.1439
     26 N26        10.6440   22.5370  -10.1880 N.am      1 20F        -0.2230
     27 H1          9.6843   19.5850   -7.8386 H         1 20F         0.2466
     28 H2          9.6847   18.9602  -11.0449 H         1 20F         0.0471
     29 H3         11.6495   18.3250  -12.3449 H         1 20F         0.0560
     30 H4         12.0581   17.1781  -14.4625 H         1 20F         0.0590
     31 H5         10.4423   20.5527  -16.5666 H         1 20F         0.0590
     32 H6         10.0300   21.6746  -14.4238 H         1 20F         0.0560
     33 H7         13.5271   22.2123  -12.3669 H         1 20F         0.0630
     34 H8         14.6327   23.8716  -13.7661 H         1 20F         0.0623
     35 H9         10.9826   26.0394  -14.0713 H         1 20F         0.0623
     36 H10         9.8801   24.3715  -12.6804 H         1 20F         0.0630
     37 H11        13.7274   28.3771  -17.2525 H         1 20F         0.2946
     38 H12        10.8983   23.4779   -9.9641 H         1 20F         0.2459
@<TRIPOS>BOND
     1    1    2 2  
     2    2    3 1  
     3    2   26 am 
     4    3    4 1  
     5    3    5 2  
     6    5    6 1  
     7    6    7 1  
     8    6   14 2  
     9    7    8 ar 
    10    7   12 ar 
    11    8    9 ar 
    12    9   10 ar 
    13   10   11 ar 
    14   10   13 1  
    15   11   12 ar 
    16   14   15 1  
    17   14   26 1  
    18   15   16 ar 
    19   15   20 ar 
    20   16   17 ar 
    21   17   18 ar 
    22   18   19 ar 
    23   18   21 1  
    24   19   20 ar 
    25   21   22 1  
    26   21   25 2  
    27   22   23 2  
    28   23   24 1  
    29   24   25 1  
    30    4   27 1  
    31    5   28 1  
    32    8   29 1  
    33    9   30 1  
    34   11   31 1  
    35   12   32 1  
    36   16   33 1  
    37   17   34 1  
    38   19   35 1  
    39   20   36 1  
    40   24   37 1  
    41   26   38 1  
@<TRIPOS>SUBSTRUCTURE
     1 20F         1

