### 
### Created by X-TOOL on Mon Sep 10 21:13:14 2018
### 

@<TRIPOS>MOLECULE
4m6p_ligand
   44    47     1     0     0
SMALL
GAST_HUCK


@<TRIPOS>ATOM
      1 C1         17.6850    3.5980   -3.8450 C.ar      1 20R        -0.0616
      2 C2         17.5010    3.3580   -2.4850 C.ar      1 20R        -0.0600
      3 C3         16.4510    3.9610   -1.8100 C.ar      1 20R        -0.0365
      4 C4         15.5700    4.7930   -2.4980 C.ar      1 20R         0.0927
      5 C5         15.7430    5.0070   -3.8670 C.ar      1 20R        -0.0365
      6 C6         16.8090    4.4040   -4.5560 C.ar      1 20R        -0.0600
      7 S7         14.2320    5.5040   -1.5650 S.o2      1 20R         0.0221
      8 O8         13.7730    4.4110   -0.7400 O.2       1 20R        -0.1652
      9 O9         13.2850    6.0960   -2.4500 O.2       1 20R        -0.1652
     10 C10        15.0480    6.6720   -0.5330 C.ar      1 20R         0.0866
     11 C11        15.4620    7.8900   -1.0040 C.ar      1 20R        -0.0433
     12 C12        16.1410    8.7690   -0.1970 C.ar      1 20R        -0.0566
     13 C13        16.4220    8.4250    1.0980 C.ar      1 20R        -0.0209
     14 C14        16.0390    7.2050    1.5630 C.ar      1 20R        -0.0566
     15 C15        15.3410    6.3350    0.7620 C.ar      1 20R        -0.0433
     16 C16        17.2320    9.3510    1.9690 C.3       1 20R         0.0639
     17 N17        16.7410    9.5340    3.3570 N.am      1 20R        -0.2753
     18 C18        15.6900   10.3260    3.4400 C.2       1 20R         0.2069
     19 O19        15.1650   10.7910    2.4160 O.2       1 20R        -0.3865
     20 C20        15.1110   10.5780    4.7700 C.ar      1 20R         0.0678
     21 C21        15.6610   10.0220    5.9260 C.ar      1 20R        -0.0240
     22 C22        15.0360   10.3260    7.1380 C.ar      1 20R         0.0422
     23 C23        15.2440    9.9510    8.5180 C.2       1 20R         0.0317
     24 N24        14.2960   10.5130    9.2100 N.2       1 20R        -0.1976
     25 N25        13.4960   11.3300    8.4160 N.pl3     1 20R        -0.1954
     26 C27        13.9110   11.1850    7.1290 C.ar      1 20R         0.1627
     27 N28        13.4600   11.6970    6.0080 N.ar      1 20R        -0.2719
     28 C29        14.0110   11.4050    4.8480 C.ar      1 20R         0.0201
     29 H1         18.5277    3.1468   -4.3562 H         1 20R         0.0618
     30 H2         18.1792    2.6995   -1.9544 H         1 20R         0.0618
     31 H3         16.3155    3.7856   -0.7489 H         1 20R         0.0637
     32 H4         15.0488    5.6440   -4.4030 H         1 20R         0.0637
     33 H5         16.9434    4.5653   -5.6195 H         1 20R         0.0618
     34 H6         15.2499    8.1643   -2.0310 H         1 20R         0.0618
     35 H7         16.4536    9.7322   -0.5839 H         1 20R         0.0558
     36 H8         16.2878    6.9164    2.5778 H         1 20R         0.0558
     37 H9         15.0205    5.3774    1.1562 H         1 20R         0.0618
     38 H10        17.2492   10.3388    1.4852 H         1 20R         0.0683
     39 H11        18.2555    8.9517    2.0241 H         1 20R         0.0683
     40 H12        17.1653    9.0995    4.1514 H         1 20R         0.1870
     41 H13        16.5351    9.3821    5.8852 H         1 20R         0.0788
     42 H14        16.0418    9.3188    8.9050 H         1 20R         0.0742
     43 H15        12.7291   11.9345    8.7437 H         1 20R         0.2505
     44 H16        13.5924   11.8221    3.9392 H         1 20R         0.0846
@<TRIPOS>BOND
     1    1    2 ar 
     2    1    6 ar 
     3    2    3 ar 
     4    3    4 ar 
     5    4    5 ar 
     6    4    7 1  
     7    5    6 ar 
     8    7    8 2  
     9    7    9 2  
    10    7   10 1  
    11   10   11 ar 
    12   10   15 ar 
    13   11   12 ar 
    14   12   13 ar 
    15   13   14 ar 
    16   13   16 1  
    17   14   15 ar 
    18   16   17 1  
    19   17   18 am 
    20   18   19 2  
    21   18   20 1  
    22   20   21 ar 
    23   20   28 ar 
    24   21   22 ar 
    25   22   23 1  
    26   22   26 ar 
    27   23   24 2  
    28   24   25 1  
    29   25   26 1  
    30   26   27 ar 
    31   27   28 ar 
    32    1   29 1  
    33    2   30 1  
    34    3   31 1  
    35    5   32 1  
    36    6   33 1  
    37   11   34 1  
    38   12   35 1  
    39   14   36 1  
    40   15   37 1  
    41   16   38 1  
    42   16   39 1  
    43   17   40 1  
    44   21   41 1  
    45   23   42 1  
    46   25   43 1  
    47   28   44 1  
@<TRIPOS>SUBSTRUCTURE
     1 20R         1

