### 
### Created by X-TOOL on Mon Sep 10 21:13:16 2018
### 

@<TRIPOS>MOLECULE
4m6u_ligand
   10     9     1     0     0
SMALL
GAST_HUCK


@<TRIPOS>ATOM
      1 C1        -22.6240   19.1650  -23.5560 C.2       1 TTN         0.0775
      2 C2        -21.9340   20.1990  -24.3950 C.3       1 TTN         0.1596
      3 C3        -22.8200   21.3890  -24.6170 C.2       1 TTN         0.0775
      4 O1        -23.5230   19.5360  -22.7710 O.co2     1 TTN        -0.5646
      5 O2        -22.2730   17.9710  -23.6740 O.co2     1 TTN        -0.5646
      6 O3        -20.7290   20.6160  -23.7430 O.3       1 TTN        -0.3644
      7 O4        -23.2130   22.0340  -23.6220 O.co2     1 TTN        -0.5646
      8 O5        -23.1310   21.6900  -25.7900 O.co2     1 TTN        -0.5646
      9 H         -21.6824   19.7560  -25.3699 H         1 TTN         0.0934
     10 H         -20.1687   19.8617  -23.6029 H         1 TTN         0.2147
@<TRIPOS>BOND
     1    1    2 1  
     2    1    4 ar 
     3    1    5 ar 
     4    2    3 1  
     5    2    6 1  
     6    3    7 ar 
     7    3    8 ar 
     8    2    9 1  
     9    6   10 1  
@<TRIPOS>SUBSTRUCTURE
     1 TTN         1

