### 
### Created by X-TOOL on Mon Sep 10 21:13:17 2018
### 

@<TRIPOS>MOLECULE
4m7b_ligand
   36    38     1     0     0
SMALL
GAST_HUCK


@<TRIPOS>ATOM
      1 CAA         4.0460   14.6180  -13.2230 C.3       1 28C         0.0119
      2 CAP         5.0300   13.5780  -13.5160 C.ar      1 28C         0.1304
      3 CAH         5.5570   12.7870  -12.4800 C.ar      1 28C         0.1060
      4 NAM         5.3980   13.3180  -14.7800 N.ar      1 28C        -0.1511
      5 NAT         6.2390   12.4050  -15.0480 N.ar      1 28C        -0.1830
      6 CAG         6.7450   12.0830  -16.2430 C.2       1 28C         0.1196
      7 NAK         7.6020   11.0620  -16.0260 N.2       1 28C        -0.1629
      8 NAL         7.6150   10.7930  -14.7850 N.pl3     1 28C        -0.1645
      9 CAS         6.7900   11.5950  -14.1140 C.ar      1 28C         0.2760
     10 CAR         6.4810   11.7950  -12.8140 C.ar      1 28C         0.2295
     11 NAN         6.9860   11.0120  -11.8530 N.pl3     1 28C        -0.2546
     12 CAI         6.6470   11.1120  -10.4100 C.3       1 28C         0.0572
     13 CAJ         7.4840   10.1650   -9.4850 C.3       1 28C         0.0009
     14 CAQ         7.1510   10.3860   -8.1070 C.ar      1 28C        -0.0513
     15 CAE         7.9910   11.1730   -7.3170 C.ar      1 28C        -0.0687
     16 CAC         7.7210   11.4510   -5.9800 C.ar      1 28C        -0.0398
     17 CAO         6.5560   10.9900   -5.4230 C.ar      1 28C         0.0805
     18 OAB         6.3490   11.2870   -4.1230 O.3       1 28C        -0.3376
     19 CAD         5.6760   10.2120   -6.1710 C.ar      1 28C        -0.0398
     20 CAF         5.9630    9.9080   -7.5260 C.ar      1 28C        -0.0687
     21 H           3.8837   14.6735  -12.1365 H         1 28C         0.0487
     22 H           3.0968   14.3762  -13.7236 H         1 28C         0.0487
     23 H           4.4168   15.5870  -13.5883 H         1 28C         0.0487
     24 H           5.2544   12.9429  -11.4508 H         1 28C         0.1296
     25 H           6.5128   12.5501  -17.1990 H         1 28C         0.1026
     26 H           7.6600   10.2859  -12.1350 H         1 28C         0.2221
     27 H           5.5830   10.8610  -10.2877 H         1 28C         0.0603
     28 H           6.8186   12.1493  -10.0867 H         1 28C         0.0603
     29 H           8.5550   10.3659   -9.6353 H         1 28C         0.0430
     30 H           7.2669    9.1188   -9.7466 H         1 28C         0.0430
     31 H           8.8896   11.5841   -7.7627 H         1 28C         0.0530
     32 H           8.4233   12.0250   -5.3864 H         1 28C         0.0525
     33 H           5.5179   10.9208   -3.8441 H         1 28C         0.2458
     34 H           4.7669    9.8368   -5.7151 H         1 28C         0.0525
     35 H           5.2715    9.3113   -8.1098 H         1 28C         0.0530
     36 H1          8.1875   10.0529  -14.3545 H         1 28C         0.2459
@<TRIPOS>BOND
     1    1    2 1  
     2    2    3 ar 
     3    2    4 ar 
     4    3   10 ar 
     5    4    5 ar 
     6    5    6 1  
     7    5    9 ar 
     8    6    7 2  
     9    7    8 1  
    10    8    9 1  
    11    9   10 ar 
    12   10   11 1  
    13   11   12 1  
    14   12   13 1  
    15   13   14 1  
    16   14   15 ar 
    17   14   20 ar 
    18   15   16 ar 
    19   16   17 ar 
    20   17   18 1  
    21   17   19 ar 
    22   19   20 ar 
    23    1   21 1  
    24    1   22 1  
    25    1   23 1  
    26    3   24 1  
    27    6   25 1  
    28   11   26 1  
    29   12   27 1  
    30   12   28 1  
    31   13   29 1  
    32   13   30 1  
    33   15   31 1  
    34   16   32 1  
    35   18   33 1  
    36   19   34 1  
    37   20   35 1  
    38    8   36 1  
@<TRIPOS>SUBSTRUCTURE
     1 28C         1

