### 
### Created by X-TOOL on Mon Sep 10 21:13:19 2018
### 

@<TRIPOS>MOLECULE
4m7j_ligand
   88    90     1     0     0
SMALL
GAST_HUCK


@<TRIPOS>ATOM
      1 C1          0.3160   44.5900  -17.2110 C.2       1 KDA         0.1043
      2 O1A         0.2270   45.5790  -16.4390 O.co2     1 KDA        -0.5426
      3 O1B         1.1680   43.6740  -17.1190 O.co2     1 KDA        -0.5426
      4 C2         -0.7630   44.4400  -18.3220 C.3       1 KDA         0.2225
      5 C3         -1.7200   43.2990  -17.9070 C.3       1 KDA         0.0360
      6 C4         -2.9310   43.2490  -18.8160 C.3       1 KDA         0.0937
      7 O4         -3.8930   42.2380  -18.3570 O.3       1 KDA        -0.3407
      8 C5         -3.5870   44.6030  -18.8250 C.3       1 KDA         0.1098
      9 O5         -3.9270   44.9900  -17.4940 O.3       1 KDA        -0.3866
     10 C6         -2.5780   45.6460  -19.3620 C.3       1 KDA         0.1170
     11 O6         -1.4630   45.6770  -18.4600 O.3       1 KDA        -0.3380
     12 C7         -3.2180   47.0450  -19.4000 C.3       1 KDA         0.1067
     13 O7         -4.3060   47.0680  -20.3410 O.3       1 KDA        -0.3869
     14 C8         -2.1830   48.0950  -19.7970 C.3       1 KDA         0.0727
     15 O8         -2.9050   49.3460  -19.7010 O.3       1 KDA        -0.3924
     16 O2         -0.1820   44.0840  -19.5780 O.3       1 KDA        -0.3323
     17 C9          0.6740   45.0690  -20.1760 C.3       1 KDA         0.0783
     18 C10         2.1240   44.7130  -19.8740 C.2       1 KDA        -0.0639
     19 C11         2.9430   45.6470  -19.4020 C.2       1 KDA        -0.1153
     20 C1         -4.5590   41.7050  -20.6390 C.2       1 KDO         0.1041
     21 O1A        -5.4460   42.5940  -20.6780 O.co2     1 KDO        -0.5426
     22 O1B        -3.9360   41.2480  -21.6150 O.co2     1 KDO        -0.5426
     23 C2         -4.1400   41.1480  -19.2540 C.3       1 KDO         0.2207
     24 C3         -5.3110   40.3040  -18.7150 C.3       1 KDO         0.0356
     25 C4         -4.9230   39.5100  -17.4540 C.3       1 KDO         0.0880
     26 O4         -6.0110   38.6720  -17.0130 O.3       1 KDO        -0.3891
     27 C5         -3.6790   38.6780  -17.7010 C.3       1 KDO         0.1096
     28 O5         -3.9200   37.6190  -18.6310 O.3       1 KDO        -0.3866
     29 C6         -2.5550   39.6240  -18.2090 C.3       1 KDO         0.1170
     30 O6         -2.9490   40.2780  -19.4260 O.3       1 KDO        -0.3381
     31 C7         -1.2330   38.9270  -18.5610 C.3       1 KDO         0.1069
     32 O7         -1.3330   38.2810  -19.8230 O.3       1 KDO        -0.3869
     33 C8         -0.7860   37.9220  -17.5310 C.3       1 KDO         0.0783
     34 O8          0.6160   37.7460  -17.7010 O.3       1 KDO        -0.3441
     35 C1          0.7290   36.2000  -15.8280 C.2       1 KDO         0.1041
     36 O1A         1.0450   37.0990  -15.0030 O.co2     1 KDO        -0.5426
     37 O1B         0.2010   35.0970  -15.5370 O.co2     1 KDO        -0.5426
     38 C2          1.0920   36.4480  -17.3100 C.3       1 KDO         0.2205
     39 C3          2.6010   36.4420  -17.4010 C.3       1 KDO         0.0356
     40 C4          3.0430   36.5700  -18.8440 C.3       1 KDO         0.0880
     41 O4          4.5240   36.4880  -18.8960 O.3       1 KDO        -0.3891
     42 C5          2.4280   35.4450  -19.6800 C.3       1 KDO         0.1096
     43 O5          2.9480   34.2040  -19.2270 O.3       1 KDO        -0.3866
     44 C6          0.9260   35.5240  -19.5570 C.3       1 KDO         0.1170
     45 O6          0.5440   35.4120  -18.1560 O.3       1 KDO        -0.3381
     46 C7          0.1330   34.5000  -20.4380 C.3       1 KDO         0.1067
     47 O7          0.8700   34.0730  -21.5660 O.3       1 KDO        -0.3869
     48 C8         -1.0570   35.1930  -21.0540 C.3       1 KDO         0.0727
     49 O8         -1.9900   35.2440  -20.0580 O.3       1 KDO        -0.3924
     50 H          -2.0535   43.4675  -16.8724 H         1 KDA         0.0336
     51 H          -1.1845   42.3401  -17.9681 H         1 KDA         0.0336
     52 H          -2.6053   42.9947  -19.8354 H         1 KDA         0.0623
     53 H          -4.4876   44.5787  -19.4562 H         1 KDA         0.0646
     54 H          -3.1387   45.0277  -16.9652 H         1 KDA         0.2100
     55 H          -2.2455   45.3616  -20.3712 H         1 KDA         0.0649
     56 H          -3.6049   47.2852  -18.3987 H         1 KDA         0.0643
     57 H          -4.6925   47.9357  -20.3554 H         1 KDA         0.2100
     58 H          -1.8273   47.9258  -20.8241 H         1 KDA         0.0584
     59 H          -1.3273   48.0826  -19.1059 H         1 KDA         0.0584
     60 H          -3.6462   49.3290  -20.2951 H         1 KDA         0.2095
     61 H           0.4430   46.0605  -19.7594 H         1 KDA         0.0740
     62 H           0.5165   45.0829  -21.2646 H         1 KDA         0.0740
     63 H           2.4868   43.7003  -20.0437 H         1 KDA         0.0695
     64 H           3.9811   45.4010  -19.1834 H         1 KDA         0.0290
     65 H           2.5761   46.6584  -19.2338 H         1 KDA         0.0290
     66 H          -5.6268   39.5966  -19.4959 H         1 KDA         0.0336
     67 H          -6.1471   40.9748  -18.4680 H         1 KDA         0.0336
     68 H          -4.7000   40.2304  -16.6532 H         1 KDA         0.0621
     69 H          -6.7649   39.2137  -16.8117 H         1 KDA         0.2099
     70 H          -3.3612   38.2295  -16.7482 H         1 KDA         0.0646
     71 H          -4.2022   37.9857  -19.4606 H         1 KDA         0.2100
     72 H          -2.3674   40.3734  -17.4259 H         1 KDA         0.0649
     73 H          -0.4579   39.7045  -18.6294 H         1 KDA         0.0643
     74 H          -1.5311   38.9253  -20.4925 H         1 KDA         0.2100
     75 H          -1.3079   36.9660  -17.6849 H         1 KDA         0.0586
     76 H          -0.9994   38.2977  -16.5194 H         1 KDA         0.0586
     77 H           2.9855   35.4984  -16.9865 H         1 KDA         0.0336
     78 H           3.0024   37.2871  -16.8226 H         1 KDA         0.0336
     79 H           2.7145   37.5405  -19.2442 H         1 KDA         0.0621
     80 H           4.8130   36.5672  -19.7976 H         1 KDA         0.2099
     81 H           2.7039   35.5787  -20.7364 H         1 KDA         0.0646
     82 H           3.8926   34.2020  -19.3278 H         1 KDA         0.2100
     83 H           0.6319   36.5261  -19.9023 H         1 KDA         0.0649
     84 H          -0.1733   33.6416  -19.8222 H         1 KDA         0.0643
     85 H           1.6721   33.6531  -21.2784 H         1 KDA         0.2100
     86 H          -1.4378   34.6189  -21.9115 H         1 KDA         0.0584
     87 H          -0.7865   36.2072  -21.3828 H         1 KDA         0.0584
     88 H          -2.2029   34.3610  -19.7796 H         1 KDA         0.2095
@<TRIPOS>BOND
     1    1    2 ar 
     2    1    3 ar 
     3    4    1 1  
     4    5    4 1  
     5    4   11 1  
     6    4   16 1  
     7    6    5 1  
     8    7    6 1  
     9    6    8 1  
    10   23    7 1  
    11    8    9 1  
    12    8   10 1  
    13   10   11 1  
    14   10   12 1  
    15   12   13 1  
    16   12   14 1  
    17   14   15 1  
    18   16   17 1  
    19   17   18 1  
    20   18   19 2  
    21   20   21 ar 
    22   20   22 ar 
    23   23   20 1  
    24   23   24 1  
    25   30   23 1  
    26   25   24 1  
    27   25   26 1  
    28   27   25 1  
    29   27   28 1  
    30   29   27 1  
    31   29   30 1  
    32   31   29 1  
    33   31   32 1  
    34   33   31 1  
    35   34   33 1  
    36   38   34 1  
    37   35   36 ar 
    38   35   37 ar 
    39   35   38 1  
    40   38   39 1  
    41   38   45 1  
    42   39   40 1  
    43   40   41 1  
    44   40   42 1  
    45   42   43 1  
    46   42   44 1  
    47   44   45 1  
    48   44   46 1  
    49   46   47 1  
    50   46   48 1  
    51   48   49 1  
    52    5   50 1  
    53    5   51 1  
    54    6   52 1  
    55    8   53 1  
    56    9   54 1  
    57   10   55 1  
    58   12   56 1  
    59   13   57 1  
    60   14   58 1  
    61   14   59 1  
    62   15   60 1  
    63   17   61 1  
    64   17   62 1  
    65   18   63 1  
    66   19   64 1  
    67   19   65 1  
    68   24   66 1  
    69   24   67 1  
    70   25   68 1  
    71   26   69 1  
    72   27   70 1  
    73   28   71 1  
    74   29   72 1  
    75   31   73 1  
    76   32   74 1  
    77   33   75 1  
    78   33   76 1  
    79   39   77 1  
    80   39   78 1  
    81   40   79 1  
    82   41   80 1  
    83   42   81 1  
    84   43   82 1  
    85   44   83 1  
    86   46   84 1  
    87   47   85 1  
    88   48   86 1  
    89   48   87 1  
    90   49   88 1  
@<TRIPOS>SUBSTRUCTURE
     1 KDA         1

