### 
### Created by X-TOOL on Mon Sep 10 21:13:14 2018
### 

@<TRIPOS>MOLECULE
4m84_ligand
   42    44     1     0     0
SMALL
GAST_HUCK


@<TRIPOS>ATOM
      1 CAI        17.4570   16.2750   62.9320 C.ar      1 21E        -0.0261
      2 CAL        16.1470   16.4060   63.3790 C.ar      1 21E        -0.0352
      3 CAT        15.7140   15.6260   64.4370 C.ar      1 21E         0.0055
      4 CAJ        14.4160   15.7150   64.9160 C.ar      1 21E        -0.0468
      5 CAG        14.0250   14.9290   65.9880 C.ar      1 21E        -0.0565
      6 CAH        14.9020   14.0320   66.5820 C.ar      1 21E        -0.0566
      7 CAK        16.2000   13.9380   66.1090 C.ar      1 21E        -0.0406
      8 CAU        16.6140   14.7400   65.0390 C.ar      1 21E         0.0428
      9 NAM        17.8760   14.6510   64.5730 N.ar      1 21E        -0.2943
     10 CAQ        18.3280   15.3670   63.5370 C.ar      1 21E         0.0524
     11 CAR        19.6110   15.2560   63.1320 C.2       1 21E         0.0599
     12 NAN        20.3140   16.3540   62.7790 N.2       1 21E        -0.2145
     13 NAV        21.4830   16.0370   62.4470 N.pl3     1 21E        -0.1714
     14 CAW        22.5370   17.0590   62.0130 C.3       1 21E         0.0864
     15 CAB        23.3470   16.5370   60.8060 C.3       1 21E        -0.0304
     16 CAC        21.9160   18.4270   61.6370 C.3       1 21E        -0.0304
     17 CAA        23.4730   17.2900   63.2060 C.3       1 21E        -0.0304
     18 CAP        21.6000   14.6930   62.5950 C.2       1 21E         0.1841
     19 NAE        22.7300   14.0230   62.3290 N.pl3     1 21E        -0.3011
     20 CAS        20.4320   14.1810   63.0210 C.2       1 21E         0.0891
     21 CAO        20.2630   12.8430   63.2410 C.2       1 21E         0.1694
     22 OAF        21.1660   12.0410   62.9930 O.2       1 21E        -0.4108
     23 NAD        19.1020   12.3890   63.7250 N.am      1 21E        -0.3081
     24 H1         17.8055   16.8839   62.1056 H         1 21E         0.0695
     25 H2         15.4732   17.1103   62.9047 H         1 21E         0.0764
     26 H3         13.7105   16.3962   64.4541 H         1 21E         0.0652
     27 H4         13.0144   15.0163   66.3703 H         1 21E         0.0636
     28 H5         14.5741   13.4112   67.4079 H         1 21E         0.0650
     29 H6         16.8952   13.2437   66.5671 H         1 21E         0.0636
     30 H7         24.0958   17.2882   60.5145 H         1 21E         0.0263
     31 H8         22.6673   16.3499   59.9616 H         1 21E         0.0263
     32 H9         23.8548   15.6012   61.0823 H         1 21E         0.0263
     33 H10        22.7139   19.1210   61.3340 H         1 21E         0.0263
     34 H11        21.3824   18.8388   62.5063 H         1 21E         0.0263
     35 H12        21.2107   18.2929   60.8036 H         1 21E         0.0263
     36 H13        24.2461   18.0219   62.9291 H         1 21E         0.0263
     37 H14        23.9512   16.3399   63.4863 H         1 21E         0.0263
     38 H15        22.8930   17.6740   64.0581 H         1 21E         0.0263
     39 H16        22.7658   13.0018   62.4583 H         1 21E         0.1827
     40 H17        23.5626   14.5294   61.9953 H         1 21E         0.1827
     41 H18        18.9763   11.4102   63.8867 H         1 21E         0.1790
     42 H19        18.3596   13.0283   63.9252 H         1 21E         0.1790
@<TRIPOS>BOND
     1    1    2 ar 
     2    1   10 ar 
     3    2    3 ar 
     4    3    4 ar 
     5    3    8 ar 
     6    4    5 ar 
     7    5    6 ar 
     8    6    7 ar 
     9    7    8 ar 
    10    8    9 ar 
    11    9   10 ar 
    12   10   11 1  
    13   11   12 2  
    14   11   20 1  
    15   12   13 1  
    16   13   14 1  
    17   13   18 1  
    18   14   15 1  
    19   14   16 1  
    20   14   17 1  
    21   18   19 1  
    22   18   20 2  
    23   20   21 1  
    24   21   22 2  
    25   21   23 am 
    26    1   24 1  
    27    2   25 1  
    28    4   26 1  
    29    5   27 1  
    30    6   28 1  
    31    7   29 1  
    32   15   30 1  
    33   15   31 1  
    34   15   32 1  
    35   16   33 1  
    36   16   34 1  
    37   16   35 1  
    38   17   36 1  
    39   17   37 1  
    40   17   38 1  
    41   19   39 1  
    42   19   40 1  
    43   23   41 1  
    44   23   42 1  
@<TRIPOS>SUBSTRUCTURE
     1 21E         1

