### 
### Created by X-TOOL on Mon Sep 10 21:13:19 2018
### 

@<TRIPOS>MOLECULE
4m8e_ligand
   46    47     1     0     0
SMALL
GAST_HUCK


@<TRIPOS>ATOM
      1 C4'        64.8980   48.6700   35.0270 C.3       1 29V        -0.0511
      2 C1'        64.2420   49.3210   32.7020 C.3       1 29V        -0.0263
      3 C2'        64.0470   48.8560   31.2520 C.3       1 29V        -0.0078
      4 C8         65.4070   47.7090   29.4240 C.2       1 29V        -0.0472
      5 C5         65.9080   47.4650   33.0630 C.ar      1 29V        -0.0230
      6 C6         66.1380   47.3280   31.7100 C.ar      1 29V        -0.0001
      7 C4         66.8630   46.9600   33.9590 C.ar      1 29V        -0.0539
      8 C2         68.2370   46.2280   32.1220 C.ar      1 29V        -0.0634
      9 C18        64.6500   48.1590   33.6070 C.3       1 29V        -0.0035
     10 C3         68.0130   46.3500   33.4850 C.ar      1 29V        -0.0643
     11 C1         67.2860   46.7120   31.2200 C.ar      1 29V        -0.0533
     12 C7         65.1960   47.9660   30.7840 C.2       1 29V        -0.0226
     13 C9         64.5970   48.2580   28.3320 C.2       1 29V        -0.0493
     14 C19        65.3470   49.0570   27.2500 C.3       1 29V        -0.0277
     15 C10        63.2350   48.1260   28.1820 C.2       1 29V        -0.0686
     16 C11        62.2730   47.4180   29.0490 C.2       1 29V        -0.0799
     17 C12        60.9340   47.4980   28.6370 C.2       1 29V        -0.0729
     18 C13        59.8140   46.9090   29.3240 C.2       1 29V        -0.0649
     19 C20        60.0140   45.9030   30.4590 C.3       1 29V        -0.0334
     20 C14        58.5140   47.2600   28.8950 C.2       1 29V        -0.0583
     21 C15        57.3190   46.7280   29.5270 C.2       1 29V         0.0243
     22 O1         56.2740   47.4340   29.4810 O.co2     1 29V        -0.5758
     23 O2         57.3550   45.6010   30.0510 O.co2     1 29V        -0.5758
     24 H          63.9898   49.1638   35.4028 H         1 29V         0.0257
     25 H          65.7296   49.3899   35.0176 H         1 29V         0.0257
     26 H          65.1529   47.8238   35.6819 H         1 29V         0.0257
     27 H          63.2982   49.7486   33.0713 H         1 29V         0.0322
     28 H          65.0283   50.0897   32.7293 H         1 29V         0.0322
     29 H          63.9918   49.7394   30.5989 H         1 29V         0.0483
     30 H          63.1066   48.2895   31.1829 H         1 29V         0.0483
     31 H          66.2341   47.0527   29.1574 H         1 29V         0.0483
     32 H          66.7000   47.0477   35.0271 H         1 29V         0.0567
     33 H          69.1446   45.7599   31.7584 H         1 29V         0.0574
     34 H          63.8292   47.4272   33.6327 H         1 29V         0.0481
     35 H          68.7444   45.9645   34.1861 H         1 29V         0.0633
     36 H          67.4403   46.6091   30.1520 H         1 29V         0.0641
     37 H          64.6311   49.4117   26.4939 H         1 29V         0.0427
     38 H          66.0967   48.4105   26.7704 H         1 29V         0.0427
     39 H          65.8488   49.9195   27.7128 H         1 29V         0.0427
     40 H          62.8094   48.6098   27.3041 H         1 29V         0.0410
     41 H          62.5794   46.8743   29.9415 H         1 29V         0.0625
     42 H          60.7247   48.0510   27.7225 H         1 29V         0.0419
     43 H          59.0338   45.5814   30.8408 H         1 29V         0.0403
     44 H          60.5867   46.3751   31.2708 H         1 29V         0.0403
     45 H          60.5651   45.0291   30.0815 H         1 29V         0.0403
     46 H          58.4043   47.9530   28.0621 H         1 29V         0.0283
@<TRIPOS>BOND
     1    9    1 1  
     2    2    3 1  
     3    9    2 1  
     4    3   12 1  
     5   12    4 2  
     6    4   13 1  
     7    5    6 ar 
     8    5    7 ar 
     9    5    9 1  
    10    6   11 ar 
    11    6   12 1  
    12    7   10 ar 
    13   10    8 ar 
    14    8   11 ar 
    15   13   14 1  
    16   13   15 2  
    17   15   16 1  
    18   16   17 2  
    19   17   18 1  
    20   18   19 1  
    21   18   20 2  
    22   20   21 1  
    23   21   22 ar 
    24   21   23 ar 
    25    1   24 1  
    26    1   25 1  
    27    1   26 1  
    28    2   27 1  
    29    2   28 1  
    30    3   29 1  
    31    3   30 1  
    32    4   31 1  
    33    7   32 1  
    34    8   33 1  
    35    9   34 1  
    36   10   35 1  
    37   11   36 1  
    38   14   37 1  
    39   14   38 1  
    40   14   39 1  
    41   15   40 1  
    42   16   41 1  
    43   17   42 1  
    44   19   43 1  
    45   19   44 1  
    46   19   45 1  
    47   20   46 1  
@<TRIPOS>SUBSTRUCTURE
     1 29V         1

