### 
### Created by X-TOOL on Mon Sep 10 21:13:20 2018
### 

@<TRIPOS>MOLECULE
4m8h_ligand
   46    47     1     0     0
SMALL
GAST_HUCK


@<TRIPOS>ATOM
      1 C2'        63.5870   48.4850   31.4060 C.3       1 R4M        -0.0078
      2 C1'        63.4680   48.2890   32.9220 C.3       1 R4M        -0.0263
      3 C18        64.8330   48.1800   33.6030 C.3       1 R4M        -0.0035
      4 C4'        64.6770   47.8940   35.0960 C.3       1 R4M        -0.0511
      5 C5         65.7070   47.1240   32.9380 C.ar      1 R4M        -0.0230
      6 C4         66.7430   46.5420   33.6640 C.ar      1 R4M        -0.0539
      7 C3         67.5710   45.5920   33.0910 C.ar      1 R4M        -0.0643
      8 C2         67.3780   45.2070   31.7680 C.ar      1 R4M        -0.0634
      9 C1         66.3580   45.7900   31.0290 C.ar      1 R4M        -0.0533
     10 C6         65.5410   46.7410   31.6240 C.ar      1 R4M        -0.0001
     11 C7         64.5960   47.5080   30.8040 C.2       1 R4M        -0.0226
     12 C8         64.6710   47.2950   29.4330 C.2       1 R4M        -0.0472
     13 C9         63.8400   47.9750   28.4200 C.2       1 R4M        -0.0493
     14 C19        64.5500   48.9130   27.4340 C.3       1 R4M        -0.0277
     15 C10        62.4630   47.8470   28.3090 C.2       1 R4M        -0.0686
     16 C11        61.5720   47.0270   29.1410 C.2       1 R4M        -0.0799
     17 C12        60.2240   47.1750   28.8130 C.2       1 R4M        -0.0729
     18 C13        59.1110   46.5020   29.4810 C.2       1 R4M        -0.0649
     19 C20        59.3660   45.3650   30.4840 C.3       1 R4M        -0.0334
     20 C14        57.8310   46.9460   29.1540 C.2       1 R4M        -0.0583
     21 C15        56.6310   46.3560   29.7640 C.2       1 R4M         0.0243
     22 O1         55.6140   47.0750   29.8070 O.co2     1 R4M        -0.5758
     23 O2         56.6890   45.1890   30.2220 O.co2     1 R4M        -0.5758
     24 H          63.9170   49.5142   31.2013 H         1 R4M         0.0483
     25 H          62.6034   48.3165   30.9434 H         1 R4M         0.0483
     26 H          62.9015   47.3662   33.1158 H         1 R4M         0.0322
     27 H          62.9278   49.1472   33.3482 H         1 R4M         0.0322
     28 H          65.3394   49.1506   33.4961 H         1 R4M         0.0481
     29 H          65.6711   47.8205   35.5611 H         1 R4M         0.0257
     30 H          64.1370   46.9455   35.2332 H         1 R4M         0.0257
     31 H          64.1107   48.7101   35.5685 H         1 R4M         0.0257
     32 H          66.9037   46.8376   34.6945 H         1 R4M         0.0567
     33 H          68.3701   45.1478   33.6734 H         1 R4M         0.0633
     34 H          68.0192   44.4577   31.3180 H         1 R4M         0.0574
     35 H          66.2008   45.5047   29.9951 H         1 R4M         0.0641
     36 H          65.4006   46.5689   29.0776 H         1 R4M         0.0483
     37 H          63.8115   49.3456   26.7430 H         1 R4M         0.0427
     38 H          65.2986   48.3452   26.8620 H         1 R4M         0.0427
     39 H          65.0486   49.7204   27.9903 H         1 R4M         0.0427
     40 H          61.9881   48.4201   27.5140 H         1 R4M         0.0410
     41 H          61.9277   46.3702   29.9335 H         1 R4M         0.0625
     42 H          59.9807   47.8473   27.9916 H         1 R4M         0.0419
     43 H          58.4051   44.9954   30.8714 H         1 R4M         0.0403
     44 H          59.9769   45.7416   31.3176 H         1 R4M         0.0403
     45 H          59.8983   44.5445   29.9806 H         1 R4M         0.0403
     46 H          57.7171   47.7501   28.4285 H         1 R4M         0.0283
@<TRIPOS>BOND
     1    1    2 1  
     2    1   11 1  
     3    2    3 1  
     4    3    4 1  
     5    3    5 1  
     6    5    6 ar 
     7    5   10 ar 
     8    6    7 ar 
     9    7    8 ar 
    10    8    9 ar 
    11    9   10 ar 
    12   10   11 1  
    13   11   12 2  
    14   12   13 1  
    15   13   14 1  
    16   13   15 2  
    17   15   16 1  
    18   16   17 2  
    19   17   18 1  
    20   18   19 1  
    21   18   20 2  
    22   20   21 1  
    23   21   22 ar 
    24   21   23 ar 
    25    1   24 1  
    26    1   25 1  
    27    2   26 1  
    28    2   27 1  
    29    3   28 1  
    30    4   29 1  
    31    4   30 1  
    32    4   31 1  
    33    6   32 1  
    34    7   33 1  
    35    8   34 1  
    36    9   35 1  
    37   12   36 1  
    38   14   37 1  
    39   14   38 1  
    40   14   39 1  
    41   15   40 1  
    42   16   41 1  
    43   17   42 1  
    44   19   43 1  
    45   19   44 1  
    46   19   45 1  
    47   20   46 1  
@<TRIPOS>SUBSTRUCTURE
     1 R4M         1

