### 
### Created by X-TOOL on Mon Sep 10 21:13:20 2018
### 

@<TRIPOS>MOLECULE
4m8t_ligand
   30    31     1     0     0
SMALL
GAST_HUCK


@<TRIPOS>ATOM
      1 N01       -25.5600   11.4310  -22.4360 N.1       1 RMM        -0.3003
      2 C02       -26.2150   10.7880  -21.7540 C.1       1 RMM         0.1170
      3 C03       -27.0810    9.9510  -20.8740 C.3       1 RMM         0.1803
      4 C04       -26.4430    9.8260  -19.5340 C.2       1 RMM         0.2048
      5 N05       -25.7470    8.6260  -19.1810 N.am      1 RMM        -0.2987
      6 O06       -26.5140   10.7560  -18.7430 O.2       1 RMM        -0.3944
      7 C07       -28.4240   10.5880  -20.7210 C.3       1 RMM         0.0236
      8 C08       -29.0050   11.5450  -21.7070 C.ar      1 RMM        -0.0437
      9 C09       -28.6860   11.4610  -23.0310 C.ar      1 RMM        -0.0650
     10 C10       -29.2750   12.4250  -24.0020 C.ar      1 RMM        -0.0734
     11 C11       -30.1350   13.3880  -23.5650 C.ar      1 RMM        -0.0691
     12 C12       -30.4840   13.4790  -22.1180 C.ar      1 RMM        -0.0423
     13 C13       -31.4340   14.5190  -21.6310 C.2       1 RMM        -0.0006
     14 C14       -31.5320   14.9780  -20.3490 C.2       1 RMM         0.0613
     15 N15       -32.5480   15.9280  -20.3240 N.pl3     1 RMM        -0.2164
     16 N16       -33.0650   16.0440  -21.5660 N.2       1 RMM        -0.2157
     17 C17       -32.4030   15.1790  -22.4150 C.2       1 RMM         0.0059
     18 C18       -29.9490   12.5940  -21.2310 C.ar      1 RMM        -0.0611
     19 H1        -27.1989    8.9526  -21.3205 H         1 RMM         0.0859
     20 H2        -25.3188    8.5426  -18.2812 H         1 RMM         0.1815
     21 H3        -25.6890    7.8711  -19.8342 H         1 RMM         0.1815
     22 H4        -28.3918   11.1279  -19.7632 H         1 RMM         0.0473
     23 H5        -29.1426    9.7582  -20.6502 H         1 RMM         0.0473
     24 H6        -28.0038   10.6926  -23.3763 H         1 RMM         0.0517
     25 H7        -29.0203   12.3608  -25.0537 H         1 RMM         0.0587
     26 H8        -30.5660   14.0890  -24.2706 H         1 RMM         0.0518
     27 H9        -30.9264   14.6592  -19.5019 H         1 RMM         0.1038
     28 H10       -32.8553   16.4559  -19.4947 H         1 RMM         0.2600
     29 H11       -32.5916   15.0352  -23.4779 H         1 RMM         0.0675
     30 H12       -30.2100   12.6533  -20.1806 H         1 RMM         0.0510
@<TRIPOS>BOND
     1    1    2 3  
     2    2    3 1  
     3    3    4 1  
     4    3    7 1  
     5    4    5 am 
     6    4    6 2  
     7    7    8 1  
     8    8    9 ar 
     9    8   18 ar 
    10    9   10 ar 
    11   10   11 ar 
    12   11   12 ar 
    13   12   13 1  
    14   12   18 ar 
    15   13   14 2  
    16   13   17 1  
    17   14   15 1  
    18   15   16 1  
    19   16   17 2  
    20    3   19 1  
    21    5   20 1  
    22    5   21 1  
    23    7   22 1  
    24    7   23 1  
    25    9   24 1  
    26   10   25 1  
    27   11   26 1  
    28   14   27 1  
    29   15   28 1  
    30   17   29 1  
    31   18   30 1  
@<TRIPOS>SUBSTRUCTURE
     1 RMM         1

