### 
### Created by X-TOOL on Mon Sep 10 21:13:19 2018
### 

@<TRIPOS>MOLECULE
4m8x_ligand
   98   101     1     0     0
SMALL
GAST_HUCK


@<TRIPOS>ATOM
      1 N         -11.8560   52.4580    2.3110 N.am      1 KGQ        -0.2552
      2 C         -13.6770   51.0180   -1.3990 C.3       1 KGQ         0.0449
      3 O         -14.8720   47.1440    2.0770 O.3       1 KGQ        -0.2959
      4 C6        -11.9460   52.5510    3.8020 C.3       1 KGQ         0.0793
      5 C8        -11.5400   51.1580    4.3600 C.3       1 KGQ         0.0013
      6 C9        -12.4270   50.0510    3.7580 C.ar      1 KGQ        -0.0515
      7 C11       -11.8690   48.9900    3.0260 C.ar      1 KGQ        -0.0687
      8 C13       -12.6790   48.0050    2.4670 C.ar      1 KGQ        -0.0395
      9 C14       -14.0620   48.0880    2.6330 C.ar      1 KGQ         0.0867
     10 C15       -15.8510   47.8390    1.2980 C.3       1 KGQ         0.1918
     11 P         -16.7000   46.6300    0.2050 P.3       1 KGQ         0.3038
     12 O3        -18.3270   46.8040    0.2770 O.3       1 KGQ        -0.2312
     13 C18       -19.2180   46.0680    1.1400 C.3       1 KGQ         0.0894
     14 C19       -20.0970   47.0590    1.9530 C.3       1 KGQ        -0.0350
     15 O2        -16.2170   47.1060   -1.2700 O.2       1 KGQ        -0.5335
     16 O1        -16.0840   45.1440    0.4050 O.3       1 KGQ        -0.2312
     17 C16       -14.8430   44.8110   -0.2450 C.3       1 KGQ         0.0894
     18 C17       -14.5700   43.3070   -0.1260 C.3       1 KGQ        -0.0350
     19 C12       -14.6230   49.1480    3.3460 C.ar      1 KGQ        -0.0395
     20 C10       -13.8080   50.1210    3.9220 C.ar      1 KGQ        -0.0687
     21 C7        -10.9190   53.5740    4.2660 C.3       1 KGQ         0.0965
     22 O8         -9.6880   52.8540    4.2210 O.3       1 KGQ        -0.3878
     23 C20       -11.1290   54.1590    5.6940 C.3       1 KGQ         0.0578
     24 N1        -12.3620   54.9880    5.8710 N.am      1 KGQ        -0.2325
     25 C21       -12.8770   55.4390    4.5510 C.3       1 KGQ         0.0319
     26 C22       -12.6640   56.9360    4.3050 C.3       1 KGQ        -0.0296
     27 C30       -11.1730   57.2400    4.1880 C.3       1 KGQ        -0.0612
     28 C29       -13.3080   57.7640    5.4160 C.3       1 KGQ        -0.0612
     29 S         -13.5380   54.1110    6.7670 S.o2      1 KGQ         0.0657
     30 O10       -14.9370   54.4790    6.3460 O.2       1 KGQ        -0.1515
     31 O9        -13.3500   52.6050    6.6820 O.2       1 KGQ        -0.1515
     32 C23       -13.3090   54.4190    8.5190 C.ar      1 KGQ         0.0971
     33 C28       -12.3940   53.6360    9.2430 C.ar      1 KGQ        -0.0440
     34 C27       -12.1990   53.8870   10.6000 C.ar      1 KGQ        -0.0313
     35 C26       -12.9280   54.9050   11.2370 C.ar      1 KGQ         0.0908
     36 O5        -12.7680   55.1630   12.5720 O.3       1 KGQ        -0.3212
     37 C31       -12.9760   56.5490   12.8540 C.3       1 KGQ         0.0594
     38 C25       -13.8340   55.6670   10.5190 C.ar      1 KGQ        -0.0313
     39 C24       -14.0270   55.4290    9.1580 C.ar      1 KGQ        -0.0440
     40 C4        -12.7530   52.8580    1.3860 C.2       1 KGQ         0.3203
     41 O7        -13.8750   53.3640    1.5960 O.2       1 KGQ        -0.3775
     42 O6        -12.3540   52.6030    0.0880 O.3       1 KGQ        -0.2578
     43 C5        -13.4380   52.4530   -0.8740 C.3       1 KGQ         0.1189
     44 C3        -12.9470   53.1280   -2.1360 C.3       1 KGQ         0.0815
     45 O4        -12.0450   52.1520   -2.7240 O.3       1 KGQ        -0.3480
     46 C32       -12.5930   50.8150   -2.4570 C.3       1 KGQ         0.1648
     47 O11       -11.5900   49.9510   -1.8310 O.3       1 KGQ        -0.3509
     48 C2        -12.2750   49.0990   -0.8820 C.3       1 KGQ         0.0512
     49 C1        -13.4500   49.9020   -0.3650 C.3       1 KGQ        -0.0191
     50 H         -11.0192   52.0441    1.9525 H         1 KGQ         0.1873
     51 H         -14.6887   50.9350   -1.8228 H         1 KGQ         0.0380
     52 H         -12.9586   52.8319    4.1270 H         1 KGQ         0.0602
     53 H         -11.6564   51.1591    5.4538 H         1 KGQ         0.0428
     54 H         -10.4892   50.9583    4.1033 H         1 KGQ         0.0428
     55 H         -10.7943   48.9373    2.8946 H         1 KGQ         0.0530
     56 H         -12.2410   47.1845    1.9102 H         1 KGQ         0.0525
     57 H         -15.3586   48.6091    0.6861 H         1 KGQ         0.0904
     58 H         -16.5853   48.3145    1.9648 H         1 KGQ         0.0904
     59 H         -18.6283   45.4495    1.8326 H         1 KGQ         0.0635
     60 H         -19.8654   45.4204    0.5305 H         1 KGQ         0.0635
     61 H         -20.7749   46.4940    2.6097 H         1 KGQ         0.0257
     62 H         -20.6877   47.6776    1.2613 H         1 KGQ         0.0257
     63 H         -19.4506   47.7067    2.5634 H         1 KGQ         0.0257
     64 H         -14.0226   45.3680    0.2311 H         1 KGQ         0.0635
     65 H         -14.9044   45.0861   -1.3083 H         1 KGQ         0.0635
     66 H         -13.6203   43.0661   -0.6260 H         1 KGQ         0.0257
     67 H         -15.3878   42.7470   -0.6030 H         1 KGQ         0.0257
     68 H         -14.5059   43.0289    0.9363 H         1 KGQ         0.0257
     69 H         -15.6996   49.2153    3.4527 H         1 KGQ         0.0525
     70 H         -14.2475   50.9291    4.4954 H         1 KGQ         0.0530
     71 H         -10.9003   54.4133    3.5552 H         1 KGQ         0.0634
     72 H          -8.9795   53.4227    4.4988 H         1 KGQ         0.2100
     73 H         -10.2593   54.7880    5.9348 H         1 KGQ         0.0504
     74 H         -11.1805   53.3182    6.4014 H         1 KGQ         0.0504
     75 H         -13.9552   55.2260    4.5040 H         1 KGQ         0.0480
     76 H         -12.3574   54.8766    3.7613 H         1 KGQ         0.0480
     77 H         -13.1471   57.2035    3.3537 H         1 KGQ         0.0311
     78 H         -11.0310   58.3164    4.0116 H         1 KGQ         0.0233
     79 H         -10.7477   56.6716    3.3478 H         1 KGQ         0.0233
     80 H         -10.6656   56.9512    5.1203 H         1 KGQ         0.0233
     81 H         -14.3799   57.5247    5.4772 H         1 KGQ         0.0233
     82 H         -13.1833   58.8343    5.1949 H         1 KGQ         0.0233
     83 H         -12.8245   57.5290    6.3757 H         1 KGQ         0.0233
     84 H         -11.8440   52.8427    8.7498 H         1 KGQ         0.0608
     85 H         -11.4853   53.2971   11.1636 H         1 KGQ         0.0542
     86 H         -12.8417   56.7282   13.9310 H         1 KGQ         0.0577
     87 H         -13.9968   56.8340   12.5594 H         1 KGQ         0.0577
     88 H         -12.2496   57.1513   12.2887 H         1 KGQ         0.0577
     89 H         -14.3948   56.4505   11.0157 H         1 KGQ         0.0542
     90 H         -14.7348   56.0290    8.5976 H         1 KGQ         0.0608
     91 H         -14.3651   52.8907   -0.4755 H         1 KGQ         0.0675
     92 H         -12.4143   54.0609   -1.8994 H         1 KGQ         0.0590
     93 H         -13.7846   53.3460   -2.8149 H         1 KGQ         0.0590
     94 H         -12.9895   50.3593   -3.3763 H         1 KGQ         0.0913
     95 H         -11.6018   48.8320   -0.0540 H         1 KGQ         0.0561
     96 H         -12.6280   48.1827   -1.3777 H         1 KGQ         0.0561
     97 H         -14.3438   49.2659   -0.2845 H         1 KGQ         0.0293
     98 H         -13.2167   50.3329    0.6198 H         1 KGQ         0.0293
@<TRIPOS>BOND
     1    1    4 1  
     2   40    1 am 
     3   43    2 1  
     4    2   46 1  
     5    2   49 1  
     6    9    3 1  
     7    3   10 1  
     8    4    5 1  
     9    4   21 1  
    10    5    6 1  
    11    6    7 ar 
    12    6   20 ar 
    13    7    8 ar 
    14    8    9 ar 
    15   19    9 ar 
    16   10   11 1  
    17   11   12 1  
    18   11   15 2  
    19   11   16 1  
    20   12   13 1  
    21   13   14 1  
    22   16   17 1  
    23   17   18 1  
    24   20   19 ar 
    25   21   22 1  
    26   21   23 1  
    27   23   24 1  
    28   24   25 1  
    29   24   29 am 
    30   25   26 1  
    31   26   27 1  
    32   26   28 1  
    33   29   30 2  
    34   29   31 2  
    35   29   32 1  
    36   32   33 ar 
    37   32   39 ar 
    38   33   34 ar 
    39   34   35 ar 
    40   35   36 1  
    41   38   35 ar 
    42   36   37 1  
    43   39   38 ar 
    44   40   41 2  
    45   42   40 1  
    46   42   43 1  
    47   43   44 1  
    48   44   45 1  
    49   45   46 1  
    50   46   47 1  
    51   47   48 1  
    52   48   49 1  
    53    1   50 1  
    54    2   51 1  
    55    4   52 1  
    56    5   53 1  
    57    5   54 1  
    58    7   55 1  
    59    8   56 1  
    60   10   57 1  
    61   10   58 1  
    62   13   59 1  
    63   13   60 1  
    64   14   61 1  
    65   14   62 1  
    66   14   63 1  
    67   17   64 1  
    68   17   65 1  
    69   18   66 1  
    70   18   67 1  
    71   18   68 1  
    72   19   69 1  
    73   20   70 1  
    74   21   71 1  
    75   22   72 1  
    76   23   73 1  
    77   23   74 1  
    78   25   75 1  
    79   25   76 1  
    80   26   77 1  
    81   27   78 1  
    82   27   79 1  
    83   27   80 1  
    84   28   81 1  
    85   28   82 1  
    86   28   83 1  
    87   33   84 1  
    88   34   85 1  
    89   37   86 1  
    90   37   87 1  
    91   37   88 1  
    92   38   89 1  
    93   39   90 1  
    94   43   91 1  
    95   44   92 1  
    96   44   93 1  
    97   46   94 1  
    98   48   95 1  
    99   48   96 1  
   100   49   97 1  
   101   49   98 1  
@<TRIPOS>SUBSTRUCTURE
     1 KGQ         1

