### 
### Created by X-TOOL on Mon Sep 10 21:13:19 2018
### 

@<TRIPOS>MOLECULE
4m8y_ligand
   98   101     1     0     0
SMALL
GAST_HUCK


@<TRIPOS>ATOM
      1 N         -11.7130   52.5480    2.1530 N.am      1 KGQ        -0.2552
      2 C         -13.6420   51.3280   -1.4990 C.3       1 KGQ         0.0449
      3 O         -14.5730   47.0950    1.8150 O.3       1 KGQ        -0.2959
      4 C6        -11.8980   52.6670    3.5960 C.3       1 KGQ         0.0793
      5 C8        -11.5780   51.3020    4.2250 C.3       1 KGQ         0.0013
      6 C9        -12.3920   50.1710    3.5780 C.ar      1 KGQ        -0.0515
      7 C11       -13.7750   50.1590    3.6670 C.ar      1 KGQ        -0.0687
      8 C13       -14.4980   49.1220    3.0760 C.ar      1 KGQ        -0.0395
      9 C14       -13.8530   48.0920    2.4010 C.ar      1 KGQ         0.0867
     10 C15       -15.4900   47.6750    0.8550 C.3       1 KGQ         0.1918
     11 P         -16.3720   46.4480   -0.2110 P.3       1 KGQ         0.3038
     12 O3        -17.9580   46.8050   -0.2490 O.3       1 KGQ        -0.2312
     13 C18       -18.8740   46.2720    0.6790 C.3       1 KGQ         0.0894
     14 C19       -20.1220   47.1540    0.6890 C.3       1 KGQ        -0.0350
     15 O2        -15.8510   46.6330   -1.7540 O.2       1 KGQ        -0.5335
     16 O1        -16.0110   44.9610    0.2420 O.3       1 KGQ        -0.2312
     17 C16       -14.7420   44.4310   -0.1650 C.3       1 KGQ         0.0894
     18 C17       -14.6300   42.9500    0.1980 C.3       1 KGQ        -0.0350
     19 C12       -12.4660   48.1040    2.3230 C.ar      1 KGQ        -0.0395
     20 C10       -11.7450   49.1370    2.9080 C.ar      1 KGQ        -0.0687
     21 C7        -10.9730   53.7830    4.0930 C.3       1 KGQ         0.0965
     22 O8         -9.6220   53.3680    3.8990 O.3       1 KGQ        -0.3878
     23 C20       -11.1640   54.1040    5.5710 C.3       1 KGQ         0.0578
     24 N1        -12.3330   54.9660    5.8250 N.am      1 KGQ        -0.2325
     25 C21       -12.9790   55.4030    4.5810 C.3       1 KGQ         0.0319
     26 C22       -12.6380   56.8560    4.3020 C.3       1 KGQ        -0.0296
     27 C30       -13.2680   57.7880    5.3230 C.3       1 KGQ        -0.0612
     28 C29       -11.1310   57.0230    4.3200 C.3       1 KGQ        -0.0612
     29 S         -13.4030   54.1190    6.7100 S.o2      1 KGQ         0.0657
     30 O10       -13.2390   52.6510    6.4360 O.2       1 KGQ        -0.1515
     31 O9        -14.8020   54.5480    6.3500 O.2       1 KGQ        -0.1515
     32 C23       -13.1100   54.4660    8.4180 C.ar      1 KGQ         0.0971
     33 C28       -13.6920   55.5880    9.0090 C.ar      1 KGQ        -0.0440
     34 C27       -13.4570   55.8880   10.3460 C.ar      1 KGQ        -0.0313
     35 C26       -12.6310   55.0580   11.0980 C.ar      1 KGQ         0.0908
     36 O5        -12.3920   55.3320   12.4050 O.3       1 KGQ        -0.3212
     37 C31       -13.4800   56.0310   13.0120 C.3       1 KGQ         0.0594
     38 C25       -12.0450   53.9400   10.5140 C.ar      1 KGQ        -0.0313
     39 C24       -12.2850   53.6430    9.1780 C.ar      1 KGQ        -0.0440
     40 C4        -12.6530   52.8530    1.2670 C.2       1 KGQ         0.3203
     41 O7        -13.7690   53.2710    1.5730 O.2       1 KGQ        -0.3775
     42 O6        -12.2960   52.7110   -0.0360 O.3       1 KGQ        -0.2578
     43 C5        -13.3470   52.7400   -1.0020 C.3       1 KGQ         0.1189
     44 C3        -12.7230   53.3770   -2.2130 C.3       1 KGQ         0.0815
     45 O4        -11.9020   52.3460   -2.8110 O.3       1 KGQ        -0.3480
     46 C32       -12.5920   51.0770   -2.6000 C.3       1 KGQ         0.1648
     47 O11       -11.6600   50.1070   -2.0380 O.3       1 KGQ        -0.3509
     48 C2        -12.4540   49.2760   -1.1610 C.3       1 KGQ         0.0512
     49 C1        -13.3350   50.2780   -0.4290 C.3       1 KGQ        -0.0191
     50 H         -10.8315   52.2193    1.8141 H         1 KGQ         0.1873
     51 H         -14.6755   51.2386   -1.8649 H         1 KGQ         0.0380
     52 H         -12.9405   52.9337    3.8243 H         1 KGQ         0.0602
     53 H         -11.8133   51.3407    5.2988 H         1 KGQ         0.0428
     54 H         -10.5067   51.0908    4.0918 H         1 KGQ         0.0428
     55 H         -14.2932   50.9522    4.1937 H         1 KGQ         0.0530
     56 H         -15.5798   49.1196    3.1443 H         1 KGQ         0.0525
     57 H         -14.9190   48.3496    0.2002 H         1 KGQ         0.0904
     58 H         -16.2448   48.2530    1.4083 H         1 KGQ         0.0904
     59 H         -18.4213   46.2583    1.6814 H         1 KGQ         0.0635
     60 H         -19.1460   45.2474    0.3854 H         1 KGQ         0.0635
     61 H         -20.8494   46.7518    1.4095 H         1 KGQ         0.0257
     62 H         -20.5699   47.1671   -0.3156 H         1 KGQ         0.0257
     63 H         -19.8451   48.1779    0.9804 H         1 KGQ         0.0257
     64 H         -13.9396   44.9879    0.3410 H         1 KGQ         0.0635
     65 H         -14.6365   44.5442   -1.2540 H         1 KGQ         0.0635
     66 H         -13.6503   42.5668   -0.1234 H         1 KGQ         0.0257
     67 H         -15.4279   42.3870   -0.3083 H         1 KGQ         0.0257
     68 H         -14.7311   42.8307    1.2868 H         1 KGQ         0.0257
     69 H         -11.9459   47.3063    1.8050 H         1 KGQ         0.0525
     70 H         -10.6630   49.1378    2.8417 H         1 KGQ         0.0530
     71 H         -11.1696   54.6920    3.5055 H         1 KGQ         0.0634
     72 H          -9.4632   52.5706    4.3904 H         1 KGQ         0.2100
     73 H         -10.2631   54.6176    5.9378 H         1 KGQ         0.0504
     74 H         -11.2977   53.1606    6.1206 H         1 KGQ         0.0504
     75 H         -14.0694   55.2972    4.6800 H         1 KGQ         0.0480
     76 H         -12.6242   54.7790    3.7475 H         1 KGQ         0.0480
     77 H         -13.0176   57.1217    3.3043 H         1 KGQ         0.0311
     78 H         -12.9977   58.8277    5.0862 H         1 KGQ         0.0233
     79 H         -12.9003   57.5334    6.3280 H         1 KGQ         0.0233
     80 H         -14.3621   57.6779    5.2940 H         1 KGQ         0.0233
     81 H         -10.6783   56.3469    3.5798 H         1 KGQ         0.0233
     82 H         -10.7470   56.7798    5.3217 H         1 KGQ         0.0233
     83 H         -10.8744   58.0634    4.0715 H         1 KGQ         0.0233
     84 H         -14.3341   56.2325    8.4195 H         1 KGQ         0.0608
     85 H         -13.9132   56.7609   10.7988 H         1 KGQ         0.0542
     86 H         -13.2437   56.2316   14.0674 H         1 KGQ         0.0577
     87 H         -14.3904   55.4167   12.9505 H         1 KGQ         0.0577
     88 H         -13.6436   56.9829   12.4856 H         1 KGQ         0.0577
     89 H         -11.3992   53.2986   11.1027 H         1 KGQ         0.0542
     90 H         -11.8289   52.7690    8.7273 H         1 KGQ         0.0608
     91 H         -14.2433   53.2596   -0.6323 H         1 KGQ         0.0675
     92 H         -12.1052   54.2384   -1.9193 H         1 KGQ         0.0590
     93 H         -13.5004   53.7066   -2.9179 H         1 KGQ         0.0590
     94 H         -13.0469   50.7081   -3.5311 H         1 KGQ         0.0913
     95 H         -11.8149   48.7247   -0.4556 H         1 KGQ         0.0561
     96 H         -13.0628   48.5641   -1.7376 H         1 KGQ         0.0561
     97 H         -14.2585   49.8009   -0.0692 H         1 KGQ         0.0293
     98 H         -12.7990   50.7266    0.4204 H         1 KGQ         0.0293
@<TRIPOS>BOND
     1    1    4 1  
     2   40    1 am 
     3   43    2 1  
     4    2   46 1  
     5    2   49 1  
     6    9    3 1  
     7    3   10 1  
     8    4    5 1  
     9    4   21 1  
    10    5    6 1  
    11    6    7 ar 
    12    6   20 ar 
    13    7    8 ar 
    14    8    9 ar 
    15   19    9 ar 
    16   10   11 1  
    17   11   12 1  
    18   11   15 2  
    19   11   16 1  
    20   12   13 1  
    21   13   14 1  
    22   16   17 1  
    23   17   18 1  
    24   20   19 ar 
    25   21   22 1  
    26   21   23 1  
    27   23   24 1  
    28   24   25 1  
    29   24   29 am 
    30   25   26 1  
    31   26   27 1  
    32   26   28 1  
    33   29   30 2  
    34   29   31 2  
    35   29   32 1  
    36   32   33 ar 
    37   32   39 ar 
    38   33   34 ar 
    39   34   35 ar 
    40   35   36 1  
    41   38   35 ar 
    42   36   37 1  
    43   39   38 ar 
    44   40   41 2  
    45   42   40 1  
    46   42   43 1  
    47   43   44 1  
    48   44   45 1  
    49   45   46 1  
    50   46   47 1  
    51   47   48 1  
    52   48   49 1  
    53    1   50 1  
    54    2   51 1  
    55    4   52 1  
    56    5   53 1  
    57    5   54 1  
    58    7   55 1  
    59    8   56 1  
    60   10   57 1  
    61   10   58 1  
    62   13   59 1  
    63   13   60 1  
    64   14   61 1  
    65   14   62 1  
    66   14   63 1  
    67   17   64 1  
    68   17   65 1  
    69   18   66 1  
    70   18   67 1  
    71   18   68 1  
    72   19   69 1  
    73   20   70 1  
    74   21   71 1  
    75   22   72 1  
    76   23   73 1  
    77   23   74 1  
    78   25   75 1  
    79   25   76 1  
    80   26   77 1  
    81   27   78 1  
    82   27   79 1  
    83   27   80 1  
    84   28   81 1  
    85   28   82 1  
    86   28   83 1  
    87   33   84 1  
    88   34   85 1  
    89   37   86 1  
    90   37   87 1  
    91   37   88 1  
    92   38   89 1  
    93   39   90 1  
    94   43   91 1  
    95   44   92 1  
    96   44   93 1  
    97   46   94 1  
    98   48   95 1  
    99   48   96 1  
   100   49   97 1  
   101   49   98 1  
@<TRIPOS>SUBSTRUCTURE
     1 KGQ         1

