### 
### Created by X-TOOL on Mon Sep 10 21:13:19 2018
### 

@<TRIPOS>MOLECULE
4man_ligand
  119   126     1     0     0
SMALL
GAST_HUCK


@<TRIPOS>ATOM
      1 C1        -15.1650    1.3410   10.7500 C.ar      1 1Y1        -0.0764
      2 C2        -14.3970    1.5960    9.6430 C.ar      1 1Y1        -0.0709
      3 C3        -11.2320    1.9860    8.3020 C.ar      1 1Y1        -0.0556
      4 C4        -13.1260    3.0450    7.3620 C.ar      1 1Y1        -0.0556
      5 C5        -13.9940   11.2540   11.1220 C.ar      1 1Y1        -0.0603
      6 C6         -8.5330   13.7640    8.0680 C.ar      1 1Y1        -0.0475
      7 CL6       -10.4620    2.7140    4.4660 Cl        1 1Y1        -0.0713
      8 C7        -13.8170    9.8770   11.0770 C.ar      1 1Y1        -0.0483
      9 C8        -10.1510   16.9850    7.3980 C.ar      1 1Y1        -0.0333
     10 C9        -14.7650    1.8070   11.9730 C.ar      1 1Y1        -0.0389
     11 C10        -9.0000   13.3000    9.2770 C.ar      1 1Y1        -0.0403
     12 C11       -10.4410   16.7760    8.7250 C.ar      1 1Y1        -0.0409
     13 C12       -10.5750    2.0770    7.0970 C.ar      1 1Y1        -0.0485
     14 C13       -12.4820    3.1080    6.1470 C.ar      1 1Y1        -0.0485
     15 C14       -11.2520   13.1280    5.8160 C.2       1 1Y1        -0.0676
     16 C15       -11.0850   12.5670    8.3040 C.ar      1 1Y1        -0.0438
     17 C16       -11.5070   10.1730   10.7130 C.ar      1 1Y1        -0.0062
     18 C17       -12.6330   16.0290    8.1370 C.ar      1 1Y1        -0.0029
     19 C18       -10.3570   13.7500    4.9750 C.2       1 1Y1         0.0191
     20 C19       -10.6370   13.0560    7.0890 C.ar      1 1Y1        -0.0364
     21 C20       -12.5170    2.4710    8.4530 C.ar      1 1Y1        -0.0240
     22 C21       -13.2270    2.3230    9.7090 C.ar      1 1Y1        -0.0186
     23 C22       -12.9260   12.1180   10.9960 C.ar      1 1Y1         0.0704
     24 C23       -12.7980    2.7860   10.9490 C.ar      1 1Y1         0.0396
     25 C24        -9.3910   13.6360    6.9960 C.ar      1 1Y1         0.0552
     26 C25       -12.5650    9.2910   10.8690 C.ar      1 1Y1         0.0375
     27 C26       -11.0790   16.7240    6.4060 C.ar      1 1Y1         0.0836
     28 C27       -12.3190   16.2280    6.7980 C.ar      1 1Y1         0.2184
     29 C28       -10.2380   12.7140    9.3730 C.ar      1 1Y1         0.1000
     30 C29       -13.5810    2.5180   12.0680 C.ar      1 1Y1         0.0992
     31 C30       -11.6870   11.5400   10.7840 C.ar      1 1Y1         0.1232
     32 C31       -11.6760   16.3020    9.0910 C.ar      1 1Y1         0.1080
     33 C32       -11.2140    2.6150    6.0080 C.ar      1 1Y1         0.0394
     34 C33       -13.1380   13.6050   11.0020 C.2       1 1Y1         0.2104
     35 C34        -7.8860   18.0340    2.9200 C.3       1 1Y1        -0.0247
     36 C35       -10.2920   18.1450    2.3080 C.3       1 1Y1        -0.0247
     37 C36       -13.4640    7.0250   10.7180 C.3       1 1Y1         0.0678
     38 C37       -11.1930    7.4190   11.6340 C.3       1 1Y1         0.0678
     39 C38       -13.0370    5.6140   10.3760 C.3       1 1Y1        -0.0103
     40 C39       -10.7550    6.0140   11.2540 C.3       1 1Y1        -0.0103
     41 C40        -7.6030   17.7500    1.4560 C.3       1 1Y1         0.0480
     42 C41        -9.9010   18.0050    0.8490 C.3       1 1Y1         0.0480
     43 C42        -9.2720   17.4930    3.2270 C.3       1 1Y1        -0.0171
     44 C43       -12.0470    4.2650   17.2260 C.3       1 1Y1        -0.0433
     45 C44       -14.2790    3.9610   16.2960 C.3       1 1Y1        -0.0433
     46 C45       -11.5780    3.6610   11.1020 C.3       1 1Y1         0.0018
     47 C46        -9.6330   17.7890    4.6790 C.3       1 1Y1         0.0287
     48 C47       -12.2280    2.6620   15.3910 C.3       1 1Y1        -0.0042
     49 C48       -13.1190    2.0570   14.3280 C.3       1 1Y1         0.1084
     50 N49        -9.2320   14.0340    5.6980 N.pl3     1 1Y1        -0.2841
     51 N50       -12.2880    7.8920   10.7700 N.pl3     1 1Y1        -0.2979
     52 N51       -11.9460    5.1210   11.2840 N.4       1 1Y1         0.2489
     53 N52       -10.7500   16.9180    5.0430 N.pl3     1 1Y1        -0.3158
     54 N53       -12.0070   14.4140   11.2640 N.am      1 1Y1        -0.1582
     55 N54       -12.9440    3.3480   16.5010 N.4       1 1Y1         0.2328
     56 N55       -13.3590   15.9070    5.8260 N.2       1 1Y1         0.3063
     57 O56       -14.4390   15.4930    6.2510 O.2       1 1Y1         0.1710
     58 O57       -14.1860   14.1550   10.6720 O.2       1 1Y1        -0.3949
     59 O58       -13.1650   16.0380    4.6120 O.2       1 1Y1         0.1710
     60 O59       -13.3490   16.5830   11.0450 O.2       1 1Y1        -0.1472
     61 O60       -10.8500   16.6400   11.5270 O.2       1 1Y1        -0.1472
     62 O61        -8.5660   18.4720    0.6730 O.3       1 1Y1        -0.3797
     63 O62       -10.5450   12.2820   10.6310 O.3       1 1Y1        -0.2645
     64 O63       -13.1630    3.0290   13.2910 O.3       1 1Y1        -0.3163
     65 S64       -11.9970   16.0940   10.8410 S.o2      1 1Y1         0.0855
     66 H         -16.0839    0.7735   10.6569 H         1 1Y1         0.0534
     67 H         -14.7210    1.2126    8.6822 H         1 1Y1         0.0513
     68 H         -10.7333    1.5260    9.1474 H         1 1Y1         0.0613
     69 H         -14.1255    3.4529    7.4599 H         1 1Y1         0.0613
     70 H         -14.9908   11.6575   11.2588 H         1 1Y1         0.0612
     71 H          -7.5479   14.2045    7.9646 H         1 1Y1         0.0530
     72 H         -14.6800    9.2342   11.2078 H         1 1Y1         0.0448
     73 H          -9.1731   17.3629    7.1225 H         1 1Y1         0.0533
     74 H         -15.3670    1.6219   12.8552 H         1 1Y1         0.0525
     75 H          -8.3834   13.3984   10.1631 H         1 1Y1         0.0491
     76 H          -9.6945   16.9855    9.4825 H         1 1Y1         0.0647
     77 H          -9.5539    1.7243    7.0076 H         1 1Y1         0.0620
     78 H         -12.9835    3.5515    5.2944 H         1 1Y1         0.0620
     79 H         -12.2431   12.7616    5.5525 H         1 1Y1         0.0274
     80 H         -12.0544   12.0927    8.4054 H         1 1Y1         0.0445
     81 H         -10.5135    9.7796   10.5307 H         1 1Y1         0.0454
     82 H         -13.6126   15.6657    8.4261 H         1 1Y1         0.0677
     83 H         -10.5167   13.9756    3.9216 H         1 1Y1         0.0927
     84 H          -7.8557   19.1178    3.1057 H         1 1Y1         0.0291
     85 H          -7.1381   17.5326    3.5519 H         1 1Y1         0.0291
     86 H         -11.2697   17.6653    2.4629 H         1 1Y1         0.0291
     87 H         -10.3644   19.2140    2.5569 H         1 1Y1         0.0291
     88 H         -13.9658    7.0290   11.6969 H         1 1Y1         0.0569
     89 H         -14.1580    7.3945    9.9487 H         1 1Y1         0.0569
     90 H         -10.3361    8.1011   11.5317 H         1 1Y1         0.0569
     91 H         -11.5370    7.4165   12.6788 H         1 1Y1         0.0569
     92 H         -12.6715    5.5950    9.3387 H         1 1Y1         0.0834
     93 H         -13.9065    4.9469   10.4707 H         1 1Y1         0.0834
     94 H         -10.0032    5.6533   11.9715 H         1 1Y1         0.0834
     95 H         -10.3227    6.0213   10.2425 H         1 1Y1         0.0834
     96 H          -7.6947   16.6715    1.2598 H         1 1Y1         0.0560
     97 H          -6.5868   18.0842    1.1999 H         1 1Y1         0.0560
     98 H         -10.5841   18.6015    0.2265 H         1 1Y1         0.0560
     99 H          -9.9627   16.9478    0.5517 H         1 1Y1         0.0560
    100 H          -9.2802   16.4050    3.0654 H         1 1Y1         0.0321
    101 H         -12.6031    4.7559   18.0382 H         1 1Y1         0.0777
    102 H         -11.6627    5.0270   16.5320 H         1 1Y1         0.0777
    103 H         -11.2056    3.6967   17.6491 H         1 1Y1         0.0777
    104 H         -14.9266    3.2564   15.7537 H         1 1Y1         0.0777
    105 H         -14.1718    4.8857   15.7100 H         1 1Y1         0.0777
    106 H         -14.7287    4.1954   17.2721 H         1 1Y1         0.0777
    107 H         -10.9542    3.5615   10.2015 H         1 1Y1         0.0962
    108 H         -11.0085    3.3259   11.9814 H         1 1Y1         0.0962
    109 H          -9.9294   18.8430    4.7845 H         1 1Y1         0.0519
    110 H          -8.7700   17.5839    5.3295 H         1 1Y1         0.0519
    111 H         -11.5691    3.3968   14.9053 H         1 1Y1         0.0841
    112 H         -11.6199    1.8549   15.8255 H         1 1Y1         0.0841
    113 H         -14.1269    1.8714   14.7275 H         1 1Y1         0.0664
    114 H         -12.6924    1.1137   13.9563 H         1 1Y1         0.0664
    115 H          -8.3861   14.4833    5.3191 H         1 1Y1         0.2249
    116 H         -12.3206    5.1886   12.2174 H         1 1Y1         0.2048
    117 H         -11.2966   16.4463    4.3084 H         1 1Y1         0.1789
    118 H         -11.2023   14.0104   11.6994 H         1 1Y1         0.2129
    119 H         -13.1333    2.5987   17.1481 H         1 1Y1         0.2029
@<TRIPOS>BOND
     1    2    1 ar 
     2   10    1 ar 
     3   22    2 ar 
     4    3   13 ar 
     5   21    3 ar 
     6    4   14 ar 
     7   21    4 ar 
     8    5    8 ar 
     9   23    5 ar 
    10   11    6 ar 
    11    6   25 ar 
    12   33    7 1  
    13    8   26 ar 
    14   12    9 ar 
    15    9   27 ar 
    16   30   10 ar 
    17   29   11 ar 
    18   32   12 ar 
    19   13   33 ar 
    20   14   33 ar 
    21   15   19 2  
    22   20   15 1  
    23   16   20 ar 
    24   29   16 ar 
    25   17   26 ar 
    26   31   17 ar 
    27   18   28 ar 
    28   32   18 ar 
    29   50   19 1  
    30   20   25 ar 
    31   22   21 1  
    32   24   22 ar 
    33   23   31 ar 
    34   34   23 1  
    35   24   30 ar 
    36   46   24 1  
    37   25   50 1  
    38   26   51 1  
    39   28   27 ar 
    40   27   53 1  
    41   28   56 1  
    42   63   29 1  
    43   30   64 1  
    44   31   63 1  
    45   65   32 1  
    46   54   34 am 
    47   34   58 2  
    48   35   41 1  
    49   43   35 1  
    50   36   42 1  
    51   43   36 1  
    52   37   39 1  
    53   51   37 1  
    54   38   40 1  
    55   51   38 1  
    56   39   52 1  
    57   40   52 1  
    58   41   62 1  
    59   42   62 1  
    60   47   43 1  
    61   55   44 1  
    62   55   45 1  
    63   52   46 1  
    64   53   47 1  
    65   49   48 1  
    66   48   55 1  
    67   64   49 1  
    68   54   65 am 
    69   56   57 2  
    70   56   59 2  
    71   65   60 2  
    72   65   61 2  
    73    1   66 1  
    74    2   67 1  
    75    3   68 1  
    76    4   69 1  
    77    5   70 1  
    78    6   71 1  
    79    8   72 1  
    80    9   73 1  
    81   10   74 1  
    82   11   75 1  
    83   12   76 1  
    84   13   77 1  
    85   14   78 1  
    86   15   79 1  
    87   16   80 1  
    88   17   81 1  
    89   18   82 1  
    90   19   83 1  
    91   35   84 1  
    92   35   85 1  
    93   36   86 1  
    94   36   87 1  
    95   37   88 1  
    96   37   89 1  
    97   38   90 1  
    98   38   91 1  
    99   39   92 1  
   100   39   93 1  
   101   40   94 1  
   102   40   95 1  
   103   41   96 1  
   104   41   97 1  
   105   42   98 1  
   106   42   99 1  
   107   43  100 1  
   108   44  101 1  
   109   44  102 1  
   110   44  103 1  
   111   45  104 1  
   112   45  105 1  
   113   45  106 1  
   114   46  107 1  
   115   46  108 1  
   116   47  109 1  
   117   47  110 1  
   118   48  111 1  
   119   48  112 1  
   120   49  113 1  
   121   49  114 1  
   122   50  115 1  
   123   52  116 1  
   124   53  117 1  
   125   54  118 1  
   126   55  119 1  
@<TRIPOS>SUBSTRUCTURE
     1 1Y1         1

