### 
### Created by X-TOOL on Mon Sep 10 21:13:20 2018
### 

@<TRIPOS>MOLECULE
4mao_ligand
   50    53     1     0     0
SMALL
GAST_HUCK


@<TRIPOS>ATOM
      1 C01         3.7710   10.8480  -19.9730 C.3       1 28D         0.2153
      2 C02         2.8100   11.9240  -19.6010 C.1       1 28D         0.1320
      3 N03         2.0960   12.7540  -19.2910 N.1       1 28D        -0.2999
      4 N04         3.1100    9.8710  -20.8150 N.pl3     1 28D        -0.1484
      5 C05         3.2380    8.4850  -20.6760 C.2       1 28D         0.1306
      6 N06         2.4930    7.9180  -21.6510 N.2       1 28D        -0.2869
      7 C07         1.9240    8.9400  -22.3870 C.2       1 28D         0.0619
      8 N08         2.3190   10.1500  -21.8540 N.2       1 28D        -0.1879
      9 C09         4.9920   11.4170  -20.6530 C.3       1 28D         0.0339
     10 C10         6.0040   10.3200  -20.6340 C.ar      1 28D        -0.0481
     11 C11         6.4950    9.8950  -19.3990 C.ar      1 28D        -0.0669
     12 C12         7.4320    8.8570  -19.3340 C.ar      1 28D        -0.0393
     13 C13         7.8520    8.2640  -20.5180 C.ar      1 28D         0.0829
     14 N14         8.7550    7.2400  -20.7670 N.pl3     1 28D        -0.2172
     15 N15         8.8700    6.9660  -22.0490 N.2       1 28D        -0.2051
     16 C16         8.0440    7.8180  -22.6800 C.2       1 28D         0.0496
     17 C17         7.8260    7.8780  -24.1790 C.ar      1 28D        -0.0371
     18 C18         6.4470    8.1350  -24.6950 C.ar      1 28D        -0.0444
     19 C19         6.2250    8.1860  -26.0530 C.ar      1 28D         0.1122
     20 O20         4.9440    8.4230  -26.4970 O.3       1 28D        -0.3280
     21 C21         4.6680    9.6770  -27.0180 C.3       1 28D         0.0564
     22 C22         7.3690    7.9940  -27.0230 C.ar      1 28D         0.1482
     23 O23         7.1090    8.0500  -28.3880 O.3       1 28D        -0.3284
     24 C24         6.4920    6.9720  -29.0240 C.3       1 28D         0.0546
     25 C25         8.6400    7.7610  -26.5330 C.ar      1 28D         0.1122
     26 O26         9.7310    7.5610  -27.3570 O.3       1 28D        -0.3280
     27 C27        10.7920    8.4280  -27.2850 C.3       1 28D         0.0564
     28 C28         8.8720    7.6980  -25.0390 C.ar      1 28D        -0.0444
     29 C29         7.3400    8.6940  -21.7550 C.ar      1 28D         0.0083
     30 C30         6.4100    9.7230  -21.8320 C.ar      1 28D        -0.0632
     31 H1          4.0988   10.3444  -19.0517 H         1 28D         0.1008
     32 H2          3.8268    7.9615  -19.9241 H         1 28D         0.1362
     33 H3          1.2699    8.8113  -23.2481 H         1 28D         0.0864
     34 H4          5.3649   12.2940  -20.1036 H         1 28D         0.0461
     35 H5          4.7567   11.7055  -21.6881 H         1 28D         0.0461
     36 H6          6.1500   10.3698  -18.4876 H         1 28D         0.0537
     37 H7          7.8219    8.5228  -18.3793 H         1 28D         0.0550
     38 H8          9.2783    6.7480  -20.0287 H         1 28D         0.2444
     39 H9          5.6252    8.2806  -24.0032 H         1 28D         0.0423
     40 H10         3.6140    9.7206  -27.3298 H         1 28D         0.0572
     41 H11         5.3155    9.8635  -27.8874 H         1 28D         0.0572
     42 H12         4.8552   10.4423  -26.2504 H         1 28D         0.0572
     43 H13         6.3701    7.1982  -30.0936 H         1 28D         0.0569
     44 H14         5.5049    6.7955  -28.5718 H         1 28D         0.0569
     45 H15         7.1146    6.0726  -28.9081 H         1 28D         0.0569
     46 H16        11.5654    8.1215  -28.0046 H         1 28D         0.0572
     47 H17        11.2105    8.4117  -26.2679 H         1 28D         0.0572
     48 H18        10.4508    9.4458  -27.5248 H         1 28D         0.0572
     49 H19         9.8669    7.5103  -24.6517 H         1 28D         0.0423
     50 H20         6.0133   10.0514  -22.7859 H         1 28D         0.0514
@<TRIPOS>BOND
     1    1    2 1  
     2    1    4 1  
     3    1    9 1  
     4    2    3 3  
     5    4    5 1  
     6    4    8 1  
     7    5    6 2  
     8    6    7 1  
     9    7    8 2  
    10    9   10 1  
    11   10   11 ar 
    12   10   30 ar 
    13   11   12 ar 
    14   12   13 ar 
    15   13   14 1  
    16   13   29 ar 
    17   14   15 1  
    18   15   16 2  
    19   16   17 1  
    20   16   29 1  
    21   17   18 ar 
    22   17   28 ar 
    23   18   19 ar 
    24   19   20 1  
    25   19   22 ar 
    26   20   21 1  
    27   22   23 1  
    28   22   25 ar 
    29   23   24 1  
    30   25   26 1  
    31   25   28 ar 
    32   26   27 1  
    33   29   30 ar 
    34    1   31 1  
    35    5   32 1  
    36    7   33 1  
    37    9   34 1  
    38    9   35 1  
    39   11   36 1  
    40   12   37 1  
    41   14   38 1  
    42   18   39 1  
    43   21   40 1  
    44   21   41 1  
    45   21   42 1  
    46   24   43 1  
    47   24   44 1  
    48   24   45 1  
    49   27   46 1  
    50   27   47 1  
    51   27   48 1  
    52   28   49 1  
    53   30   50 1  
@<TRIPOS>SUBSTRUCTURE
     1 28D         1

