### 
### Created by X-TOOL on Mon Sep 10 21:13:14 2018
### 

@<TRIPOS>MOLECULE
4mb9_ligand
   48    51     1     0     0
SMALL
GAST_HUCK


@<TRIPOS>ATOM
      1 C1         19.6720   34.1440    1.5880 C.3       1 28F        -0.0450
      2 C2         19.3310   32.6640    1.6460 C.3       1 28F         0.0293
      3 O5         18.4250   30.6560    3.4840 O.2       1 28F        -0.3851
      4 N6         16.3570   31.6800    3.5350 N.am      1 28F        -0.1750
      5 C7         15.8560   30.8820    4.5510 C.2       1 28F         0.2128
      6 C9         14.4580   30.2610    6.1410 C.ar      1 28F         0.0250
      7 C10        13.3900   30.2380    7.0330 C.ar      1 28F        -0.0411
      8 C11        13.2760   29.1960    7.9380 C.ar      1 28F         0.0401
      9 C12        14.2900   28.2150    7.8880 C.ar      1 28F         0.1634
     10 C14        15.3820   29.2300    6.2210 C.ar      1 28F         0.1080
     11 C19        15.5200   24.8970   11.0550 C.3       1 28F        -0.0220
     12 C20        16.4290   23.8420   10.4470 C.3       1 28F         0.0481
     13 C22        14.4510   23.8690    9.2480 C.3       1 28F         0.0530
     14 C24        11.3820   28.0240    9.1570 C.ar      1 28F         0.0341
     15 N25        10.3790   27.9860   10.0550 N.ar      1 28F        -0.2645
     16 N3         17.9930   32.4950    2.1510 N.am      1 28F        -0.2657
     17 C4         17.6620   31.5450    3.0940 C.2       1 28F         0.3019
     18 N8         14.7460   31.2010    5.1850 N.2       1 28F        -0.3091
     19 N13        15.3500   28.1880    7.0540 N.ar      1 28F        -0.2658
     20 S15        16.6620   29.3950    5.0390 S.3       1 28F         0.0457
     21 O16        14.1660   27.1790    8.7700 O.3       1 28F        -0.3013
     22 C17        15.1800   26.2000    8.9290 C.3       1 28F         0.0786
     23 C18        14.5820   25.2000    9.9150 C.3       1 28F         0.0128
     24 O21        15.7910   23.3600    9.2520 O.3       1 28F        -0.3794
     25 C23        12.1660   29.1390    8.9250 C.ar      1 28F         0.0328
     26 C26        10.1610   29.1160   10.7430 C.ar      1 28F         0.0879
     27 N27        10.8430   30.2630   10.6230 N.ar      1 28F        -0.2645
     28 C28        11.8280   30.2280    9.7040 C.ar      1 28F         0.0341
     29 H1         20.6943   34.2698    1.2020 H         1 28F         0.0249
     30 H2         19.6057   34.5754    2.5977 H         1 28F         0.0249
     31 H3         18.9629   34.6579    0.9223 H         1 28F         0.0249
     32 H4         20.0407   32.1508    2.3114 H         1 28F         0.0515
     33 H5         19.3980   32.2332    0.6361 H         1 28F         0.0515
     34 H6         15.7647   32.3661    3.1126 H         1 28F         0.2444
     35 H7         12.6514   31.0313    7.0195 H         1 28F         0.0644
     36 H8         16.0884   25.7905   11.3526 H         1 28F         0.0292
     37 H9         14.9759   24.5017   11.9255 H         1 28F         0.0292
     38 H10        16.5712   23.0140   11.1571 H         1 28F         0.0560
     39 H11        17.4052   24.2845   10.1994 H         1 28F         0.0560
     40 H12        14.0754   23.9795    8.2200 H         1 28F         0.0563
     41 H13        13.7781   23.2093    9.8154 H         1 28F         0.0563
     42 H14        11.5866   27.1279    8.5824 H         1 28F         0.0928
     43 H15        17.2717   33.0934    1.8022 H         1 28F         0.1856
     44 H16        16.0967   26.6503    9.3375 H         1 28F         0.0623
     45 H17        15.4068   25.7134    7.9689 H         1 28F         0.0623
     46 H18        13.6139   25.5707   10.2830 H         1 28F         0.0350
     47 H19         9.3543   29.1000   11.4669 H         1 28F         0.1108
     48 H20        12.4058   31.1344    9.5639 H         1 28F         0.0928
@<TRIPOS>BOND
     1    2    1 1  
     2   16    2 1  
     3   17    3 2  
     4    5    4 1  
     5    4   17 am 
     6    5   18 2  
     7   20    5 1  
     8    7    6 ar 
     9   10    6 ar 
    10    6   18 1  
    11    8    7 ar 
    12    9    8 ar 
    13    8   25 1  
    14    9   19 ar 
    15   21    9 1  
    16   19   10 ar 
    17   10   20 1  
    18   11   12 1  
    19   23   11 1  
    20   24   12 1  
    21   23   13 1  
    22   13   24 1  
    23   14   15 ar 
    24   25   14 ar 
    25   15   26 ar 
    26   17   16 am 
    27   22   21 1  
    28   22   23 1  
    29   25   28 ar 
    30   26   27 ar 
    31   27   28 ar 
    32    1   29 1  
    33    1   30 1  
    34    1   31 1  
    35    2   32 1  
    36    2   33 1  
    37    4   34 1  
    38    7   35 1  
    39   11   36 1  
    40   11   37 1  
    41   12   38 1  
    42   12   39 1  
    43   13   40 1  
    44   13   41 1  
    45   14   42 1  
    46   16   43 1  
    47   22   44 1  
    48   22   45 1  
    49   23   46 1  
    50   26   47 1  
    51   28   48 1  
@<TRIPOS>SUBSTRUCTURE
     1 28F         1

