### 
### Created by X-TOOL on Mon Sep 10 21:13:13 2018
### 

@<TRIPOS>MOLECULE
4mbc_ligand
   56    59     1     0     0
SMALL
GAST_HUCK


@<TRIPOS>ATOM
      1 C1         19.1340   34.6860    1.8490 C.2       1 28G        -0.1156
      2 C2         19.6590   33.5670    1.3240 C.2       1 28G        -0.0675
      3 C3         19.0560   32.2220    1.5370 C.3       1 28G         0.0601
      4 C8         15.6100   30.9350    4.7280 C.2       1 28G         0.2127
      5 C10        14.1850   30.3800    6.3300 C.ar      1 28G         0.0245
      6 C11        13.0980   30.4640    7.1810 C.ar      1 28G        -0.0421
      7 C12        12.9680   29.4170    8.0810 C.ar      1 28G         0.0347
      8 C13        13.9050   28.3780    8.0700 C.ar      1 28G         0.1627
      9 C15        15.0580   29.3040    6.4120 C.ar      1 28G         0.1076
     10 O17        13.7440   27.3420    9.0020 O.3       1 28G        -0.2967
     11 C19        13.8320   25.0160    8.7430 C.3       1 28G        -0.0028
     12 C21        12.0730   25.4280   10.3510 C.3       1 28G        -0.0077
     13 C22        11.6840   25.1510   11.7910 C.3       1 28G         0.0878
     14 C24        12.4230   22.9410   11.4560 C.3       1 28G         0.0878
     15 C27        10.9940   28.3290    9.1000 C.ar      1 28G        -0.0376
     16 C31        11.5570   30.4830    9.8410 C.ar      1 28G         0.0161
     17 C28         9.9580   28.3490   10.0190 C.ar      1 28G        -0.0357
     18 C29         9.7780   29.4620   10.8140 C.ar      1 28G         0.0091
     19 C26        11.8430   29.4210    9.0150 C.ar      1 28G         0.0079
     20 C5         17.3290   31.4290    3.1260 C.2       1 28G         0.3041
     21 C25        12.8200   23.2740   10.0260 C.3       1 28G        -0.0077
     22 C18        14.6820   26.2720    8.8660 C.3       1 28G         0.1132
     23 N30        10.5560   30.5600   10.7420 N.ar      1 28G        -0.2984
     24 N9         14.5340   31.2930    5.3570 N.2       1 28G        -0.3093
     25 N14        14.9630   28.2610    7.2640 N.ar      1 28G        -0.2663
     26 N20        13.2750   24.6580   10.0490 N.4       1 28G         0.2404
     27 N7         16.1020   31.7310    3.7070 N.am      1 28G        -0.1748
     28 N4         17.6870   32.2540    2.1220 N.am      1 28G        -0.2533
     29 O6         18.0450   30.5200    3.4960 O.2       1 28G        -0.3850
     30 O23        11.3190   23.7600   11.8730 O.3       1 28G        -0.3693
     31 S16        16.3240   29.4320    5.2530 S.3       1 28G         0.0454
     32 H1         19.6098   35.6484    1.6663 H         1 28G         0.0290
     33 H2         18.2325   34.6310    2.4574 H         1 28G         0.0290
     34 H3         20.5609   33.6462    0.7189 H         1 28G         0.0692
     35 H4         19.7087   31.6547    2.2168 H         1 28G         0.0698
     36 H5         19.0043   31.7090    0.5653 H         1 28G         0.0698
     37 H6         12.3970   31.2901    7.1469 H         1 28G         0.0639
     38 H7         14.4559   24.1886    8.3740 H         1 28G         0.0842
     39 H8         13.0106   25.2000    8.0348 H         1 28G         0.0842
     40 H9         12.2751   26.5012   10.2194 H         1 28G         0.0837
     41 H10        11.2569   25.1235    9.6793 H         1 28G         0.0837
     42 H11        10.8305   25.7823   12.0790 H         1 28G         0.0613
     43 H12        12.5343   25.3575   12.4576 H         1 28G         0.0613
     44 H13        13.2800   23.1218   12.1215 H         1 28G         0.0613
     45 H14        12.1308   21.8821   11.5138 H         1 28G         0.0613
     46 H15        11.1390   27.4698    8.4552 H         1 28G         0.0725
     47 H16        12.2039   31.3490    9.7594 H         1 28G         0.0815
     48 H17         9.2941   27.4972   10.1128 H         1 28G         0.0704
     49 H18         8.9681   29.4529   11.5345 H         1 28G         0.0806
     50 H19        11.9556   23.1667    9.3542 H         1 28G         0.0837
     51 H20        13.6304   22.6106    9.6897 H         1 28G         0.0837
     52 H21        15.3325   26.2133    9.7511 H         1 28G         0.0673
     53 H22        15.2990   26.4108    7.9660 H         1 28G         0.0673
     54 H23        13.9733   24.7967   10.7626 H         1 28G         0.2036
     55 H24        15.5768   32.5202    3.3886 H         1 28G         0.2444
     56 H25        17.0172   32.9031    1.7614 H         1 28G         0.1888
@<TRIPOS>BOND
     1    2    1 2  
     2    3    2 1  
     3   28    3 1  
     4    4   24 2  
     5   27    4 1  
     6    4   31 1  
     7    5    6 ar 
     8    9    5 ar 
     9   24    5 1  
    10    6    7 ar 
    11    8    7 ar 
    12    7   19 1  
    13    8   10 1  
    14   25    8 ar 
    15    9   25 ar 
    16   31    9 1  
    17   10   22 1  
    18   22   11 1  
    19   11   26 1  
    20   12   13 1  
    21   26   12 1  
    22   13   30 1  
    23   14   21 1  
    24   30   14 1  
    25   15   17 ar 
    26   19   15 ar 
    27   19   16 ar 
    28   16   23 ar 
    29   17   18 ar 
    30   23   18 ar 
    31   20   27 am 
    32   20   28 am 
    33   20   29 2  
    34   21   26 1  
    35    1   32 1  
    36    1   33 1  
    37    2   34 1  
    38    3   35 1  
    39    3   36 1  
    40    6   37 1  
    41   11   38 1  
    42   11   39 1  
    43   12   40 1  
    44   12   41 1  
    45   13   42 1  
    46   13   43 1  
    47   14   44 1  
    48   14   45 1  
    49   15   46 1  
    50   16   47 1  
    51   17   48 1  
    52   18   49 1  
    53   21   50 1  
    54   21   51 1  
    55   22   52 1  
    56   22   53 1  
    57   26   54 1  
    58   27   55 1  
    59   28   56 1  
@<TRIPOS>SUBSTRUCTURE
     1 28G         1

