### 
### Created by X-TOOL on Mon Sep 10 21:13:17 2018
### 

@<TRIPOS>MOLECULE
4mbf_ligand
   46    45     1     0     0
SMALL
GAST_HUCK


@<TRIPOS>ATOM
      1 OAC        13.7680   33.0550    3.1290 O.co2     1 2AW        -0.5690
      2 CAT        12.8370   33.8380    2.8850 C.2       1 2AW         0.0348
      3 OAH        12.9960   35.0070    2.4620 O.co2     1 2AW        -0.5690
      4 CAO        11.4150   33.3140    3.1860 C.3       1 2AW         0.0003
      5 CAM        10.3130   33.9590    2.3170 C.3       1 2AW        -0.0393
      6 CAN        10.5440   33.6700    0.8270 C.3       1 2AW        -0.0333
      7 CAP         9.3910   34.2230   -0.0230 C.3       1 2AW         0.0488
      8 CAV         9.3790   35.7510   -0.0310 C.2       1 2AW         0.2338
      9 OAE        10.1760   36.3710   -0.7360 O.2       1 2AW        -0.3704
     10 OAS         8.4390   36.3000    0.7990 O.3       1 2AW        -0.2745
     11 CG1         8.4940   37.7140    1.0430 C.3       1 2AW         0.1042
     12 CB          7.3130   38.1690    1.9240 C.3       1 2AW         0.1364
     13 CG2         6.0090   38.1270    1.1180 C.3       1 2AW        -0.0346
     14 SAX         7.6150   40.0120    2.4520 S.o2      1 2AW        -0.0303
     15 OAF         8.1790   40.7000    1.2170 O.2       1 2AW        -0.1763
     16 OAG         8.7010   40.0450    3.5270 O.2       1 2AW        -0.1763
     17 CA          7.1960   37.2800    3.1840 C.3       1 2AW         0.0882
     18 C           6.0410   37.7640    4.0760 C.2       1 2AW         0.0541
     19 OXT         6.2530   38.7500    4.8270 O.co2     1 2AW        -0.5673
     20 O           4.9640   37.1380    4.0000 O.co2     1 2AW        -0.5673
     21 N           8.4470   37.3520    3.9570 N.3       1 2AW        -0.2975
     22 CAL         8.7950   36.3610    4.7670 C.3       1 2AW         0.0134
     23 CAK         7.9530   35.1230    4.8110 C.3       1 2AW         0.0316
     24 CAJ         8.5190   34.0630    5.7330 C.2       1 2AW         0.1004
     25 OAB         9.5240   34.2010    6.4190 O.2       1 2AW        -0.3749
     26 H1         11.1869   33.5186    4.2425 H         1 2AW         0.0430
     27 H2         11.4020   32.2280    3.0117 H         1 2AW         0.0430
     28 H3         10.3202   35.0472    2.4771 H         1 2AW         0.0284
     29 H4          9.3359   33.5510    2.6147 H         1 2AW         0.0284
     30 H5         10.6124   32.5824    0.6773 H         1 2AW         0.0292
     31 H6         11.4847   34.1437    0.5098 H         1 2AW         0.0292
     32 H7          8.4379   33.8610    0.3899 H         1 2AW         0.0518
     33 H8          9.5040   33.8618   -1.0558 H         1 2AW         0.0518
     34 H9          8.4518   38.2469    0.0816 H         1 2AW         0.0637
     35 H10         9.4378   37.9544    1.5544 H         1 2AW         0.0637
     36 H11         5.1736   38.4531    1.7550 H         1 2AW         0.0253
     37 H12         5.8257   37.0996    0.7704 H         1 2AW         0.0253
     38 H13         6.0923   38.7982    0.2505 H         1 2AW         0.0253
     39 H14         6.7668   40.4509    2.7745 H         1 2AW         0.2100
     40 H15         7.0109   36.2399    2.8777 H         1 2AW         0.0652
     41 H16         8.3840   38.2418    4.5658 H         1 2AW         0.1243
     42 H17         8.8156   36.7719    5.7871 H         1 2AW         0.0451
     43 H18         9.8092   36.0496    4.4765 H         1 2AW         0.0451
     44 H19         7.8865   34.7065    3.7951 H         1 2AW         0.0506
     45 H20         6.9467   35.3942    5.1627 H         1 2AW         0.0506
     46 H21         7.9948   33.1101    5.7899 H         1 2AW         0.1349
@<TRIPOS>BOND
     1    1    2 ar 
     2    2    3 ar 
     3    2    4 1  
     4    4    5 1  
     5    5    6 1  
     6    6    7 1  
     7    7    8 1  
     8    8    9 2  
     9    8   10 1  
    10   10   11 1  
    11   11   12 1  
    12   12   13 1  
    13   12   14 1  
    14   12   17 1  
    15   14   15 2  
    16   14   16 2  
    17   17   18 1  
    18   17   21 1  
    19   18   19 ar 
    20   18   20 ar 
    21   21   22 1  
    22   22   23 1  
    23   23   24 1  
    24   24   25 2  
    25    4   26 1  
    26    4   27 1  
    27    5   28 1  
    28    5   29 1  
    29    6   30 1  
    30    6   31 1  
    31    7   32 1  
    32    7   33 1  
    33   11   34 1  
    34   11   35 1  
    35   13   36 1  
    36   13   37 1  
    37   13   38 1  
    38   14   39 1  
    39   17   40 1  
    40   21   41 1  
    41   22   42 1  
    42   22   43 1  
    43   23   44 1  
    44   23   45 1  
    45   24   46 1  
@<TRIPOS>SUBSTRUCTURE
     1 2AW         1

