### 
### Created by X-TOOL on Mon Sep 10 21:13:15 2018
### 

@<TRIPOS>MOLECULE
4mbi_ligand
   39    41     1     0     0
SMALL
GAST_HUCK


@<TRIPOS>ATOM
      1 N1         23.5870   32.9630   -5.0260 N.4       1 26K         0.2323
      2 N3         23.6600   38.0040   -0.3540 N.ar      1 26K        -0.2180
      3 C4         22.2440   34.8110   -4.0750 C.3       1 26K         0.0678
      4 C5         22.9020   36.7940   -2.6990 C.ar      1 26K         0.1288
      5 C6         23.3550   38.1330   -2.6700 C.ar      1 26K         0.0090
      6 C7         23.7500   38.7250   -1.4760 C.ar      1 26K         0.0352
      7 C8         23.2120   36.7370   -0.3880 C.ar      1 26K         0.1466
      8 C10        22.9170   35.0480    1.4240 C.2       1 26K         0.0851
      9 C13        23.7610   37.3500    1.7530 C.2       1 26K         0.1407
     10 C2         23.7340   31.6320   -4.4470 C.3       1 26K        -0.0433
     11 C1         22.3740   33.0070   -5.8240 C.3       1 26K        -0.0433
     12 C3         23.5290   33.9720   -3.9900 C.3       1 26K        -0.0118
     13 N2         22.5520   36.2280   -3.8890 N.pl3     1 26K        -0.2985
     14 N7         22.8430   36.0900   -1.5300 N.ar      1 26K        -0.2484
     15 C9         23.2760   36.3220    0.9390 C.2       1 26K         0.1093
     16 C12        22.4430   33.9930    0.6430 C.2       1 26K         0.1260
     17 N5         22.2060   32.9660    1.4880 N.pl3     1 26K        -0.1712
     18 N4         22.5430   33.4050    2.7730 N.2       1 26K        -0.1751
     19 C11        22.9900   34.6940    2.7670 C.2       1 26K         0.0517
     20 N6         24.0200   38.4390    0.9360 N.pl3     1 26K        -0.1701
     21 H1         24.3800   33.1511   -5.6192 H         1 26K         0.2028
     22 H2         21.5450   34.4853   -3.2906 H         1 26K         0.0573
     23 H3         21.7806   34.6666   -5.0621 H         1 26K         0.0573
     24 H4         23.3948   38.7049   -3.5900 H         1 26K         0.0707
     25 H5         24.1208   39.7434   -1.4553 H         1 26K         0.0877
     26 H6         23.9082   37.3035    2.8310 H         1 26K         0.1629
     27 H7         23.7756   30.8842   -5.2527 H         1 26K         0.0777
     28 H8         22.8750   31.4195   -3.7935 H         1 26K         0.0777
     29 H9         24.6622   31.5887   -3.8583 H         1 26K         0.0777
     30 H10        22.2597   34.0094   -6.2624 H         1 26K         0.0777
     31 H11        21.5065   32.7852   -5.1851 H         1 26K         0.0777
     32 H12        22.4373   32.2599   -6.6289 H         1 26K         0.0777
     33 H13        24.3967   34.6397   -4.0955 H         1 26K         0.0834
     34 H14        23.5651   33.4761   -3.0088 H         1 26K         0.0834
     35 H15        22.5010   36.8417   -4.7147 H         1 26K         0.1825
     36 H16        22.2935   33.9969   -0.4357 H         1 26K         0.1538
     37 H17        21.8452   32.0352    1.2341 H         1 26K         0.2773
     38 H18        23.3230   35.2988    3.6092 H         1 26K         0.0780
     39 H19        24.3921   39.3594    1.2105 H         1 26K         0.2836
@<TRIPOS>BOND
     1    1   10 1  
     2    1   11 1  
     3   12    1 1  
     4    6    2 ar 
     5    2    7 ar 
     6    2   20 1  
     7    3   12 1  
     8   13    3 1  
     9    5    4 ar 
    10    4   13 1  
    11    4   14 ar 
    12    5    6 ar 
    13    7   14 ar 
    14    7   15 1  
    15   15    8 1  
    16    8   16 2  
    17    8   19 1  
    18   15    9 2  
    19    9   20 1  
    20   16   17 1  
    21   17   18 1  
    22   18   19 2  
    23    1   21 1  
    24    3   22 1  
    25    3   23 1  
    26    5   24 1  
    27    6   25 1  
    28    9   26 1  
    29   10   27 1  
    30   10   28 1  
    31   10   29 1  
    32   11   30 1  
    33   11   31 1  
    34   11   32 1  
    35   12   33 1  
    36   12   34 1  
    37   13   35 1  
    38   16   36 1  
    39   17   37 1  
    40   19   38 1  
    41   20   39 1  
@<TRIPOS>SUBSTRUCTURE
     1 26K         1

