### 
### Created by X-TOOL on Mon Sep 10 21:13:16 2018
### 

@<TRIPOS>MOLECULE
4mbj_ligand
   42    44     1     0     0
SMALL
GAST_HUCK


@<TRIPOS>ATOM
      1 C1         16.2590  -23.7990   -0.1980 C.ar      1 DFS         0.0957
      2 C2         17.4560  -24.4170   -0.0890 C.ar      1 DFS         0.0884
      3 N3         17.7270  -25.6840   -0.4870 N.ar      1 DFS        -0.3130
      4 C4         16.6600  -26.3320   -1.0400 C.ar      1 DFS         0.0186
      5 C5         15.4060  -25.7910   -1.1960 C.ar      1 DFS         0.0820
      6 C6         15.2000  -24.4810   -0.7610 C.ar      1 DFS        -0.0011
      7 N7         16.2650  -22.5000    0.2910 N.pl3     1 DFS        -0.2486
      8 C8         17.5310  -22.3890    0.6940 C.2       1 DFS         0.1039
      9 N9         18.2980  -23.4790    0.5050 N.2       1 DFS        -0.2971
     10 N10        14.3230  -26.5040   -1.7800 N.am      1 DFS        -0.2333
     11 C11        13.0510  -26.0880   -1.8880 C.2       1 DFS         0.2272
     12 C12        12.1040  -27.0190   -2.5950 C.ar      1 DFS         0.1074
     13 O13        12.6510  -24.9960   -1.4870 O.2       1 DFS        -0.3777
     14 C14        12.5620  -28.0230   -3.3660 C.ar      1 DFS         0.1673
     15 C15        11.6170  -28.8850   -4.0740 C.ar      1 DFS         0.0978
     16 C16        10.3060  -28.6950   -3.9640 C.ar      1 DFS        -0.0440
     17 C17         9.8510  -27.6880   -3.1730 C.ar      1 DFS        -0.0421
     18 C18        10.7740  -26.8280   -2.4830 C.ar      1 DFS         0.1335
     19 F19        10.3160  -25.8050   -1.7090 F         1 DFS        -0.1929
     20 F20        13.8870  -28.2120   -3.4720 F         1 DFS        -0.1906
     21 N21        11.9140  -29.7850   -4.8040 N.am      1 DFS        -0.1922
     22 S22        10.8450  -30.8020   -5.6760 S.o2      1 DFS         0.0588
     23 C23         9.8160  -31.5270   -4.3500 C.3       1 DFS         0.0894
     24 C24         8.4260  -31.9050   -4.8800 C.3       1 DFS        -0.0342
     25 C25         7.4940  -30.6890   -5.0250 C.3       1 DFS        -0.0637
     26 O26         9.9630  -29.9710   -6.5260 O.2       1 DFS        -0.1502
     27 O27        11.6180  -31.8810   -6.3220 O.2       1 DFS        -0.1502
     28 H1         16.8132  -27.3493   -1.3816 H         1 DFS         0.0664
     29 H2         14.2292  -24.0096   -0.8632 H         1 DFS         0.0536
     30 H3         15.5008  -21.8107    0.3314 H         1 DFS         0.2347
     31 H4         17.9188  -21.4773    1.1460 H         1 DFS         0.1349
     32 H5         14.5305  -27.4100   -2.1488 H         1 DFS         0.2251
     33 H6          9.6107  -29.3334   -4.4970 H         1 DFS         0.0495
     34 H7          8.7841  -27.5319   -3.0614 H         1 DFS         0.0539
     35 H8         12.8914  -29.9632   -4.9177 H         1 DFS         0.2130
     36 H9          9.7045  -30.7928   -3.5385 H         1 DFS         0.0523
     37 H10        10.3113  -32.4295   -3.9625 H         1 DFS         0.0523
     38 H11         7.9657  -32.6197   -4.1819 H         1 DFS         0.0279
     39 H12         8.5423  -32.3786   -5.8660 H         1 DFS         0.0279
     40 H13         6.5168  -31.0195   -5.4069 H         1 DFS         0.0230
     41 H14         7.9377  -29.9686   -5.7279 H         1 DFS         0.0230
     42 H15         7.3612  -30.2097   -4.0439 H         1 DFS         0.0230
@<TRIPOS>BOND
     1    1    2 ar 
     2    1    6 ar 
     3    1    7 1  
     4    2    3 ar 
     5    2    9 1  
     6    3    4 ar 
     7    4    5 ar 
     8    5    6 ar 
     9    5   10 1  
    10    7    8 1  
    11    8    9 2  
    12   10   11 am 
    13   11   12 1  
    14   11   13 2  
    15   12   14 ar 
    16   12   18 ar 
    17   14   15 ar 
    18   14   20 1  
    19   15   16 ar 
    20   15   21 1  
    21   16   17 ar 
    22   17   18 ar 
    23   18   19 1  
    24   21   22 am 
    25   22   23 1  
    26   22   26 2  
    27   22   27 2  
    28   23   24 1  
    29   24   25 1  
    30    4   28 1  
    31    6   29 1  
    32    7   30 1  
    33    8   31 1  
    34   10   32 1  
    35   16   33 1  
    36   17   34 1  
    37   21   35 1  
    38   23   36 1  
    39   23   37 1  
    40   24   38 1  
    41   24   39 1  
    42   25   40 1  
    43   25   41 1  
    44   25   42 1  
@<TRIPOS>SUBSTRUCTURE
     1 DFS         1

