### 
### Created by X-TOOL on Mon Sep 10 21:13:15 2018
### 

@<TRIPOS>MOLECULE
4mbl_ligand
   51    55     1     0     0
SMALL
GAST_HUCK


@<TRIPOS>ATOM
      1 N1         39.7570    5.3910    4.8560 N.4       1 26L         0.2224
      2 C1         40.3720    4.1270    5.2870 C.3       1 26L        -0.0006
      3 C6         39.9930    2.9580    4.3780 C.3       1 26L         0.0838
      4 C5         40.5250    1.6450    4.9470 C.3       1 26L        -0.0243
      5 C4         42.0520    1.6970    5.0560 C.3       1 26L        -0.0505
      6 C3         42.5420    2.9360    5.8480 C.3       1 26L        -0.0478
      7 C2         41.8880    4.2470    5.3730 C.3       1 26L        -0.0076
      8 N2         38.6050    2.9470    3.9740 N.pl3     1 26L        -0.2909
      9 C7         38.3500    3.0960    2.6320 C.2       1 26L         0.1159
     10 C22        37.0690    3.4110    2.2050 C.2       1 26L         0.0329
     11 C21        36.7920    3.4670    0.8670 C.2       1 26L         0.1127
     12 N5         37.8630    3.2870    0.0070 N.pl3     1 26L        -0.1368
     13 C8         39.1270    3.0300    0.5100 C.2       1 26L         0.1613
     14 N3         39.3690    2.9170    1.8110 N.2       1 26L        -0.2599
     15 N4         37.8410    3.4020   -1.3400 N.2       1 26L        -0.2099
     16 C20        39.1270    3.1090   -1.7280 C.2       1 26L        -0.0071
     17 C9         39.9880    2.9290   -0.6290 C.2       1 26L         0.0073
     18 C10        41.4480    2.6180   -0.6650 C.ar      1 26L        -0.0467
     19 C19        42.1340    2.5810   -1.8830 C.ar      1 26L        -0.0639
     20 C18        43.4620    2.2620   -1.9360 C.ar      1 26L        -0.0585
     21 C17        44.1960    1.9890   -0.7520 C.ar      1 26L        -0.0240
     22 C12        43.5130    2.0340    0.4920 C.ar      1 26L        -0.0299
     23 C11        42.1320    2.3590    0.5040 C.ar      1 26L        -0.0646
     24 C16        45.5990    1.7540   -0.7480 C.ar      1 26L        -0.0580
     25 C15        46.2620    1.5010    0.4230 C.ar      1 26L        -0.0646
     26 C14        45.5910    1.5210    1.6320 C.ar      1 26L        -0.0650
     27 C13        44.2410    1.7580    1.6780 C.ar      1 26L        -0.0595
     28 H1         40.0342    6.1303    5.4826 H         1 26L         0.1998
     29 H2         38.7534    5.2980    4.8692 H         1 26L         0.1998
     30 H3         40.0618    5.6113    3.9208 H         1 26L         0.1998
     31 H4         39.9931    3.9034    6.2952 H         1 26L         0.0873
     32 H5         40.5518    3.1170    3.4440 H         1 26L         0.0616
     33 H6         40.2360    0.8173    4.2827 H         1 26L         0.0290
     34 H7         40.0947    1.4808    5.9459 H         1 26L         0.0290
     35 H8         42.4782    1.7335    4.0426 H         1 26L         0.0266
     36 H9         42.4015    0.7885    5.5683 H         1 26L         0.0266
     37 H10        43.6317    3.0227    5.7254 H         1 26L         0.0267
     38 H11        42.3031    2.7898    6.9117 H         1 26L         0.0267
     39 H12        42.1416    5.0483    6.0826 H         1 26L         0.0320
     40 H13        42.2817    4.5005    4.3776 H         1 26L         0.0320
     41 H14        37.8441    2.8330    4.6588 H         1 26L         0.1864
     42 H15        36.2852    3.6134    2.9335 H         1 26L         0.0597
     43 H16        35.7831    3.6437    0.4972 H         1 26L         0.1356
     44 H17        39.4433    3.0257   -2.7667 H         1 26L         0.0663
     45 H18        41.6037    2.8091   -2.8005 H         1 26L         0.0576
     46 H19        43.9623    2.2168   -2.8966 H         1 26L         0.0616
     47 H20        41.6046    2.4046    1.4500 H         1 26L         0.0493
     48 H21        46.1490    1.7754   -1.6819 H         1 26L         0.0615
     49 H22        47.3236    1.2828    0.4021 H         1 26L         0.0588
     50 H23        46.1373    1.3477    2.5521 H         1 26L         0.0608
     51 H24        43.7246    1.7342    2.6308 H         1 26L         0.0593
@<TRIPOS>BOND
     1    1    2 1  
     2    2    3 1  
     3    2    7 1  
     4    3    4 1  
     5    3    8 1  
     6    4    5 1  
     7    5    6 1  
     8    6    7 1  
     9    8    9 1  
    10    9   10 1  
    11    9   14 2  
    12   10   11 2  
    13   11   12 1  
    14   12   13 1  
    15   12   15 1  
    16   13   14 1  
    17   13   17 2  
    18   15   16 2  
    19   16   17 1  
    20   17   18 1  
    21   18   19 ar 
    22   18   23 ar 
    23   19   20 ar 
    24   20   21 ar 
    25   21   22 ar 
    26   21   24 ar 
    27   22   23 ar 
    28   22   27 ar 
    29   24   25 ar 
    30   25   26 ar 
    31   26   27 ar 
    32    1   28 1  
    33    1   29 1  
    34    1   30 1  
    35    2   31 1  
    36    3   32 1  
    37    4   33 1  
    38    4   34 1  
    39    5   35 1  
    40    5   36 1  
    41    6   37 1  
    42    6   38 1  
    43    7   39 1  
    44    7   40 1  
    45    8   41 1  
    46   10   42 1  
    47   11   43 1  
    48   16   44 1  
    49   19   45 1  
    50   20   46 1  
    51   23   47 1  
    52   24   48 1  
    53   25   49 1  
    54   26   50 1  
    55   27   51 1  
@<TRIPOS>SUBSTRUCTURE
     1 26L         1

