### 
### Created by X-TOOL on Fri Nov 18 12:18:11 2016
### 

@<TRIPOS>MOLECULE
4mbp_ligand
   87    90     1     0     0
SMALL
GAST_HUCK


@<TRIPOS>ATOM
      1 C1          9.7690   24.4750   40.2340 C.3       1 MOL         0.1884
      2 C2          8.8510   24.3510   38.9850 C.3       1 MOL         0.1341
      3 C3          9.6210   24.0810   37.7540 C.3       1 MOL         0.1141
      4 C4         10.6010   25.2840   37.5690 C.3       1 MOL         0.1119
      5 C5         11.4420   25.6590   38.7620 C.3       1 MOL         0.1130
      6 C6         11.8090   27.1020   38.5630 C.3       1 MOL         0.0730
      7 O2          8.0180   23.2330   39.1270 O.3       1 MOL        -0.3841
      8 O3          8.7260   23.8070   36.6470 O.3       1 MOL        -0.3864
      9 O4         11.6000   24.8260   36.6220 O.3       1 MOL        -0.3865
     10 O5         10.7280   25.5230   40.0920 O.3       1 MOL        -0.3405
     11 O6         12.5080   27.4940   39.7270 O.3       1 MOL        -0.3924
     12 C1         11.7860   20.6510   43.4410 C.3       1 MOL         0.1884
     13 C2         10.6240   21.4490   43.8680 C.3       1 MOL         0.1341
     14 C3          9.9910   22.1520   42.6020 C.3       1 MOL         0.1144
     15 C4         11.0290   22.9390   41.7420 C.3       1 MOL         0.1184
     16 C5         12.2730   22.1290   41.5090 C.3       1 MOL         0.1134
     17 C6         13.5030   22.9820   41.0500 C.3       1 MOL         0.0730
     18 O2          9.7190   20.4990   44.4970 O.3       1 MOL        -0.3841
     19 O3          8.9760   23.1470   42.9850 O.3       1 MOL        -0.3864
     20 O4         10.4080   23.1840   40.4480 O.3       1 MOL        -0.3401
     21 O5         12.6720   21.4350   42.7350 O.3       1 MOL        -0.3405
     22 O6         14.3560   21.9910   40.5250 O.3       1 MOL        -0.3924
     23 C1         11.8270   15.5020   41.9730 C.3       1 MOL         0.1884
     24 C2         11.2230   15.9680   43.3800 C.3       1 MOL         0.1341
     25 C3         10.7170   17.3690   43.2040 C.3       1 MOL         0.1144
     26 C4         11.8760   18.2890   42.7800 C.3       1 MOL         0.1184
     27 C5         12.5320   17.7740   41.4790 C.3       1 MOL         0.1134
     28 C6         13.8960   18.4540   41.2530 C.3       1 MOL         0.0730
     29 O2         10.1280   15.0440   43.6340 O.3       1 MOL        -0.3841
     30 O3         10.1180   17.9470   44.5340 O.3       1 MOL        -0.3864
     31 O4         11.3110   19.5910   42.5640 O.3       1 MOL        -0.3401
     32 O5         12.8380   16.4190   41.5810 O.3       1 MOL        -0.3405
     33 O6         14.2380   18.0360   39.7960 O.3       1 MOL        -0.3924
     34 C1          9.0230   13.0360   38.0450 C.3       1 MOL         0.1854
     35 C2          9.2270   12.4600   39.6130 C.3       1 MOL         0.1339
     36 C3          9.4290   13.5370   40.5980 C.3       1 MOL         0.1144
     37 C4         10.5120   14.4930   40.2080 C.3       1 MOL         0.1184
     38 C5         10.2640   15.1240   38.7320 C.3       1 MOL         0.1134
     39 C6         11.5610   15.8780   38.2510 C.3       1 MOL         0.0730
     40 O1          7.9070   13.9670   38.0220 O.3       1 MOL        -0.3649
     41 O2          8.0160   11.7690   39.8340 O.3       1 MOL        -0.3841
     42 O3          9.8620   13.0090   41.9460 O.3       1 MOL        -0.3864
     43 O4         10.7120   15.5950   41.0970 O.3       1 MOL        -0.3401
     44 O5         10.0180   14.0260   37.9230 O.3       1 MOL        -0.3407
     45 O6         11.0910   16.4510   37.0520 O.3       1 MOL        -0.3924
     46 H1          9.1430   24.7072   41.1082 H         1 MOL         0.0938
     47 H2          8.2589   25.2713   38.8733 H         1 MOL         0.0671
     48 H3         10.2282   23.1764   37.9060 H         1 MOL         0.0648
     49 H4         10.0448   26.1606   37.2053 H         1 MOL         0.0647
     50 H5         12.3456   25.0320   38.7807 H         1 MOL         0.0647
     51 H6         10.9025   27.7126   38.4386 H         1 MOL         0.0584
     52 H7         12.4509   27.2137   37.6767 H         1 MOL         0.0584
     53 H8          7.4848   23.3338   39.9067 H         1 MOL         0.2101
     54 H9          8.1774   23.0617   36.8618 H         1 MOL         0.2100
     55 H10        11.1725   24.5594   35.8166 H         1 MOL         0.2100
     56 H11        11.9454   27.3850   40.4847 H         1 MOL         0.2095
     57 H12        12.2876   20.2211   44.3206 H         1 MOL         0.0938
     58 H13        10.9255   22.2172   44.5952 H         1 MOL         0.0671
     59 H14         9.5254   21.3727   41.9808 H         1 MOL         0.0648
     60 H15        11.2872   23.8870   42.2366 H         1 MOL         0.0651
     61 H16        12.0507   21.3864   40.7286 H         1 MOL         0.0647
     62 H17        13.9689   23.5036   41.8990 H         1 MOL         0.0584
     63 H18        13.2184   23.7150   40.2808 H         1 MOL         0.0584
     64 H19        10.1464   20.1066   45.2492 H         1 MOL         0.2101
     65 H20         8.5787   23.5099   42.2021 H         1 MOL         0.2100
     66 H21        13.9193   21.5463   39.8080 H         1 MOL         0.2095
     67 H22        12.2280   14.4785   42.0147 H         1 MOL         0.0938
     68 H23        11.9728   15.9249   44.1837 H         1 MOL         0.0671
     69 H24         9.9394   17.3700   42.4260 H         1 MOL         0.0648
     70 H25        12.6328   18.3325   43.5771 H         1 MOL         0.0651
     71 H26        11.8577   17.9587   40.6297 H         1 MOL         0.0647
     72 H27        14.6496   18.0802   41.9618 H         1 MOL         0.0584
     73 H28        13.8161   19.5472   41.3453 H         1 MOL         0.0584
     74 H29         9.5249   15.0600   42.9002 H         1 MOL         0.2101
     75 H30        10.7921   17.9623   45.2032 H         1 MOL         0.2100
     76 H31        13.5630   18.3561   39.2092 H         1 MOL         0.2095
     77 H32         9.0049   12.2491   37.2766 H         1 MOL         0.0935
     78 H33        10.0838   11.7720   39.6631 H         1 MOL         0.0671
     79 H34         8.4793   14.0820   40.7028 H         1 MOL         0.0648
     80 H35        11.4467   13.9136   40.1828 H         1 MOL         0.0651
     81 H36         9.4068   15.8134   38.7336 H         1 MOL         0.0647
     82 H37        12.3929   15.1814   38.0701 H         1 MOL         0.0584
     83 H38        11.8762   16.6461   38.9726 H         1 MOL         0.0584
     84 H39         7.9165   14.4509   37.2045 H         1 MOL         0.2126
     85 H40         8.0270   11.3825   40.7017 H         1 MOL         0.2101
     86 H41         9.9365   13.7312   42.5587 H         1 MOL         0.2100
     87 H42        10.3603   17.0273   37.2429 H         1 MOL         0.2095
@<TRIPOS>BOND
     1    1    2 1  
     2    1   10 1  
     3   20    1 1  
     4    2    3 1  
     5    2    7 1  
     6    3    4 1  
     7    3    8 1  
     8    5    4 1  
     9    4    9 1  
    10    5    6 1  
    11   10    5 1  
    12    6   11 1  
    13   12   13 1  
    14   12   21 1  
    15   31   12 1  
    16   13   14 1  
    17   13   18 1  
    18   14   15 1  
    19   14   19 1  
    20   16   15 1  
    21   15   20 1  
    22   16   17 1  
    23   21   16 1  
    24   17   22 1  
    25   23   24 1  
    26   23   32 1  
    27   43   23 1  
    28   24   25 1  
    29   24   29 1  
    30   25   26 1  
    31   25   30 1  
    32   27   26 1  
    33   26   31 1  
    34   27   28 1  
    35   32   27 1  
    36   28   33 1  
    37   35   34 1  
    38   34   40 1  
    39   34   44 1  
    40   36   35 1  
    41   35   41 1  
    42   37   36 1  
    43   36   42 1  
    44   37   38 1  
    45   37   43 1  
    46   38   39 1  
    47   38   44 1  
    48   39   45 1  
    49    1   46 1  
    50    2   47 1  
    51    3   48 1  
    52    4   49 1  
    53    5   50 1  
    54    6   51 1  
    55    6   52 1  
    56    7   53 1  
    57    8   54 1  
    58    9   55 1  
    59   11   56 1  
    60   12   57 1  
    61   13   58 1  
    62   14   59 1  
    63   15   60 1  
    64   16   61 1  
    65   17   62 1  
    66   17   63 1  
    67   18   64 1  
    68   19   65 1  
    69   22   66 1  
    70   23   67 1  
    71   24   68 1  
    72   25   69 1  
    73   26   70 1  
    74   27   71 1  
    75   28   72 1  
    76   28   73 1  
    77   29   74 1  
    78   30   75 1  
    79   33   76 1  
    80   34   77 1  
    81   35   78 1  
    82   36   79 1  
    83   37   80 1  
    84   38   81 1  
    85   39   82 1  
    86   39   83 1  
    87   40   84 1  
    88   41   85 1  
    89   42   86 1  
    90   45   87 1  
@<TRIPOS>SUBSTRUCTURE
     1 MOL         1

