### 
### Created by X-TOOL on Mon Sep 10 21:13:18 2018
### 

@<TRIPOS>MOLECULE
4mc1_ligand
   75    78     1     0     0
SMALL
GAST_HUCK


@<TRIPOS>ATOM
      1 C1          8.9590   27.2330    8.6300 C.ar      1 526        -0.0333
      2 C2          8.3160   27.7640    7.5350 C.ar      1 526         0.1260
      3 C3          8.4490   27.2100    6.2790 C.ar      1 526        -0.0252
      4 C4          9.2240   26.0830    6.0730 C.ar      1 526        -0.0181
      5 C5          9.8610   25.5500    7.1870 C.ar      1 526         0.1055
      6 C6          9.7310   26.1010    8.4490 C.ar      1 526        -0.0437
      7 C7          9.3100   25.6230    4.6470 C.3       1 526        -0.0134
      8 C8          9.4770   24.1440    4.2990 C.3       1 526        -0.0094
      9 C9         10.9280   23.6840    4.4010 C.3       1 526         0.0347
     10 N10        11.6210   24.1460    5.6180 N.am      1 526        -0.2324
     11 S11        10.8800   24.1010    7.1280 S.o2      1 526         0.0664
     12 C12        12.8850   24.8840    5.4960 C.3       1 526         0.0578
     13 C13        13.9950   23.9470    5.0690 C.3       1 526         0.0967
     14 C14        14.4060   22.8750    6.0740 C.3       1 526         0.0807
     15 O15        15.1220   24.7270    4.6900 O.3       1 526        -0.3877
     16 C16        15.1180   23.3780    7.3290 C.3       1 526         0.0064
     17 N17        15.2530   21.9450    5.3600 N.am      1 526        -0.2550
     18 C18        14.8290   20.6930    4.9700 C.2       1 526         0.3203
     19 O19        15.9150   20.0530    4.4320 O.3       1 526        -0.2582
     20 O20        13.7040   20.2240    5.0980 O.2       1 526        -0.3775
     21 C21        15.4030   22.2400    8.2540 C.ar      1 526        -0.0408
     22 C22        14.3960   21.7240    9.0530 C.ar      1 526        -0.0603
     23 C23        14.6620   20.6500    9.8820 C.ar      1 526        -0.0686
     24 C24        15.9260   20.0970    9.9070 C.ar      1 526        -0.0687
     25 C25        16.9360   20.6100    9.1130 C.ar      1 526        -0.0686
     26 C26        16.6720   21.6880    8.2900 C.ar      1 526        -0.0603
     27 O27        11.8840   24.2220    8.1450 O.2       1 526        -0.1517
     28 O28         9.9630   22.9740    7.1250 O.2       1 526        -0.1517
     29 C29         8.9010   23.8080    2.9150 C.3       1 526        -0.0316
     30 C30         7.3990   23.9550    2.9060 C.3       1 526        -0.0596
     31 C31         9.1530   22.3580    2.5280 C.3       1 526        -0.0596
     32 C32         9.4610   24.6810    1.8090 C.3       1 526        -0.0596
     33 F33         7.5660   28.8670    7.6950 F         1 526        -0.1853
     34 C34        15.6570   18.7880    3.8260 C.3       1 526         0.1134
     35 C35        17.0170   18.1990    3.5220 C.3       1 526         0.0782
     36 C36        15.0240   19.0190    2.4770 C.3       1 526         0.0034
     37 O37        17.3080   18.6270    2.1940 O.3       1 526        -0.3768
     38 C38        16.0770   18.5670    1.5030 C.3       1 526         0.0505
     39 H           8.8625   27.6904    9.6081 H         1 526         0.0547
     40 H           7.9374   27.6656    5.4389 H         1 526         0.0542
     41 H          10.2337   25.6458    9.2946 H         1 526         0.0609
     42 H          10.1691   26.1465    4.2022 H         1 526         0.0429
     43 H           8.3836   25.9557    4.1560 H         1 526         0.0429
     44 H           8.9004   23.5725    5.0412 H         1 526         0.0343
     45 H          11.4741   24.0664    3.5261 H         1 526         0.0482
     46 H          10.9434   22.5842    4.3910 H         1 526         0.0482
     47 H          13.1404   25.3315    6.4678 H         1 526         0.0504
     48 H          12.7710   25.6793    4.7447 H         1 526         0.0504
     49 H          13.6347   23.4143    4.1766 H         1 526         0.0634
     50 H          13.4957   22.3525    6.4030 H         1 526         0.0604
     51 H          15.4883   25.1469    5.4594 H         1 526         0.2100
     52 H          14.4767   24.1103    7.8413 H         1 526         0.0449
     53 H          16.0651   23.8578    7.0414 H         1 526         0.0449
     54 H          16.1880   22.2229    5.1395 H         1 526         0.1873
     55 H          13.4040   22.1603    9.0284 H         1 526         0.0557
     56 H          13.8788   20.2430   10.5113 H         1 526         0.0599
     57 H          16.1295   19.2523   10.5552 H         1 526         0.0559
     58 H          17.9264   20.1699    9.1363 H         1 526         0.0599
     59 H          17.4600   22.1022    7.6714 H         1 526         0.0557
     60 H           7.0125   23.7092    1.9059 H         1 526         0.0235
     61 H           7.1305   24.9914    3.1583 H         1 526         0.0235
     62 H           6.9592   23.2714    3.6472 H         1 526         0.0235
     63 H          10.2360   22.1660    2.5110 H         1 526         0.0235
     64 H           8.7309   22.1660    1.5305 H         1 526         0.0235
     65 H           8.6744   21.6939    3.2627 H         1 526         0.0235
     66 H           9.2949   25.7395    2.0578 H         1 526         0.0235
     67 H           8.9544   24.4431    0.8620 H         1 526         0.0235
     68 H          10.5399   24.4938    1.7048 H         1 526         0.0235
     69 H          15.0435   18.1388    4.4680 H         1 526         0.0671
     70 H          16.9853   17.1009    3.5774 H         1 526         0.0589
     71 H          17.7711   18.5801    4.2263 H         1 526         0.0589
     72 H          14.7878   20.0835    2.3323 H         1 526         0.0316
     73 H          14.1068   18.4217    2.3673 H         1 526         0.0316
     74 H          16.0983   19.2338    0.6284 H         1 526         0.0561
     75 H          15.8747   17.5370    1.1741 H         1 526         0.0561
@<TRIPOS>BOND
     1    1    2 ar 
     2    1    6 ar 
     3    2    3 ar 
     4    2   33 1  
     5    3    4 ar 
     6    4    5 ar 
     7    4    7 1  
     8    5    6 ar 
     9    5   11 1  
    10    7    8 1  
    11    8    9 1  
    12    8   29 1  
    13    9   10 1  
    14   10   11 am 
    15   10   12 1  
    16   11   27 2  
    17   11   28 2  
    18   12   13 1  
    19   13   14 1  
    20   13   15 1  
    21   14   16 1  
    22   14   17 1  
    23   16   21 1  
    24   17   18 am 
    25   18   19 1  
    26   18   20 2  
    27   19   34 1  
    28   21   22 ar 
    29   21   26 ar 
    30   22   23 ar 
    31   23   24 ar 
    32   24   25 ar 
    33   25   26 ar 
    34   29   30 1  
    35   29   31 1  
    36   29   32 1  
    37   34   35 1  
    38   34   36 1  
    39   35   37 1  
    40   36   38 1  
    41   37   38 1  
    42    1   39 1  
    43    3   40 1  
    44    6   41 1  
    45    7   42 1  
    46    7   43 1  
    47    8   44 1  
    48    9   45 1  
    49    9   46 1  
    50   12   47 1  
    51   12   48 1  
    52   13   49 1  
    53   14   50 1  
    54   15   51 1  
    55   16   52 1  
    56   16   53 1  
    57   17   54 1  
    58   22   55 1  
    59   23   56 1  
    60   24   57 1  
    61   25   58 1  
    62   26   59 1  
    63   30   60 1  
    64   30   61 1  
    65   30   62 1  
    66   31   63 1  
    67   31   64 1  
    68   31   65 1  
    69   32   66 1  
    70   32   67 1  
    71   32   68 1  
    72   34   69 1  
    73   35   70 1  
    74   35   71 1  
    75   36   72 1  
    76   36   73 1  
    77   38   74 1  
    78   38   75 1  
@<TRIPOS>SUBSTRUCTURE
     1 526         1

