### 
### Created by X-TOOL on Mon Sep 10 21:13:18 2018
### 

@<TRIPOS>MOLECULE
4mc2_ligand
   75    78     1     0     0
SMALL
GAST_HUCK


@<TRIPOS>ATOM
      1 C1          9.5070   27.5870    8.5360 C.ar      1 525        -0.0333
      2 C2          8.5600   27.8840    7.5760 C.ar      1 525         0.1260
      3 C3          8.3160   27.0180    6.5290 C.ar      1 525        -0.0252
      4 C4          9.0370   25.8410    6.4120 C.ar      1 525        -0.0181
      5 C5          9.9800   25.5500    7.3920 C.ar      1 525         0.1055
      6 C6         10.2180   26.4070    8.4470 C.ar      1 525        -0.0437
      7 C7          8.7020   24.9250    5.2690 C.3       1 525        -0.0134
      8 C8          9.7870   24.7580    4.2080 C.3       1 525        -0.0094
      9 C9         10.8060   23.6970    4.6200 C.3       1 525         0.0347
     10 N10        11.6060   24.0950    5.7950 N.am      1 525        -0.2324
     11 S11        10.9250   24.0390    7.3450 S.o2      1 525         0.0664
     12 C12        12.8610   24.8310    5.6040 C.3       1 525         0.0578
     13 C13        13.9750   23.9170    5.1380 C.3       1 525         0.0967
     14 C14        14.4290   22.8410    6.1140 C.3       1 525         0.0807
     15 O15        15.0690   24.7230    4.7620 O.3       1 525        -0.3877
     16 C16        15.1060   23.3540    7.3810 C.3       1 525         0.0064
     17 N17        15.2980   21.9410    5.3940 N.am      1 525        -0.2550
     18 C18        14.8860   20.6870    5.0050 C.2       1 525         0.3203
     19 O19        15.9540   20.0430    4.4260 O.3       1 525        -0.2582
     20 O20        13.7630   20.2240    5.1850 O.2       1 525        -0.3775
     21 C21        15.4460   22.2290    8.3010 C.ar      1 525        -0.0408
     22 C22        16.7360   21.7330    8.3290 C.ar      1 525        -0.0603
     23 C23        17.0560   20.6790    9.1640 C.ar      1 525        -0.0686
     24 C24        16.0830   20.1130    9.9630 C.ar      1 525        -0.0687
     25 C25        14.7950   20.6100    9.9400 C.ar      1 525        -0.0686
     26 C26        14.4750   21.6710    9.1140 C.ar      1 525        -0.0603
     27 O27        11.9580   24.0670    8.3530 O.2       1 525        -0.1517
     28 O28         9.9280   22.9840    7.3410 O.2       1 525        -0.1517
     29 C29         9.2330   24.4490    2.8110 C.3       1 525        -0.0316
     30 C30         8.4630   25.6100    2.2290 C.3       1 525        -0.0596
     31 C31         8.3050   23.2450    2.8000 C.3       1 525        -0.0596
     32 C32        10.3750   24.1950    1.8500 C.3       1 525        -0.0596
     33 F33         7.8810   29.0410    7.6750 F         1 525        -0.1853
     34 C34        15.6850   18.7830    3.8160 C.3       1 525         0.1134
     35 C35        17.0470   18.1920    3.5210 C.3       1 525         0.0782
     36 C36        15.0740   19.0360    2.4590 C.3       1 525         0.0034
     37 O37        17.3790   18.6520    2.2160 O.3       1 525        -0.3768
     38 C38        16.1600   18.6530    1.4900 C.3       1 525         0.0505
     39 H           9.6907   28.2751    9.3532 H         1 525         0.0547
     40 H           7.5563   27.2603    5.7947 H         1 525         0.0542
     41 H          10.9569   26.1559    9.1994 H         1 525         0.0609
     42 H           7.8034   25.3201    4.7727 H         1 525         0.0429
     43 H           8.4832   23.9311    5.6866 H         1 525         0.0429
     44 H          10.3182   25.7188    4.1398 H         1 525         0.0343
     45 H          11.4877   23.5183    3.7754 H         1 525         0.0482
     46 H          10.2680   22.7680    4.8600 H         1 525         0.0482
     47 H          13.1534   25.2929    6.5586 H         1 525         0.0504
     48 H          12.7038   25.6161    4.8497 H         1 525         0.0504
     49 H          13.6078   23.3937    4.2429 H         1 525         0.0634
     50 H          13.5360   22.2829    6.4319 H         1 525         0.0604
     51 H          15.4363   25.1368    5.5343 H         1 525         0.2100
     52 H          14.4251   24.0469    7.8970 H         1 525         0.0449
     53 H          16.0294   23.8845    7.1055 H         1 525         0.0449
     54 H          16.2267   22.2375    5.1713 H         1 525         0.1873
     55 H          17.4981   22.1715    7.6949 H         1 525         0.0557
     56 H          18.0702   20.2972    9.1914 H         1 525         0.0599
     57 H          16.3302   19.2781   10.6087 H         1 525         0.0559
     58 H          14.0331   20.1671   10.5712 H         1 525         0.0599
     59 H          13.4653   22.0653    9.1030 H         1 525         0.0557
     60 H           8.0886   25.3382    1.2310 H         1 525         0.0235
     61 H           9.1250   26.4846    2.1465 H         1 525         0.0235
     62 H           7.6144   25.8530    2.8853 H         1 525         0.0235
     63 H           8.8301   22.3735    3.2181 H         1 525         0.0235
     64 H           7.9989   23.0274    1.7661 H         1 525         0.0235
     65 H           7.4145   23.4628    3.4079 H         1 525         0.0235
     66 H          11.0535   25.0608    1.8499 H         1 525         0.0235
     67 H           9.9747   24.0428    0.8368 H         1 525         0.0235
     68 H          10.9266   23.2970    2.1651 H         1 525         0.0235
     69 H          15.0584   18.1352    4.4466 H         1 525         0.0671
     70 H          17.0036   17.0931    3.5431 H         1 525         0.0589
     71 H          17.7874   18.5446    4.2541 H         1 525         0.0589
     72 H          14.8041   20.0961    2.3438 H         1 525         0.0316
     73 H          14.1805   18.4119    2.3106 H         1 525         0.0316
     74 H          16.2093   19.3835    0.6691 H         1 525         0.0561
     75 H          15.9640   17.6518    1.0786 H         1 525         0.0561
@<TRIPOS>BOND
     1    1    2 ar 
     2    1    6 ar 
     3    2    3 ar 
     4    2   33 1  
     5    3    4 ar 
     6    4    5 ar 
     7    4    7 1  
     8    5    6 ar 
     9    5   11 1  
    10    7    8 1  
    11    8    9 1  
    12    8   29 1  
    13    9   10 1  
    14   10   11 am 
    15   10   12 1  
    16   11   27 2  
    17   11   28 2  
    18   12   13 1  
    19   13   14 1  
    20   13   15 1  
    21   14   16 1  
    22   14   17 1  
    23   16   21 1  
    24   17   18 am 
    25   18   19 1  
    26   18   20 2  
    27   19   34 1  
    28   21   22 ar 
    29   21   26 ar 
    30   22   23 ar 
    31   23   24 ar 
    32   24   25 ar 
    33   25   26 ar 
    34   29   30 1  
    35   29   31 1  
    36   29   32 1  
    37   34   35 1  
    38   34   36 1  
    39   35   37 1  
    40   36   38 1  
    41   37   38 1  
    42    1   39 1  
    43    3   40 1  
    44    6   41 1  
    45    7   42 1  
    46    7   43 1  
    47    8   44 1  
    48    9   45 1  
    49    9   46 1  
    50   12   47 1  
    51   12   48 1  
    52   13   49 1  
    53   14   50 1  
    54   15   51 1  
    55   16   52 1  
    56   16   53 1  
    57   17   54 1  
    58   22   55 1  
    59   23   56 1  
    60   24   57 1  
    61   25   58 1  
    62   26   59 1  
    63   30   60 1  
    64   30   61 1  
    65   30   62 1  
    66   31   63 1  
    67   31   64 1  
    68   31   65 1  
    69   32   66 1  
    70   32   67 1  
    71   32   68 1  
    72   34   69 1  
    73   35   70 1  
    74   35   71 1  
    75   36   72 1  
    76   36   73 1  
    77   38   74 1  
    78   38   75 1  
@<TRIPOS>SUBSTRUCTURE
     1 525         1

