### 
### Created by X-TOOL on Mon Sep 10 21:13:17 2018
### 

@<TRIPOS>MOLECULE
4mc6_ligand
   74    76     1     0     0
SMALL
GAST_HUCK


@<TRIPOS>ATOM
      1 C1         16.4920   18.5950    2.0500 C.ar      1 23K        -0.0333
      2 C2         17.5330   18.3370    2.9130 C.ar      1 23K         0.1260
      3 C3         17.4780   18.6460    4.2530 C.ar      1 23K        -0.0252
      4 C4         16.3480   19.2520    4.7690 C.ar      1 23K        -0.0181
      5 C5         15.3110   19.5010    3.8860 C.ar      1 23K         0.1055
      6 C6         15.3550   19.1930    2.5410 C.ar      1 23K        -0.0437
      7 F7         18.6330   17.7450    2.4370 F         1 23K        -0.1853
      8 C8         16.3240   19.5540    6.2360 C.3       1 23K        -0.0137
      9 S9         13.8050   20.2250    4.4860 S.o2      1 23K         0.0664
     10 N10        14.2750   21.6480    5.2320 N.am      1 23K        -0.2324
     11 O11        12.9650   20.5140    3.3480 O.2       1 23K        -0.1517
     12 O12        13.3040   19.3570    5.5350 O.2       1 23K        -0.1517
     13 C13        14.5460   22.8170    4.3920 C.3       1 23K         0.0578
     14 C14        14.8730   21.5700    6.5710 C.3       1 23K         0.0344
     15 C15        16.2970   21.0290    6.5780 C.3       1 23K        -0.0119
     16 C16        16.8300   21.1790    7.9960 C.3       1 23K        -0.0406
     17 C17        13.5700   23.9350    4.7040 C.3       1 23K         0.0965
     18 C18        12.0780   23.6780    4.4250 C.3       1 23K         0.0792
     19 O19        14.0110   25.1310    4.0760 O.3       1 23K        -0.3878
     20 N20        11.2800   24.6640    5.1420 N.am      1 23K        -0.2656
     21 C21        11.6820   23.6160    2.9490 C.3       1 23K         0.0062
     22 C22        10.2220   23.3370    2.8100 C.ar      1 23K        -0.0408
     23 C23         9.7630   22.0470    3.0020 C.ar      1 23K        -0.0603
     24 C24         8.4130   21.7790    2.9200 C.ar      1 23K        -0.0686
     25 C25         7.5330   22.8030    2.6410 C.ar      1 23K        -0.0687
     26 C26         7.9890   24.0830    2.4310 C.ar      1 23K        -0.0686
     27 C27         9.3380   24.3570    2.5030 C.ar      1 23K        -0.0603
     28 C28        10.8710   24.4500    6.4440 C.2       1 23K         0.2583
     29 N29        10.1040   25.4830    6.9590 N.am      1 23K        -0.2679
     30 O30        11.2060   23.4730    7.0930 O.2       1 23K        -0.4008
     31 C31         9.6650   25.5920    8.3300 C.3       1 23K         0.0450
     32 C32         8.6780   24.5010    8.6990 C.3       1 23K        -0.0399
     33 C33        10.8370   25.5440    9.2860 C.3       1 23K        -0.0399
     34 C34        18.3340   21.1220    8.1120 C.3       1 23K        -0.0622
     35 C35        16.4260   22.4820    8.6180 C.3       1 23K        -0.0622
     36 C36         9.0150   26.9570    8.4690 C.3       1 23K        -0.0399
     37 H          16.5672   18.3313    1.0012 H         1 23K         0.0547
     38 H          18.3164   18.4154    4.9003 H         1 23K         0.0542
     39 H          14.5172   19.4162    1.8904 H         1 23K         0.0609
     40 H          17.2230   19.1131    6.6914 H         1 23K         0.0429
     41 H          15.4271   19.0858    6.6676 H         1 23K         0.0429
     42 H          14.4449   22.5334    3.3340 H         1 23K         0.0504
     43 H          15.5710   23.1685    4.5811 H         1 23K         0.0504
     44 H          14.2486   20.9107    7.1918 H         1 23K         0.0482
     45 H          14.8839   22.5805    7.0054 H         1 23K         0.0482
     46 H          16.9179   21.5920    5.8656 H         1 23K         0.0341
     47 H          16.4057   20.3556    8.5893 H         1 23K         0.0300
     48 H          13.6397   24.0972    5.7897 H         1 23K         0.0634
     49 H          11.8438   22.6903    4.8487 H         1 23K         0.0602
     50 H          13.8855   25.0592    3.1371 H         1 23K         0.2100
     51 H          11.0229   25.5137    4.6817 H         1 23K         0.1851
     52 H          12.2520   22.8155    2.4547 H         1 23K         0.0449
     53 H          11.9133   24.5795    2.4715 H         1 23K         0.0449
     54 H          10.4632   21.2478    3.2166 H         1 23K         0.0557
     55 H           8.0462   20.7706    3.0738 H         1 23K         0.0599
     56 H           6.4702   22.5967    2.5866 H         1 23K         0.0559
     57 H           7.2865   24.8780    2.2084 H         1 23K         0.0599
     58 H           9.7030   25.3613    2.3210 H         1 23K         0.0557
     59 H           9.8327   26.2117    6.3302 H         1 23K         0.1851
     60 H           8.3719   24.6231    9.7485 H         1 23K         0.0254
     61 H           9.1526   23.5174    8.5676 H         1 23K         0.0254
     62 H           7.7936   24.5713    8.0487 H         1 23K         0.0254
     63 H          10.4707   25.6291   10.3197 H         1 23K         0.0254
     64 H          11.5211   26.3778    9.0696 H         1 23K         0.0254
     65 H          11.3711   24.5902    9.1637 H         1 23K         0.0254
     66 H          18.6251   21.2385    9.1664 H         1 23K         0.0232
     67 H          18.7787   21.9334    7.5171 H         1 23K         0.0232
     68 H          18.6942   20.1526    7.7372 H         1 23K         0.0232
     69 H          15.3324   22.5892    8.5670 H         1 23K         0.0232
     70 H          16.9014   23.3112    8.0736 H         1 23K         0.0232
     71 H          16.7476   22.5016    9.6697 H         1 23K         0.0232
     72 H           8.6610   27.0911    9.5018 H         1 23K         0.0254
     73 H           8.1629   27.0296    7.7771 H         1 23K         0.0254
     74 H           9.7500   27.7393    8.2289 H         1 23K         0.0254
@<TRIPOS>BOND
     1    1    2 ar 
     2    1    6 ar 
     3    2    3 ar 
     4    2    7 1  
     5    3    4 ar 
     6    4    5 ar 
     7    4    8 1  
     8    5    6 ar 
     9    5    9 1  
    10    8   15 1  
    11    9   10 am 
    12    9   11 2  
    13    9   12 2  
    14   10   13 1  
    15   10   14 1  
    16   13   17 1  
    17   14   15 1  
    18   15   16 1  
    19   16   34 1  
    20   16   35 1  
    21   17   18 1  
    22   17   19 1  
    23   18   20 1  
    24   18   21 1  
    25   20   28 am 
    26   21   22 1  
    27   22   23 ar 
    28   22   27 ar 
    29   23   24 ar 
    30   24   25 ar 
    31   25   26 ar 
    32   26   27 ar 
    33   28   29 am 
    34   28   30 2  
    35   29   31 1  
    36   31   32 1  
    37   31   33 1  
    38   31   36 1  
    39    1   37 1  
    40    3   38 1  
    41    6   39 1  
    42    8   40 1  
    43    8   41 1  
    44   13   42 1  
    45   13   43 1  
    46   14   44 1  
    47   14   45 1  
    48   15   46 1  
    49   16   47 1  
    50   17   48 1  
    51   18   49 1  
    52   19   50 1  
    53   20   51 1  
    54   21   52 1  
    55   21   53 1  
    56   23   54 1  
    57   24   55 1  
    58   25   56 1  
    59   26   57 1  
    60   27   58 1  
    61   29   59 1  
    62   32   60 1  
    63   32   61 1  
    64   32   62 1  
    65   33   63 1  
    66   33   64 1  
    67   33   65 1  
    68   34   66 1  
    69   34   67 1  
    70   34   68 1  
    71   35   69 1  
    72   35   70 1  
    73   35   71 1  
    74   36   72 1  
    75   36   73 1  
    76   36   74 1  
@<TRIPOS>SUBSTRUCTURE
     1 23K         1

