### 
### Created by X-TOOL on Mon Sep 10 21:13:18 2018
### 

@<TRIPOS>MOLECULE
4mc9_ligand
   72    75     1     0     0
SMALL
GAST_HUCK


@<TRIPOS>ATOM
      1 C1          9.4360   27.2540    8.5980 C.ar      1 23L        -0.0333
      2 C2          8.4730   27.5790    7.6740 C.ar      1 23L         0.1260
      3 C3          8.1870   26.7580    6.6040 C.ar      1 23L        -0.0252
      4 C4          8.8990   25.5920    6.3930 C.ar      1 23L        -0.0181
      5 C5          9.8600   25.2800    7.3350 C.ar      1 23L         0.1055
      6 C6         10.1230   26.0760    8.4300 C.ar      1 23L        -0.0437
      7 F7          7.8030   28.7260    7.8440 F         1 23L        -0.1853
      8 C8          8.5680   24.7330    5.2020 C.3       1 23L        -0.0137
      9 S9         10.7830   23.7730    7.2050 S.o2      1 23L         0.0664
     10 N10        11.5110   23.8150    5.6950 N.am      1 23L        -0.2324
     11 O11        11.8160   23.7470    8.2040 O.2       1 23L        -0.1517
     12 O12         9.8380   22.6760    7.1680 O.2       1 23L        -0.1517
     13 C13        12.7250   24.6300    5.5540 C.3       1 23L         0.0578
     14 C14        10.6590   23.5270    4.5280 C.3       1 23L         0.0344
     15 C15         9.6710   24.6260    4.1650 C.3       1 23L        -0.0119
     16 C16         9.1220   24.2520    2.7950 C.3       1 23L        -0.0406
     17 C17        13.8810   23.7570    5.1020 C.3       1 23L         0.0967
     18 C18        14.3230   22.6620    6.0650 C.3       1 23L         0.0807
     19 O19        14.9900   24.5700    4.7700 O.3       1 23L        -0.3877
     20 N20        15.1640   21.7420    5.3260 N.am      1 23L        -0.2550
     21 C21        15.0240   23.1500    7.3290 C.3       1 23L         0.0064
     22 C22        15.3440   22.0020    8.2180 C.ar      1 23L        -0.0408
     23 C23        14.3760   21.4510    9.0400 C.ar      1 23L        -0.0603
     24 C24        14.6870   20.3660    9.8320 C.ar      1 23L        -0.0686
     25 C25        15.9500   19.8230    9.7880 C.ar      1 23L        -0.0687
     26 C26        16.9180   20.3760    8.9800 C.ar      1 23L        -0.0686
     27 C27        16.6240   21.4780    8.1970 C.ar      1 23L        -0.0603
     28 C28        14.7410   20.5070    4.8990 C.2       1 23L         0.3203
     29 O29        15.8010   19.9100    4.2640 O.3       1 23L        -0.2582
     30 O30        13.6280   20.0230    5.0550 O.2       1 23L        -0.3775
     31 C31        15.5360   18.6530    3.6460 C.3       1 23L         0.1134
     32 C32        16.8900   18.0500    3.3940 C.3       1 23L         0.0782
     33 O33        17.2470   18.4760    2.0870 O.3       1 23L        -0.3768
     34 C34        16.0600   18.4310    1.3190 C.3       1 23L         0.0505
     35 C35        14.9820   18.9000    2.2630 C.3       1 23L         0.0034
     36 C36         8.1030   25.1890    2.1910 C.3       1 23L        -0.0622
     37 C37        10.2660   24.1890    1.8220 C.3       1 23L        -0.0622
     38 H           9.6479   27.9083    9.4359 H         1 23L         0.0547
     39 H           7.3927   27.0306    5.9186 H         1 23L         0.0542
     40 H          10.8692   25.7733    9.1557 H         1 23L         0.0609
     41 H           7.6785   25.1560    4.7123 H         1 23L         0.0429
     42 H           8.3402   23.7197    5.5643 H         1 23L         0.0429
     43 H          12.9712   25.0890    6.5229 H         1 23L         0.0504
     44 H          12.5503   25.4194    4.8081 H         1 23L         0.0504
     45 H          10.0876   22.6114    4.7405 H         1 23L         0.0482
     46 H          11.3142   23.3575    3.6609 H         1 23L         0.0482
     47 H          10.1927   25.5925    4.1047 H         1 23L         0.0341
     48 H           8.6579   23.2587    2.8843 H         1 23L         0.0300
     49 H          13.5482   23.2499    4.1844 H         1 23L         0.0634
     50 H          13.4208   22.1226    6.3891 H         1 23L         0.0604
     51 H          15.3395   24.9650    5.5602 H         1 23L         0.2100
     52 H          16.1011   22.0208    5.1160 H         1 23L         0.1873
     53 H          14.3639   23.8493    7.8630 H         1 23L         0.0449
     54 H          15.9557   23.6646    7.0515 H         1 23L         0.0449
     55 H          13.3769   21.8711    9.0610 H         1 23L         0.0557
     56 H          13.9366   19.9412   10.4889 H         1 23L         0.0599
     57 H          16.1846   18.9547   10.3930 H         1 23L         0.0559
     58 H          17.9131   19.9468    8.9573 H         1 23L         0.0599
     59 H          17.3890   21.9263    7.5733 H         1 23L         0.0557
     60 H          14.8803   18.0149    4.2567 H         1 23L         0.0671
     61 H          16.8389   16.9522    3.4419 H         1 23L         0.0589
     62 H          17.6191   18.4157    4.1320 H         1 23L         0.0589
     63 H          15.8574   17.4057    0.9760 H         1 23L         0.0561
     64 H          16.1338   19.1007    0.4495 H         1 23L         0.0561
     65 H          14.7774   19.9705    2.1143 H         1 23L         0.0316
     66 H          14.0569   18.3251    2.1091 H         1 23L         0.0316
     67 H           7.7900   24.8062    1.2084 H         1 23L         0.0232
     68 H           8.5489   26.1873    2.0705 H         1 23L         0.0232
     69 H           7.2279   25.2559    2.8541 H         1 23L         0.0232
     70 H          11.0433   23.5160    2.2131 H         1 23L         0.0232
     71 H          10.6875   25.1959    1.6858 H         1 23L         0.0232
     72 H           9.9045   23.8089    0.8551 H         1 23L         0.0232
@<TRIPOS>BOND
     1    1    2 ar 
     2    1    6 ar 
     3    2    3 ar 
     4    2    7 1  
     5    3    4 ar 
     6    4    5 ar 
     7    4    8 1  
     8    5    6 ar 
     9    5    9 1  
    10    8   15 1  
    11    9   10 am 
    12    9   11 2  
    13    9   12 2  
    14   10   13 1  
    15   10   14 1  
    16   13   17 1  
    17   14   15 1  
    18   15   16 1  
    19   16   36 1  
    20   16   37 1  
    21   17   18 1  
    22   17   19 1  
    23   18   20 1  
    24   18   21 1  
    25   20   28 am 
    26   21   22 1  
    27   22   23 ar 
    28   22   27 ar 
    29   23   24 ar 
    30   24   25 ar 
    31   25   26 ar 
    32   26   27 ar 
    33   28   29 1  
    34   28   30 2  
    35   29   31 1  
    36   31   32 1  
    37   31   35 1  
    38   32   33 1  
    39   33   34 1  
    40   34   35 1  
    41    1   38 1  
    42    3   39 1  
    43    6   40 1  
    44    8   41 1  
    45    8   42 1  
    46   13   43 1  
    47   13   44 1  
    48   14   45 1  
    49   14   46 1  
    50   15   47 1  
    51   16   48 1  
    52   17   49 1  
    53   18   50 1  
    54   19   51 1  
    55   20   52 1  
    56   21   53 1  
    57   21   54 1  
    58   23   55 1  
    59   24   56 1  
    60   25   57 1  
    61   26   58 1  
    62   27   59 1  
    63   31   60 1  
    64   32   61 1  
    65   32   62 1  
    66   34   63 1  
    67   34   64 1  
    68   35   65 1  
    69   35   66 1  
    70   36   67 1  
    71   36   68 1  
    72   36   69 1  
    73   37   70 1  
    74   37   71 1  
    75   37   72 1  
@<TRIPOS>SUBSTRUCTURE
     1 23L         1

