### 
### Created by X-TOOL on Mon Sep 10 21:13:13 2018
### 

@<TRIPOS>MOLECULE
4mcb_ligand
   47    50     1     0     0
SMALL
GAST_HUCK


@<TRIPOS>ATOM
      1 C2         25.1930   44.2490   -2.5680 C.ar      1 21W        -0.0647
      2 C4         23.6750   42.8880   -3.8210 C.ar      1 21W        -0.0647
      3 C1         26.2580   43.5300   -3.0800 C.ar      1 21W        -0.0617
      4 C5         24.7430   42.1550   -4.3160 C.ar      1 21W        -0.0617
      5 C13        28.1150   38.6900   -8.6670 C.2       1 21W         0.0253
      6 C12        28.1880   37.9490   -7.5100 C.2       1 21W        -0.0365
      7 C20        20.7320   42.9490    1.6530 C.2       1 21W         0.0138
      8 C23        20.2110   41.6750   -0.1930 C.2       1 21W         0.0654
      9 C19        20.8860   42.8430    0.2890 C.2       1 21W         0.0452
     10 C3         23.8970   43.9380   -2.9510 C.ar      1 21W        -0.0278
     11 C6         26.0370   42.4830   -3.9640 C.ar      1 21W        -0.0053
     12 C22        19.5810   40.9840    0.8310 C.2       1 21W         0.0907
     13 C10        28.4870   40.1180   -7.1160 C.2       1 21W         0.1580
     14 C27        18.7750   39.3570   -0.4630 C.2       1 21W         0.1309
     15 C24        20.0810   41.1260   -1.5360 C.2       1 21W         0.2171
     16 C17        21.6720   43.8880   -0.3510 C.2       1 21W         0.1899
     17 C15        22.7400   44.7020   -2.3960 C.3       1 21W         0.0606
     18 C7         27.1800   41.6800   -4.5210 C.3       1 21W        -0.0010
     19 C9         28.7280   41.3440   -6.3280 C.3       1 21W         0.0436
     20 N14        28.2990   40.0290   -8.4170 N.pl3     1 21W        -0.2603
     21 N28        18.8630   39.8370    0.7390 N.2       1 21W        -0.2746
     22 N11        28.4280   38.8790   -6.5360 N.2       1 21W        -0.3346
     23 N26        19.3540   39.9540   -1.5690 N.am      1 21W        -0.2017
     24 N16        21.8120   43.8280   -1.7050 N.am      1 21W        -0.2788
     25 N8         27.5010   42.0200   -5.9030 N.4       1 21W         0.2550
     26 O25        20.5660   41.6140   -2.5490 O.2       1 21W        -0.4039
     27 O18        22.1960   44.7710    0.3220 O.2       1 21W        -0.3934
     28 S21        19.8250   41.6980    2.3820 S.3       1 21W        -0.0184
     29 H1         25.3716   45.0562   -1.8668 H         1 21W         0.0540
     30 H2         22.6631   42.6364   -4.1175 H         1 21W         0.0540
     31 H3         27.2705   43.7856   -2.7893 H         1 21W         0.0542
     32 H4         24.5609   41.3200   -4.9829 H         1 21W         0.0542
     33 H5         27.9344   38.2692   -9.6551 H         1 21W         0.0794
     34 H6         28.0798   36.8714   -7.3960 H         1 21W         0.0408
     35 H7         21.1578   43.7713    2.2262 H         1 21W         0.0770
     36 H8         18.2152   38.4344   -0.6095 H         1 21W         0.1514
     37 H9         22.2129   45.2030   -3.2213 H         1 21W         0.0669
     38 H10        23.1153   45.4564   -1.6889 H         1 21W         0.0669
     39 H11        26.9129   40.6139   -4.4762 H         1 21W         0.0966
     40 H12        28.0700   41.8615   -3.9005 H         1 21W         0.0966
     41 H13        29.3144   42.0426   -6.9429 H         1 21W         0.1054
     42 H14        29.3038   41.0728   -5.4309 H         1 21W         0.1054
     43 H15        28.2915   40.7989   -9.1011 H         1 21W         0.2373
     44 H16        19.2372   39.5042   -2.4545 H         1 21W         0.2580
     45 H17        21.2678   43.1728   -2.2289 H         1 21W         0.1864
     46 H18        27.6292   43.0170   -5.9777 H         1 21W         0.2046
     47 H19        26.7410   41.7332   -6.4999 H         1 21W         0.2046
@<TRIPOS>BOND
     1    3    1 ar 
     2    1   10 ar 
     3    4    2 ar 
     4    2   10 ar 
     5   11    3 ar 
     6   11    4 ar 
     7    6    5 2  
     8   20    5 1  
     9   22    6 1  
    10    9    7 2  
    11    7   28 1  
    12    9    8 1  
    13    8   12 2  
    14    8   15 1  
    15   16    9 1  
    16   10   17 1  
    17   18   11 1  
    18   12   21 1  
    19   12   28 1  
    20   19   13 1  
    21   13   20 1  
    22   13   22 2  
    23   21   14 2  
    24   23   14 1  
    25   15   23 am 
    26   15   26 2  
    27   24   16 am 
    28   16   27 2  
    29   17   24 1  
    30   25   18 1  
    31   19   25 1  
    32    1   29 1  
    33    2   30 1  
    34    3   31 1  
    35    4   32 1  
    36    5   33 1  
    37    6   34 1  
    38    7   35 1  
    39   14   36 1  
    40   17   37 1  
    41   17   38 1  
    42   18   39 1  
    43   18   40 1  
    44   19   41 1  
    45   19   42 1  
    46   20   43 1  
    47   23   44 1  
    48   24   45 1  
    49   25   46 1  
    50   25   47 1  
@<TRIPOS>SUBSTRUCTURE
     1 21W         1

