### 
### Created by X-TOOL on Mon Sep 10 21:13:13 2018
### 

@<TRIPOS>MOLECULE
4mcc_ligand
   37    39     1     0     0
SMALL
GAST_HUCK


@<TRIPOS>ATOM
      1 C1         26.0490   44.0170   -2.6800 C.ar      1 21X        -0.0617
      2 C5         24.8010   42.6790   -4.2150 C.ar      1 21X        -0.0617
      3 C2         24.8810   44.6340   -2.2740 C.ar      1 21X        -0.0647
      4 C4         23.6310   43.3060   -3.8180 C.ar      1 21X        -0.0647
      5 C14        20.6260   43.0660    1.6230 C.2       1 21X         0.0138
      6 C17        20.0600   41.8340   -0.2450 C.2       1 21X         0.0654
      7 C13        20.7440   42.9860    0.2550 C.2       1 21X         0.0452
      8 C6         26.0120   43.0410   -3.6560 C.ar      1 21X        -0.0054
      9 C3         23.6710   44.2850   -2.8480 C.ar      1 21X        -0.0278
     10 C16        19.4490   41.1130    0.7680 C.2       1 21X         0.0907
     11 C21        18.6370   39.5260   -0.5500 C.2       1 21X         0.1309
     12 C18        19.9160   41.3310   -1.5970 C.2       1 21X         0.2171
     13 C11        21.4930   44.0430   -0.3810 C.2       1 21X         0.1899
     14 C7         27.2850   42.3670   -4.0650 C.3       1 21X        -0.0046
     15 C9         22.4190   44.9510   -2.3860 C.3       1 21X         0.0606
     16 N22        18.7300   39.9730    0.6640 N.2       1 21X        -0.2746
     17 N20        19.2020   40.1520   -1.6550 N.am      1 21X        -0.2017
     18 N8         27.5210   42.3620   -5.5030 N.4       1 21X         0.2299
     19 N10        21.5760   43.9930   -1.7090 N.am      1 21X        -0.2788
     20 O19        20.3850   41.8650   -2.5920 O.2       1 21X        -0.4039
     21 O12        21.9910   44.9340    0.3080 O.2       1 21X        -0.3934
     22 S15        19.7270   41.7960    2.3240 S.3       1 21X        -0.0184
     23 H1         26.9948   44.2994   -2.2320 H         1 21X         0.0542
     24 H2         24.7664   41.9002   -4.9682 H         1 21X         0.0542
     25 H3         24.9127   45.3948   -1.5025 H         1 21X         0.0540
     26 H4         22.6856   43.0273   -4.2693 H         1 21X         0.0540
     27 H5         21.0683   43.8707    2.2085 H         1 21X         0.0770
     28 H6         18.0821   38.6034   -0.7137 H         1 21X         0.1514
     29 H7         27.2507   41.3240   -3.7171 H         1 21X         0.0965
     30 H8         28.1232   42.8882   -3.5794 H         1 21X         0.0965
     31 H9         21.8818   45.3609   -3.2540 H         1 21X         0.0669
     32 H10        22.6735   45.7669   -1.6935 H         1 21X         0.0669
     33 H11        19.0833   39.7202   -2.5491 H         1 21X         0.2580
     34 H12        28.3918   41.8936   -5.6989 H         1 21X         0.2007
     35 H13        27.5670   43.3111   -5.8393 H         1 21X         0.2007
     36 H14        26.7676   41.8778   -5.9655 H         1 21X         0.2007
     37 H15        21.0654   43.3066   -2.2269 H         1 21X         0.1864
@<TRIPOS>BOND
     1    3    1 ar 
     2    1    8 ar 
     3    4    2 ar 
     4    2    8 ar 
     5    9    3 ar 
     6    9    4 ar 
     7    7    5 2  
     8    5   22 1  
     9    7    6 1  
    10    6   10 2  
    11    6   12 1  
    12   13    7 1  
    13    8   14 1  
    14   15    9 1  
    15   10   16 1  
    16   10   22 1  
    17   16   11 2  
    18   17   11 1  
    19   12   17 am 
    20   12   20 2  
    21   19   13 am 
    22   13   21 2  
    23   14   18 1  
    24   15   19 1  
    25    1   23 1  
    26    2   24 1  
    27    3   25 1  
    28    4   26 1  
    29    5   27 1  
    30   11   28 1  
    31   14   29 1  
    32   14   30 1  
    33   15   31 1  
    34   15   32 1  
    35   17   33 1  
    36   18   34 1  
    37   18   35 1  
    38   18   36 1  
    39   19   37 1  
@<TRIPOS>SUBSTRUCTURE
     1 21X         1

