### 
### Created by X-TOOL on Mon Sep 10 21:13:16 2018
### 

@<TRIPOS>MOLECULE
4mcv_ligand
   64    69     1     0     0
SMALL
GAST_HUCK


@<TRIPOS>ATOM
      1 C10        86.4200   71.3170  -40.8320 C.ar      1 29K         0.0323
      2 C13        88.7380   72.6710  -39.8120 C.ar      1 29K         0.0952
      3 C15        90.3430   71.4440  -40.9530 C.ar      1 29K        -0.0076
      4 C17        92.4240   72.5160  -40.1600 C.ar      1 29K        -0.0408
      5 C20        91.1060   70.5680  -41.7470 C.ar      1 29K        -0.0696
      6 C22        90.3620   74.2620  -38.5440 C.3       1 29K         0.0477
      7 C24        91.6900   73.7500  -36.3570 C.3       1 29K        -0.0104
      8 C28        85.6110   74.1010  -38.4050 C.ar      1 29K         0.0632
      9 O01        84.1520   70.4740  -41.4180 O.2       1 29K        -0.3964
     10 C02        85.4330   70.4340  -41.5280 C.2       1 29K         0.1873
     11 N03        86.1700   69.5150  -42.3520 N.am      1 29K        -0.2761
     12 C04        87.5630   69.7990  -42.2070 C.3       1 29K         0.0716
     13 C05        87.9500   70.1570  -43.6440 C.3       1 29K        -0.0181
     14 C06        88.9990   69.3530  -44.3680 C.3       1 29K        -0.0428
     15 C07        89.4340   69.9700  -45.6240 C.3       1 29K        -0.0624
     16 C08        88.6480   67.8510  -44.5350 C.3       1 29K        -0.0624
     17 C09        87.7010   70.9260  -41.2400 C.ar      1 29K        -0.0138
     18 C11        86.2640   72.4400  -39.8640 C.ar      1 29K        -0.0020
     19 C12        87.3980   73.0910  -39.3750 C.ar      1 29K         0.0907
     20 C14        88.8830   71.6200  -40.7180 C.ar      1 29K         0.0013
     21 C16        90.9980   72.4260  -40.1540 C.ar      1 29K         0.0667
     22 C18        93.1700   71.6480  -40.9450 C.ar      1 29K        -0.0739
     23 C19        92.5010   70.6560  -41.7540 C.ar      1 29K        -0.0759
     24 N21        90.0480   73.1470  -39.4850 N.pl3     1 29K        -0.2603
     25 C23        90.3360   73.9130  -37.0700 C.3       1 29K        -0.0232
     26 C25        92.3490   72.4040  -36.4420 C.3       1 29K        -0.0353
     27 N26        93.3300   72.0770  -35.4560 N.4       1 29K         0.2185
     28 N27        86.9910   74.0820  -38.5030 N.pl3     1 29K        -0.2788
     29 C29        84.7290   74.9190  -37.6550 C.ar      1 29K        -0.0406
     30 C30        83.3180   74.7170  -37.7460 C.ar      1 29K        -0.0732
     31 C31        82.8070   73.7060  -38.5790 C.ar      1 29K        -0.0750
     32 C32        83.6770   72.9020  -39.3170 C.ar      1 29K        -0.0685
     33 C33        85.1040   73.1010  -39.2300 C.ar      1 29K        -0.0074
     34 H1         92.9229   73.2618  -39.5518 H         1 29K         0.0538
     35 H2         90.6096   69.8213  -42.3562 H         1 29K         0.0566
     36 H3         89.6270   75.0627  -38.7134 H         1 29K         0.0581
     37 H4         91.3695   74.6321  -38.7846 H         1 29K         0.0581
     38 H5         91.5331   73.9756  -35.2919 H         1 29K         0.0318
     39 H6         92.3833   74.4864  -36.7896 H         1 29K         0.0318
     40 H7         85.7753   68.7993  -42.9282 H         1 29K         0.1866
     41 H8         88.1331   68.9289  -41.8493 H         1 29K         0.0715
     42 H9         88.3048   71.1980  -43.6266 H         1 29K         0.0312
     43 H10        87.0309   70.0928  -44.2450 H         1 29K         0.0312
     44 H11        89.8806   69.3730  -43.7105 H         1 29K         0.0298
     45 H12        90.1963   69.3354  -46.0995 H         1 29K         0.0232
     46 H13        89.8606   70.9625  -45.4166 H         1 29K         0.0232
     47 H14        88.5717   70.0752  -46.2988 H         1 29K         0.0232
     48 H15        88.3290   67.4391  -43.5662 H         1 29K         0.0232
     49 H16        89.5337   67.3049  -44.8918 H         1 29K         0.0232
     50 H17        87.8324   67.7440  -45.2653 H         1 29K         0.0232
     51 H18        94.2520   71.7144  -40.9509 H         1 29K         0.0561
     52 H19        93.0823   69.9779  -42.3683 H         1 29K         0.0516
     53 H20        89.7916   72.9629  -36.9654 H         1 29K         0.0291
     54 H21        89.7841   74.7109  -36.5516 H         1 29K         0.0291
     55 H22        92.8386   72.3403  -37.4250 H         1 29K         0.0813
     56 H23        91.5548   71.6457  -36.3781 H         1 29K         0.0813
     57 H24        93.6875   71.1511  -35.6319 H         1 29K         0.1994
     58 H25        92.9091   72.1063  -34.5406 H         1 29K         0.1994
     59 H26        94.0855   72.7428  -35.4999 H         1 29K         0.1994
     60 H27        87.6251   74.7169  -37.9973 H         1 29K         0.2135
     61 H28        85.1252   75.6973  -37.0128 H         1 29K         0.0539
     62 H29        82.6421   75.3421  -37.1738 H         1 29K         0.0568
     63 H30        81.7364   73.5509  -38.6481 H         1 29K         0.0516
     64 H31        83.2791   72.1242  -39.9587 H         1 29K         0.0576
@<TRIPOS>BOND
     1    1   10 1  
     2    1   17 ar 
     3   18    1 ar 
     4   19    2 ar 
     5    2   20 ar 
     6    2   24 1  
     7    3    5 ar 
     8   20    3 1  
     9    3   21 ar 
    10   21    4 ar 
    11    4   22 ar 
    12    5   23 ar 
    13   24    6 1  
    14    6   25 1  
    15   25    7 1  
    16    7   26 1  
    17    8   28 1  
    18    8   29 ar 
    19   33    8 ar 
    20   10    9 2  
    21   10   11 am 
    22   12   11 1  
    23   12   13 1  
    24   17   12 1  
    25   13   14 1  
    26   14   15 1  
    27   14   16 1  
    28   17   20 ar 
    29   18   19 ar 
    30   18   33 1  
    31   19   28 1  
    32   21   24 1  
    33   22   23 ar 
    34   26   27 1  
    35   29   30 ar 
    36   30   31 ar 
    37   31   32 ar 
    38   32   33 ar 
    39    4   34 1  
    40    5   35 1  
    41    6   36 1  
    42    6   37 1  
    43    7   38 1  
    44    7   39 1  
    45   11   40 1  
    46   12   41 1  
    47   13   42 1  
    48   13   43 1  
    49   14   44 1  
    50   15   45 1  
    51   15   46 1  
    52   15   47 1  
    53   16   48 1  
    54   16   49 1  
    55   16   50 1  
    56   22   51 1  
    57   23   52 1  
    58   25   53 1  
    59   25   54 1  
    60   26   55 1  
    61   26   56 1  
    62   27   57 1  
    63   27   58 1  
    64   27   59 1  
    65   28   60 1  
    66   29   61 1  
    67   30   62 1  
    68   31   63 1  
    69   32   64 1  
@<TRIPOS>SUBSTRUCTURE
     1 29K         1

