### 
### Created by X-TOOL on Mon Sep 10 21:13:19 2018
### 

@<TRIPOS>MOLECULE
4md6_ligand
   42    46     1     0     0
SMALL
GAST_HUCK


@<TRIPOS>ATOM
      1 C18        47.4890   16.2300   45.3900 C.ar      1 24E        -0.0670
      2 C19        48.8620   16.3350   45.1990 C.ar      1 24E        -0.0396
      3 C22        49.3610   17.0610   44.1230 C.ar      1 24E         0.0807
      4 O3         50.7030   17.2210   43.9740 O.3       1 24E        -0.3375
      5 C21        48.4860   17.6780   43.2360 C.ar      1 24E        -0.0396
      6 C20        47.1130   17.5760   43.4300 C.ar      1 24E        -0.0670
      7 C17        46.6130   16.8520   44.5070 C.ar      1 24E        -0.0425
      8 C16        45.0910   16.7150   44.6960 C.3       1 24E         0.0277
      9 C10        44.7370   16.6990   46.1950 C.2       1 24E         0.0843
     10 N1         44.9520   17.7620   47.1390 N.pl3     1 24E        -0.2819
     11 C9         44.1900   15.6360   46.9020 C.2       1 24E         0.1217
     12 O1         43.8320   14.3330   46.4540 O.3       1 24E        -0.2765
     13 C4         43.3490   13.3140   47.3230 C.ar      1 24E         0.1269
     14 C6         43.0480   12.0560   46.8120 C.ar      1 24E        -0.0235
     15 C5         42.6050   11.0480   47.6610 C.ar      1 24E        -0.0657
     16 C3         42.4590   11.2940   49.0220 C.ar      1 24E        -0.0671
     17 C1         42.7560   12.5520   49.5360 C.ar      1 24E        -0.0521
     18 C2         43.2030   13.5560   48.6840 C.ar      1 24E         0.0585
     19 C7         43.5680   14.9460   49.2320 C.2       1 24E         0.1243
     20 O2         43.4550   15.1980   50.4300 O.2       1 24E        -0.4001
     21 C8         44.0750   16.0000   48.2310 C.2       1 24E         0.0499
     22 C11        44.4880   17.2550   48.4040 C.2       1 24E         0.0774
     23 C12        44.4960   17.9740   49.5820 C.2       1 24E         0.0459
     24 S1         45.1100   19.5620   49.7650 S.3       1 24E        -0.0465
     25 C15        44.4640   19.9410   51.2950 C.2       1 24E        -0.0133
     26 C14        43.7720   18.8760   51.6940 C.2       1 24E        -0.0824
     27 C13        43.7910   17.7110   50.6810 C.2       1 24E        -0.0751
     28 H          47.1008   15.6627   46.2281 H         1 24E         0.0533
     29 H          49.5437   15.8509   45.8889 H         1 24E         0.0526
     30 H          50.8747   17.7375   43.1954 H         1 24E         0.2459
     31 H          48.8742   18.2385   42.3933 H         1 24E         0.0526
     32 H          46.4314   18.0614   42.7409 H         1 24E         0.0533
     33 H          44.7509   15.7769   44.2330 H         1 24E         0.0563
     34 H          44.5875   17.5657   44.2135 H         1 24E         0.0563
     35 H          45.3538   18.6914   46.9499 H         1 24E         0.2282
     36 H          43.1588   11.8613   45.7514 H         1 24E         0.0559
     37 H          42.3728   10.0676   47.2610 H         1 24E         0.0625
     38 H          42.1140   10.5061   49.6817 H         1 24E         0.0537
     39 H          42.6396   12.7487   50.5956 H         1 24E         0.0638
     40 H          44.5923   20.8743   51.8413 H         1 24E         0.0679
     41 H          43.2428   18.8308   52.6447 H         1 24E         0.0406
     42 H          43.2775   16.7654   50.8489 H         1 24E         0.0372
@<TRIPOS>BOND
     1    1    2 ar 
     2    1    7 ar 
     3    2    3 ar 
     4    3    4 1  
     5    3    5 ar 
     6    5    6 ar 
     7    6    7 ar 
     8    7    8 1  
     9    8    9 1  
    10    9   10 1  
    11    9   11 2  
    12   10   22 1  
    13   11   12 1  
    14   11   21 1  
    15   12   13 1  
    16   13   14 ar 
    17   13   18 ar 
    18   14   15 ar 
    19   15   16 ar 
    20   16   17 ar 
    21   17   18 ar 
    22   18   19 1  
    23   19   20 2  
    24   19   21 1  
    25   21   22 2  
    26   22   23 1  
    27   23   24 1  
    28   23   27 2  
    29   24   25 1  
    30   25   26 2  
    31   26   27 1  
    32    1   28 1  
    33    2   29 1  
    34    4   30 1  
    35    5   31 1  
    36    6   32 1  
    37    8   33 1  
    38    8   34 1  
    39   10   35 1  
    40   14   36 1  
    41   15   37 1  
    42   16   38 1  
    43   17   39 1  
    44   25   40 1  
    45   26   41 1  
    46   27   42 1  
@<TRIPOS>SUBSTRUCTURE
     1 24E         1

