### 
### Created by X-TOOL on Mon Sep 10 21:13:14 2018
### 

@<TRIPOS>MOLECULE
4mdq_ligand
   64    66     1     0     0
SMALL
GAST_HUCK


@<TRIPOS>ATOM
      1 CAL         4.8960   19.7930   12.7620 C.ar      1 28W        -0.0584
      2 CAJ         4.7420   18.4780   12.3440 C.ar      1 28W        -0.0685
      3 CAI         5.6820   17.5130   12.6880 C.ar      1 28W        -0.0687
      4 CAK         6.7860   17.8810   13.4480 C.ar      1 28W        -0.0685
      5 CAM         6.9440   19.2120   13.8610 C.ar      1 28W        -0.0584
      6 CBB         6.0030   20.1920   13.5240 C.ar      1 28W        -0.0210
      7 CAQ         6.2180   21.5020   13.9580 C.3       1 28W         0.0647
      8 NAU         5.7590   22.4340   12.9000 N.am      1 28W        -0.2698
      9 CAZ         4.6400   23.1810   13.0450 C.2       1 28W         0.2342
     10 OAE         3.8590   23.0330   13.9670 O.2       1 28W        -0.3885
     11 CBI         4.1260   24.0070   11.9120 C.3       1 28W         0.0934
     12 N           3.1990   25.0130   12.2800 N.4       1 28W         0.2733
     13 CA          3.0770   26.2280   11.4200 C.3       1 28W         0.0718
     14 CB          1.6460   26.7280   11.3770 C.3       1 28W         0.0103
     15 CG          0.7180   25.7090   10.6810 C.3       1 28W        -0.0394
     16 CD2        -0.6930   26.3260   10.6620 C.3       1 28W        -0.0623
     17 CD1         1.1660   25.4190    9.2530 C.3       1 28W        -0.0623
     18 C           3.8920   27.4570   11.9280 C.2       1 28W         0.2473
     19 O           4.4500   28.2610   11.1700 O.2       1 28W        -0.3907
     20 NAT         3.9010   27.7210   13.2050 N.am      1 28W        -0.1596
     21 OAG         4.7170   29.0390   13.4710 O.3       1 28W        -0.2716
     22 CBD         4.4210   23.5340   10.4980 C.2       1 28W         0.0468
     23 CBF         3.6570   22.5240   10.0640 C.ar      1 28W        -0.0026
     24 CAO         2.6510   21.8480   10.6640 C.ar      1 28W        -0.0695
     25 CAN         1.9860   20.8160    9.9930 C.ar      1 28W        -0.0625
     26 CBA         2.3950   20.5150    8.6970 C.ar      1 28W         0.0279
     27 CLH         1.6090   19.2330    7.7990 Cl        1 28W        -0.0775
     28 CAP         3.4530   21.2360    8.1380 C.ar      1 28W        -0.0274
     29 CBE         4.0560   22.2280    8.8230 C.ar      1 28W         0.0656
     30 NAW         5.0590   23.0640    8.5140 N.pl3     1 28W        -0.2753
     31 CBC         5.3080   23.8600    9.5540 C.2       1 28W         0.1371
     32 CAX         6.2620   24.8240    9.4920 C.2       1 28W         0.2389
     33 OAC         6.9930   24.9240    8.5000 O.2       1 28W        -0.3922
     34 NAS         6.3260   25.7360   10.4530 N.am      1 28W        -0.1646
     35 OAF         7.2430   26.6790   10.2560 O.3       1 28W        -0.2725
     36 H1          4.1445   20.5266   12.4935 H         1 28W         0.0557
     37 H2          3.8821   18.2015   11.7447 H         1 28W         0.0599
     38 H3          5.5553   16.4854   12.3671 H         1 28W         0.0559
     39 H4          7.5262   17.1380   13.7220 H         1 28W         0.0599
     40 H5          7.8104   19.4867   14.4518 H         1 28W         0.0557
     41 H6          7.2901   21.6576   14.1488 H         1 28W         0.0683
     42 H7          5.6508   21.6835   14.8828 H         1 28W         0.0683
     43 H8          6.2906   22.5126   12.0567 H         1 28W         0.1880
     44 H9          4.9767   24.7044   11.9109 H         1 28W         0.1213
     45 H10         3.4541   25.3277   13.2030 H         1 28W         0.2068
     46 H11         2.2892   24.5802   12.3121 H         1 28W         0.2068
     47 H12         3.4127   25.9617   10.4069 H         1 28W         0.1099
     48 H13         1.6145   27.6780   10.8234 H         1 28W         0.0348
     49 H14         1.2920   26.8911   12.4056 H         1 28W         0.0348
     50 H15         0.7099   24.7690   11.2522 H         1 28W         0.0299
     51 H16        -1.3907   25.6305   10.1726 H         1 28W         0.0232
     52 H17        -0.6708   27.2749   10.1060 H         1 28W         0.0232
     53 H18        -1.0253   26.5132   11.6938 H         1 28W         0.0232
     54 H19         2.1738   24.9784    9.2673 H         1 28W         0.0232
     55 H20         1.1836   26.3558    8.6768 H         1 28W         0.0232
     56 H21         0.4640   24.7135    8.7846 H         1 28W         0.0232
     57 H22         3.4558   27.1683   13.9095 H         1 28W         0.2218
     58 H23         5.6098   28.9241   13.1672 H         1 28W         0.2490
     59 H24         2.3571   22.1082   11.6744 H         1 28W         0.0563
     60 H25         1.1789   20.2689   10.4667 H         1 28W         0.0523
     61 H26         3.7943   20.9940    7.1380 H         1 28W         0.0553
     62 H27         5.5587   23.0871    7.6136 H         1 28W         0.2208
     63 H28         5.7340   25.7162   11.2587 H         1 28W         0.2203
     64 H29         7.0525   27.1405    9.4478 H         1 28W         0.2490
@<TRIPOS>BOND
     1    1    2 ar 
     2    1    6 ar 
     3    2    3 ar 
     4    3    4 ar 
     5    4    5 ar 
     6    5    6 ar 
     7    6    7 1  
     8    7    8 1  
     9    8    9 am 
    10    9   10 2  
    11    9   11 1  
    12   11   12 1  
    13   11   22 1  
    14   12   13 1  
    15   13   14 1  
    16   13   18 1  
    17   14   15 1  
    18   15   16 1  
    19   15   17 1  
    20   18   19 2  
    21   18   20 am 
    22   20   21 1  
    23   22   23 1  
    24   22   31 2  
    25   23   24 ar 
    26   23   29 ar 
    27   24   25 ar 
    28   25   26 ar 
    29   26   27 1  
    30   26   28 ar 
    31   28   29 ar 
    32   29   30 1  
    33   30   31 1  
    34   31   32 1  
    35   32   33 2  
    36   32   34 am 
    37   34   35 1  
    38    1   36 1  
    39    2   37 1  
    40    3   38 1  
    41    4   39 1  
    42    5   40 1  
    43    7   41 1  
    44    7   42 1  
    45    8   43 1  
    46   11   44 1  
    47   12   45 1  
    48   12   46 1  
    49   13   47 1  
    50   14   48 1  
    51   14   49 1  
    52   15   50 1  
    53   16   51 1  
    54   16   52 1  
    55   16   53 1  
    56   17   54 1  
    57   17   55 1  
    58   17   56 1  
    59   20   57 1  
    60   21   58 1  
    61   24   59 1  
    62   25   60 1  
    63   28   61 1  
    64   30   62 1  
    65   34   63 1  
    66   35   64 1  
@<TRIPOS>SUBSTRUCTURE
     1 28W         1

