### 
### Created by X-TOOL on Mon Sep 10 21:13:13 2018
### 

@<TRIPOS>MOLECULE
4mds_ligand
   71    74     1     0     0
SMALL
GAST_HUCK


@<TRIPOS>ATOM
      1 O1        -13.4120   16.2900  -23.5140 O.2       1 23H        -0.3831
      2 C1        -14.0390   15.2460  -23.7520 C.2       1 23H         0.2386
      3 N1        -15.3490   15.2130  -23.4560 N.am      1 23H        -0.1920
      4 C2        -16.0720   16.4110  -22.9370 C.3       1 23H         0.2021
      5 C3        -16.1430   17.4800  -24.0070 C.2       1 23H         0.2202
      6 O2        -16.3870   17.1740  -25.1720 O.2       1 23H        -0.3912
      7 N2        -15.9120   18.7320  -23.6000 N.am      1 23H        -0.2776
      8 C24       -15.9860   19.9760  -24.3950 C.3       1 23H         0.0474
      9 C25       -17.4610   20.2090  -24.7780 C.3       1 23H        -0.0394
     10 C27       -15.1350   19.9790  -25.6550 C.3       1 23H        -0.0304
     11 C28       -13.7230   19.4530  -25.4880 C.3       1 23H        -0.0629
     12 C26       -15.5390   21.0950  -23.4390 C.3       1 23H        -0.0394
     13 C19       -17.4300   16.1180  -22.3810 C.2       1 23H         0.0840
     14 C20       -18.5740   16.2110  -23.1740 C.2       1 23H        -0.0832
     15 C21       -19.6060   15.8440  -22.3420 C.2       1 23H        -0.0977
     16 C22       -19.0890   15.5500  -21.0960 C.2       1 23H         0.0056
     17 N7        -17.7550   15.7230  -21.1520 N.pl3     1 23H        -0.2780
     18 C23       -16.7980   15.5150  -20.0350 C.3       1 23H         0.0412
     19 C11       -16.1030   14.0340  -23.7420 C.ar      1 23H         0.0599
     20 C12       -17.0070   14.0780  -24.7930 C.ar      1 23H        -0.0526
     21 C13       -17.8040   12.9730  -25.1160 C.ar      1 23H        -0.0531
     22 C16       -15.9970   12.8560  -23.0010 C.ar      1 23H        -0.0526
     23 C15       -16.7770   11.7370  -23.3370 C.ar      1 23H        -0.0531
     24 C14       -17.6880   11.7860  -24.3940 C.ar      1 23H         0.0520
     25 N6        -18.4070   10.6270  -24.6370 N.am      1 23H        -0.2424
     26 C17       -19.3800   10.3850  -25.5220 C.2       1 23H         0.1968
     27 C18       -20.0530    9.0580  -25.6450 C.3       1 23H         0.0308
     28 O3        -19.7660   11.2790  -26.2610 O.2       1 23H        -0.3871
     29 C4        -13.2970   14.0520  -24.3380 C.3       1 23H         0.1687
     30 N3        -12.0180   14.5470  -24.7740 N.pl3     1 23H        -0.1415
     31 N4        -10.9070   14.3230  -24.0180 N.2       1 23H        -0.0725
     32 N5         -9.8140   14.9430  -24.5630 N.2       1 23H        -0.1992
     33 C10       -10.2810   15.5850  -25.6660 C.ar      1 23H         0.0764
     34 C5        -11.6590   15.3490  -25.7880 C.ar      1 23H         0.1170
     35 C9         -9.5830   16.3760  -26.5720 C.ar      1 23H        -0.0506
     36 C8        -10.3020   16.9400  -27.6400 C.ar      1 23H        -0.0707
     37 C7        -11.6800   16.7030  -27.7630 C.ar      1 23H        -0.0695
     38 C6        -12.3870   15.9140  -26.8480 C.ar      1 23H        -0.0313
     39 H1        -15.4709   16.8120  -22.1076 H         1 23H         0.1031
     40 H2        -15.6577   18.8405  -22.6390 H         1 23H         0.1859
     41 H3        -17.5443   21.1312  -25.3719 H         1 23H         0.0254
     42 H4        -18.0662   20.3053  -23.8645 H         1 23H         0.0254
     43 H5        -17.8249   19.3569  -25.3709 H         1 23H         0.0254
     44 H6        -15.0702   21.0153  -26.0182 H         1 23H         0.0287
     45 H7        -15.6416   19.3575  -26.4081 H         1 23H         0.0287
     46 H8        -13.1980   19.4991  -26.4535 H         1 23H         0.0231
     47 H9        -13.7589   18.4102  -25.1397 H         1 23H         0.0231
     48 H10       -13.1875   20.0680  -24.7498 H         1 23H         0.0231
     49 H11       -15.5686   22.0604  -23.9653 H         1 23H         0.0254
     50 H12       -14.5131   20.8959  -23.0956 H         1 23H         0.0254
     51 H13       -16.2156   21.1290  -22.5724 H         1 23H         0.0254
     52 H14       -18.6362   16.5082  -24.2198 H         1 23H         0.0181
     53 H15       -20.6577   15.7936  -22.6202 H         1 23H         0.0246
     54 H16       -19.6588   15.2344  -20.2233 H         1 23H         0.0713
     55 H17       -15.7772   15.7344  -20.3811 H         1 23H         0.0579
     56 H18       -16.8531   14.4705  -19.6946 H         1 23H         0.0579
     57 H19       -17.0549   16.1861  -19.2022 H         1 23H         0.0579
     58 H20       -17.0984   14.9869  -25.3766 H         1 23H         0.0470
     59 H21       -18.5148   13.0408  -25.9316 H         1 23H         0.0470
     60 H22       -15.3106   12.8044  -22.1636 H         1 23H         0.0470
     61 H23       -16.6700   10.8213  -22.7668 H         1 23H         0.0470
     62 H24       -18.1595    9.8488  -24.0598 H         1 23H         0.2209
     63 H25       -20.8145    9.1052  -26.4374 H         1 23H         0.0471
     64 H26       -20.5335    8.8006  -24.6896 H         1 23H         0.0471
     65 H27       -19.3069    8.2906  -25.8987 H         1 23H         0.0471
     66 H28       -13.8555   13.6369  -25.1899 H         1 23H         0.0880
     67 H29       -13.1634   13.2733  -23.5727 H         1 23H         0.0880
     68 H30        -8.5194   16.5519  -26.4583 H         1 23H         0.0596
     69 H31        -9.7918   17.5586  -28.3694 H         1 23H         0.0540
     70 H32       -12.2151   17.1461  -28.5951 H         1 23H         0.0580
     71 H33       -13.4527   15.7460  -26.9532 H         1 23H         0.0566
@<TRIPOS>BOND
     1    1    2 2  
     2    2    3 am 
     3    2   29 1  
     4    3    4 1  
     5    3   19 1  
     6    4    5 1  
     7    4   13 1  
     8    5    6 2  
     9    5    7 am 
    10    7    8 1  
    11    8    9 1  
    12    8   10 1  
    13    8   12 1  
    14   10   11 1  
    15   13   14 2  
    16   13   17 1  
    17   14   15 1  
    18   15   16 2  
    19   16   17 1  
    20   17   18 1  
    21   19   20 ar 
    22   19   22 ar 
    23   20   21 ar 
    24   21   24 ar 
    25   22   23 ar 
    26   23   24 ar 
    27   24   25 1  
    28   25   26 am 
    29   26   27 1  
    30   26   28 2  
    31   29   30 1  
    32   30   31 1  
    33   30   34 1  
    34   31   32 2  
    35   32   33 1  
    36   33   34 ar 
    37   33   35 ar 
    38   34   38 ar 
    39   35   36 ar 
    40   36   37 ar 
    41   37   38 ar 
    42    4   39 1  
    43    7   40 1  
    44    9   41 1  
    45    9   42 1  
    46    9   43 1  
    47   10   44 1  
    48   10   45 1  
    49   11   46 1  
    50   11   47 1  
    51   11   48 1  
    52   12   49 1  
    53   12   50 1  
    54   12   51 1  
    55   14   52 1  
    56   15   53 1  
    57   16   54 1  
    58   18   55 1  
    59   18   56 1  
    60   18   57 1  
    61   20   58 1  
    62   21   59 1  
    63   22   60 1  
    64   23   61 1  
    65   25   62 1  
    66   27   63 1  
    67   27   64 1  
    68   27   65 1  
    69   29   66 1  
    70   29   67 1  
    71   35   68 1  
    72   36   69 1  
    73   37   70 1  
    74   38   71 1  
@<TRIPOS>SUBSTRUCTURE
     1 23H         1

