### 
### Created by X-TOOL on Mon Sep 10 21:13:13 2018
### 

@<TRIPOS>MOLECULE
4men_ligand
   37    39     1     0     0
SMALL
GAST_HUCK


@<TRIPOS>ATOM
      1 C10        31.0820   19.3430    1.8980 C.3       1 25K        -0.0138
      2 C9         31.2970   18.1320    1.0030 C.2       1 25K         0.0081
      3 C8         30.1780   17.2880    0.7560 C.2       1 25K         0.0252
      4 N1         32.5560   17.9440    0.4690 N.2       1 25K        -0.2830
      5 C11        32.7020   16.8720   -0.3260 C.2       1 25K         0.2115
      6 N4         31.6120   15.9080   -0.6160 N.pl3     1 25K        -0.0868
      7 N3         32.0700   14.9240   -1.5370 N.2       1 25K        -0.1834
      8 C12        33.3680   15.3520   -1.7550 C.2       1 25K         0.0417
      9 N2         33.7880   16.5210   -1.0460 N.2       1 25K        -0.3044
     10 C7         30.3410   16.1250   -0.0540 C.2       1 25K         0.2299
     11 N          29.2790   15.2550   -0.2050 N.pl3     1 25K        -0.2481
     12 C6         28.0770   15.4150    0.6790 C.3       1 25K         0.0304
     13 C5         29.1330   14.5130   -1.4930 C.3       1 25K         0.0698
     14 C4         28.7740   15.4210   -2.6400 C.ar      1 25K        -0.0262
     15 C3         27.5100   16.0460   -2.6220 C.ar      1 25K        -0.0648
     16 C2         27.1230   16.8670   -3.6770 C.ar      1 25K        -0.0670
     17 C13        29.6210   15.6280   -3.7060 C.ar      1 25K        -0.0648
     18 C14        29.1940   16.4520   -4.7730 C.ar      1 25K        -0.0670
     19 C1         27.9140   17.0760   -4.7340 C.ar      1 25K        -0.0528
     20 C          27.4280   17.9410   -5.8700 C.3       1 25K        -0.0343
     21 H1         30.0388   19.3608    2.2464 H         1 25K         0.0456
     22 H2         31.2947   20.2609    1.3303 H         1 25K         0.0456
     23 H3         31.7569   19.2830    2.7645 H         1 25K         0.0456
     24 H4         29.2049   17.5281    1.1820 H         1 25K         0.0399
     25 H5         34.0369   14.8244   -2.4333 H         1 25K         0.0851
     26 H6         27.3317   14.6462    0.4271 H         1 25K         0.0503
     27 H7         27.6401   16.4129    0.5268 H         1 25K         0.0503
     28 H8         28.3780   15.3031    1.7311 H         1 25K         0.0503
     29 H9         28.3410   13.7583   -1.3784 H         1 25K         0.0688
     30 H10        30.0854   14.0130   -1.7228 H         1 25K         0.0688
     31 H11        26.8391   15.8868   -1.7856 H         1 25K         0.0540
     32 H12        26.1534   17.3503   -3.6405 H         1 25K         0.0540
     33 H13        30.6013   15.1658   -3.7269 H         1 25K         0.0540
     34 H14        29.8446   16.6097   -5.6256 H         1 25K         0.0540
     35 H15        26.4223   18.3210   -5.6372 H         1 25K         0.0378
     36 H16        27.3901   17.3455   -6.7941 H         1 25K         0.0378
     37 H17        28.1170   18.7874   -6.0072 H         1 25K         0.0378
@<TRIPOS>BOND
     1    1    2 1  
     2    2    3 1  
     3    2    4 2  
     4    3   10 2  
     5    4    5 1  
     6    5    6 1  
     7    5    9 2  
     8    6    7 1  
     9    6   10 1  
    10    7    8 2  
    11    8    9 1  
    12   10   11 1  
    13   11   12 1  
    14   11   13 1  
    15   13   14 1  
    16   14   15 ar 
    17   14   17 ar 
    18   15   16 ar 
    19   16   19 ar 
    20   17   18 ar 
    21   18   19 ar 
    22   19   20 1  
    23    1   21 1  
    24    1   22 1  
    25    1   23 1  
    26    3   24 1  
    27    8   25 1  
    28   12   26 1  
    29   12   27 1  
    30   12   28 1  
    31   13   29 1  
    32   13   30 1  
    33   15   31 1  
    34   16   32 1  
    35   17   33 1  
    36   18   34 1  
    37   20   35 1  
    38   20   36 1  
    39   20   37 1  
@<TRIPOS>SUBSTRUCTURE
     1 25K         1

