### 
### Created by X-TOOL on Mon Sep 10 21:13:13 2018
### 

@<TRIPOS>MOLECULE
4meo_ligand
   40    42     1     0     0
SMALL
GAST_HUCK


@<TRIPOS>ATOM
      1 O1         28.1710   13.1290    3.7430 O.2       1 25V        -0.3853
      2 C1         26.9660   13.3500    3.8150 C.2       1 25V         0.2003
      3 C          26.1750   12.9010    4.9850 C.3       1 25V         0.0316
      4 N          26.2100   14.0820    2.7950 N.am      1 25V        -0.2352
      5 C2         26.7000   14.6100    1.5400 C.ar      1 25V         0.0619
      6 C17        25.8460   14.5660    0.4130 C.ar      1 25V        -0.0449
      7 C16        26.3470   14.9800   -0.8570 C.ar      1 25V        -0.0788
      8 C15        27.6250   15.4470   -1.0230 C.ar      1 25V        -0.0755
      9 C4         28.4580   15.4990    0.0930 C.ar      1 25V        -0.0461
     10 C3         28.0220   15.0950    1.3710 C.ar      1 25V        -0.0409
     11 C5         29.8230   15.9760   -0.0460 C.2       1 25V        -0.0265
     12 C14        30.7940   15.4150   -1.0420 C.ar      1 25V        -0.0079
     13 C13        30.5190   14.3110   -1.9300 C.ar      1 25V        -0.0710
     14 C12        31.4700   13.8280   -2.8080 C.ar      1 25V        -0.0790
     15 C11        32.7780   14.4300   -2.8660 C.ar      1 25V        -0.0775
     16 C10        33.0820   15.4660   -2.0310 C.ar      1 25V        -0.0444
     17 C9         32.0850   15.9930   -1.0790 C.ar      1 25V         0.0768
     18 N1         32.4260   17.1160   -0.1370 N.pl3     1 25V        -0.1734
     19 O          33.6570   17.6830   -0.2220 O.3       1 25V        -0.2723
     20 C7         31.5100   17.5730    0.7780 C.3       1 25V         0.0961
     21 C8         31.9720   18.6440    1.7350 C.3       1 25V        -0.0275
     22 C6         30.2120   17.0290    0.8390 C.2       1 25V        -0.0402
     23 H1         25.1239   13.1971    4.8524 H         1 25V         0.0472
     24 H2         26.5746   13.3662    5.8982 H         1 25V         0.0472
     25 H3         26.2392   11.8064    5.0728 H         1 25V         0.0472
     26 H4         25.2410   14.2346    2.9893 H         1 25V         0.2254
     27 H5         24.8230   14.2218    0.5132 H         1 25V         0.0474
     28 H6         25.6944   14.9233   -1.7207 H         1 25V         0.0569
     29 H7         27.9783   15.7673   -1.9965 H         1 25V         0.0461
     30 H8         28.6934   15.1546    2.2200 H         1 25V         0.0462
     31 H9         29.5391   13.8480   -1.9074 H         1 25V         0.0547
     32 H10        31.2312   12.9925   -3.4561 H         1 25V         0.0494
     33 H11        33.5165   14.0620   -3.5690 H         1 25V         0.0553
     34 H12        34.0709   15.9085   -2.0677 H         1 25V         0.0498
     35 H13        33.7324   18.3724    0.4272 H         1 25V         0.2492
     36 H14        31.1562   18.3370    0.0702 H         1 25V         0.0785
     37 H15        31.1453   18.9160    2.4077 H         1 25V         0.0282
     38 H16        32.2896   19.5310    1.1672 H         1 25V         0.0282
     39 H17        32.8179   18.2659    2.3279 H         1 25V         0.0282
     40 H18        29.4989   17.4139    1.5665 H         1 25V         0.0745
@<TRIPOS>BOND
     1    1    2 2  
     2    2    3 1  
     3    2    4 am 
     4    4    5 1  
     5    5    6 ar 
     6    5   10 ar 
     7    6    7 ar 
     8    7    8 ar 
     9    8    9 ar 
    10    9   10 ar 
    11    9   11 1  
    12   11   12 1  
    13   11   22 2  
    14   12   13 ar 
    15   12   17 ar 
    16   13   14 ar 
    17   14   15 ar 
    18   15   16 ar 
    19   16   17 ar 
    20   17   18 1  
    21   18   19 1  
    22   18   20 1  
    23   20   21 1  
    24   20   22 1  
    25    3   23 1  
    26    3   24 1  
    27    3   25 1  
    28    4   26 1  
    29    6   27 1  
    30    7   28 1  
    31    8   29 1  
    32   10   30 1  
    33   13   31 1  
    34   14   32 1  
    35   15   33 1  
    36   16   34 1  
    37   19   35 1  
    38   20   36 1  
    39   21   37 1  
    40   21   38 1  
    41   21   39 1  
    42   22   40 1  
@<TRIPOS>SUBSTRUCTURE
     1 25V         1

