### 
### Created by X-TOOL on Mon Sep 10 21:13:14 2018
### 

@<TRIPOS>MOLECULE
4mep_ligand
   40    43     1     0     0
SMALL
GAST_HUCK


@<TRIPOS>ATOM
      1 CL         32.5840   28.3770   12.7990 Cl        1 24Y        -0.0802
      2 C9         33.9460   27.9090   11.9340 C.2       1 24Y         0.0981
      3 C8         34.4920   26.6420   12.0400 C.2       1 24Y         0.0016
      4 C10        34.4580   28.9730   11.0430 C.2       1 24Y         0.1781
      5 O          33.9860   30.1060   10.8880 O.2       1 24Y        -0.3967
      6 N2         35.6040   28.5930   10.2550 N.2       1 24Y        -0.2479
      7 C11        36.1750   27.3860   10.3500 C.2       1 24Y         0.0621
      8 C7         35.6470   26.3540   11.2200 C.3       1 24Y         0.1476
      9 C6         36.1620   25.0250   11.2340 C.2       1 24Y         0.2058
     10 N3         36.0270   24.1190   12.2220 N.2       1 24Y        -0.2771
     11 C12        36.7700   22.9770   11.8080 C.2       1 24Y         0.0963
     12 C13        36.8270   21.7010   12.5320 C.ar      1 24Y         0.0002
     13 C18        35.9650   21.4890   13.5630 C.ar      1 24Y        -0.0526
     14 C17        35.9750   20.2770   14.3080 C.ar      1 24Y        -0.0611
     15 C16        36.8540   19.2990   13.9620 C.ar      1 24Y        -0.0617
     16 C15        37.7040   19.5060   12.8840 C.ar      1 24Y        -0.0611
     17 C14        37.6910   20.6520   12.1520 C.ar      1 24Y        -0.0526
     18 N4         37.3080   23.1620   10.6020 N.2       1 24Y        -0.1756
     19 N1         36.9410   24.3890   10.2040 N.pl3     1 24Y        -0.1090
     20 C5         37.2890   24.8760    8.8900 C.ar      1 24Y         0.1929
     21 C1         36.4470   24.8100    7.7370 C.ar      1 24Y         0.0196
     22 C          35.0460   24.3300    7.7240 C.3       1 24Y        -0.0242
     23 N          38.5630   25.3970    8.8990 N.ar      1 24Y        -0.2742
     24 C4         39.0420   25.8840    7.7280 C.ar      1 24Y        -0.0029
     25 C3         38.2970   25.8510    6.5570 C.ar      1 24Y        -0.0487
     26 C2         37.0000   25.3040    6.5540 C.ar      1 24Y        -0.0451
     27 H1         34.0704   25.8952   12.7112 H         1 24Y         0.0931
     28 H2         37.0626   27.1732    9.7560 H         1 24Y         0.1352
     29 H3         36.3362   26.6538   12.0232 H         1 24Y         0.1093
     30 H4         35.2524   22.2633   13.8235 H         1 24Y         0.0625
     31 H5         35.2927   20.1355   15.1383 H         1 24Y         0.0618
     32 H6         36.8906   18.3705   14.5202 H         1 24Y         0.0618
     33 H7         38.4050   18.7240   12.6155 H         1 24Y         0.0618
     34 H8         38.3362   20.7583   11.2875 H         1 24Y         0.0625
     35 H9         34.6469   24.3913    6.7008 H         1 24Y         0.0394
     36 H10        34.4376   24.9563    8.3930 H         1 24Y         0.0394
     37 H11        35.0129   23.2859    8.0685 H         1 24Y         0.0394
     38 H12        40.0375   26.3124    7.7053 H         1 24Y         0.0741
     39 H13        38.7164   26.2487    5.6399 H         1 24Y         0.0629
     40 H14        36.4302   25.2663    5.6326 H         1 24Y         0.0652
@<TRIPOS>BOND
     1    1    2 1  
     2    2    3 2  
     3    2    4 1  
     4    3    8 1  
     5    4    5 2  
     6    4    6 1  
     7    6    7 2  
     8    7    8 1  
     9    8    9 1  
    10    9   10 2  
    11    9   19 1  
    12   10   11 1  
    13   11   12 1  
    14   11   18 2  
    15   12   13 ar 
    16   12   17 ar 
    17   13   14 ar 
    18   14   15 ar 
    19   15   16 ar 
    20   16   17 ar 
    21   18   19 1  
    22   19   20 1  
    23   20   21 ar 
    24   20   23 ar 
    25   21   22 1  
    26   21   26 ar 
    27   23   24 ar 
    28   24   25 ar 
    29   25   26 ar 
    30    3   27 1  
    31    7   28 1  
    32    8   29 1  
    33   13   30 1  
    34   14   31 1  
    35   15   32 1  
    36   16   33 1  
    37   17   34 1  
    38   22   35 1  
    39   22   36 1  
    40   22   37 1  
    41   24   38 1  
    42   25   39 1  
    43   26   40 1  
@<TRIPOS>SUBSTRUCTURE
     1 24Y         1

