### 
### Created by X-TOOL on Mon Sep 10 21:13:13 2018
### 

@<TRIPOS>MOLECULE
4meq_ligand
   28    30     1     0     0
SMALL
GAST_HUCK


@<TRIPOS>ATOM
      1 C4         29.0310   15.7910   -0.6100 C.ar      1 25O         0.0363
      2 C5         27.9610   15.4720    0.1800 C.ar      1 25O        -0.0429
      3 C6         26.8230   14.9490   -0.3770 C.ar      1 25O        -0.0557
      4 C11        33.0990   15.5000   -1.9290 C.2       1 25O         0.1385
      5 C7         26.7040   14.7900   -1.7110 C.ar      1 25O        -0.0570
      6 C8         27.7070   15.1260   -2.5280 C.ar      1 25O        -0.0557
      7 C9         28.8970   15.6160   -1.9860 C.ar      1 25O        -0.0429
      8 C10        32.6670   16.9340   -0.3720 C.2       1 25O         0.2119
      9 N1         32.6690   17.8780    0.5680 N.2       1 25O        -0.2628
     10 N2         33.7020   16.4840   -1.1320 N.2       1 25O        -0.2836
     11 C3         30.1920   16.5520   -0.1880 C.2       1 25O         0.1465
     12 N3         33.8910   14.7830   -2.8390 N.pl3     1 25O        -0.3221
     13 C1         31.4540   18.1590    1.1430 C.2       1 25O         0.0258
     14 C          31.3380   19.2490    2.2250 C.3       1 25O        -0.0097
     15 N4         31.7350   15.2970   -1.7430 N.2       1 25O        -0.1844
     16 N          31.4450   16.2140   -0.7660 N.pl3     1 25O        -0.1255
     17 C2         30.2570   17.5220    0.7890 C.2       1 25O         0.0137
     18 H1         28.0132   15.6334    1.2507 H         1 25O         0.0672
     19 H2         26.0019   14.6572    0.2678 H         1 25O         0.0631
     20 H3         25.7868   14.3861   -2.1242 H         1 25O         0.0657
     21 H4         27.5977   15.0191   -3.6012 H         1 25O         0.0631
     22 H5         29.7242   15.8625   -2.6417 H         1 25O         0.0672
     23 H6         34.8966   14.9900   -2.9211 H         1 25O         0.1743
     24 H7         33.4666   14.0498   -3.4248 H         1 25O         0.1743
     25 H8         30.2926   19.3243    2.5589 H         1 25O         0.0459
     26 H9         31.6604   20.2148    1.8086 H         1 25O         0.0459
     27 H10        31.9780   18.9864    3.0802 H         1 25O         0.0459
     28 H11        29.3415   17.8047    1.3066 H         1 25O         0.0570
@<TRIPOS>BOND
     1    1    2 ar 
     2    1    7 ar 
     3   11    1 1  
     4    2    3 ar 
     5    3    5 ar 
     6   10    4 1  
     7    4   12 1  
     8    4   15 2  
     9    6    5 ar 
    10    7    6 ar 
    11    8    9 1  
    12    8   10 2  
    13   16    8 1  
    14    9   13 2  
    15   11   16 1  
    16   11   17 2  
    17   13   14 1  
    18   13   17 1  
    19   15   16 1  
    20    2   18 1  
    21    3   19 1  
    22    5   20 1  
    23    6   21 1  
    24    7   22 1  
    25   12   23 1  
    26   12   24 1  
    27   14   25 1  
    28   14   26 1  
    29   14   27 1  
    30   17   28 1  
@<TRIPOS>SUBSTRUCTURE
     1 25O         1

