### 
### Created by X-TOOL on Mon Sep 10 21:13:15 2018
### 

@<TRIPOS>MOLECULE
4mf0_ligand
   56    60     1     0     0
SMALL
GAST_HUCK


@<TRIPOS>ATOM
      1 C1          0.7310   59.7420    6.9050 C.3       1 29Z        -0.0421
      2 N2          0.3830   61.1520    7.1340 N.4       1 29Z         0.2420
      3 C3          0.6540   61.5150    8.5340 C.3       1 29Z        -0.0421
      4 C4          1.1270   62.0260    6.2070 C.3       1 29Z        -0.0016
      5 C5          0.2410   62.9330    5.3730 C.ar      1 29Z        -0.0053
      6 C6         -0.9390   63.4820    5.8840 C.ar      1 29Z        -0.0618
      7 C7         -1.7080   64.3420    5.1000 C.ar      1 29Z        -0.0662
      8 C8         -1.3200   64.6550    3.7960 C.ar      1 29Z        -0.0439
      9 C9         -0.1240   64.1300    3.3010 C.ar      1 29Z        -0.0662
     10 C10         0.6470   63.2700    4.0810 C.ar      1 29Z        -0.0618
     11 C11        -2.1920   65.6030    2.9870 C.3       1 29Z         0.0126
     12 C12        -1.7370   66.0440    1.5900 C.3       1 29Z        -0.0164
     13 C13        -2.9140   65.0720    1.7410 C.3       1 29Z         0.0710
     14 C14        -4.3150   65.5320    1.3840 C.2       1 29Z         0.2237
     15 O15        -4.5960   66.7150    1.3680 O.2       1 29Z        -0.3778
     16 N16        -5.2150   64.5810    1.0350 N.am      1 29Z        -0.1880
     17 C17        -6.5500   64.7560    0.6790 C.2       1 29Z         0.2131
     18 N18        -7.3090   63.7740    0.3090 N.2       1 29Z        -0.3070
     19 C19        -8.5970   64.0360    0.0250 C.ar      1 29Z         0.0091
     20 C20        -9.5950   63.1400   -0.4250 C.ar      1 29Z        -0.0621
     21 C21       -10.8630   63.5970   -0.6590 C.ar      1 29Z        -0.0663
     22 C22       -11.2070   64.9600   -0.4860 C.ar      1 29Z        -0.0238
     23 C23       -10.2220   65.8650   -0.0670 C.ar      1 29Z        -0.0440
     24 C24        -8.9280   65.3990    0.1960 C.ar      1 29Z         0.0498
     25 S25        -7.4810   66.2580    0.7290 S.3       1 29Z         0.0311
     26 C26       -12.6030   65.4240   -0.7570 C.ar      1 29Z         0.0024
     27 C27       -13.2970   65.0010   -1.9130 C.ar      1 29Z        -0.0374
     28 C28       -14.5970   65.4510   -2.1540 C.ar      1 29Z        -0.0354
     29 C29       -15.1920   66.2980   -1.2220 C.ar      1 29Z         0.0094
     30 N30       -14.5220   66.6860   -0.1380 N.ar      1 29Z        -0.2981
     31 C31       -13.2780   66.2870    0.1220 C.ar      1 29Z         0.0163
     32 H1          0.1673   59.1070    7.6043 H         1 29Z         0.0778
     33 H2          1.8094   59.5993    7.0681 H         1 29Z         0.0778
     34 H3          0.4766   59.4647    5.8714 H         1 29Z         0.0778
     35 H4         -0.6025   61.2710    6.9591 H         1 29Z         0.2041
     36 H5          0.3911   62.5707    8.6965 H         1 29Z         0.0778
     37 H6          1.7219   61.3655    8.7515 H         1 29Z         0.0778
     38 H7          0.0516   60.8803    9.2006 H         1 29Z         0.0778
     39 H8          1.7113   61.3905    5.5254 H         1 29Z         0.0966
     40 H9          1.8095   62.6555    6.7969 H         1 29Z         0.0966
     41 H10        -1.2568   63.2388    6.8914 H         1 29Z         0.0542
     42 H11        -2.6160   64.7716    5.5074 H         1 29Z         0.0540
     43 H12         0.2069   64.3934    2.3029 H         1 29Z         0.0540
     44 H13         1.5677   62.8603    3.6816 H         1 29Z         0.0542
     45 H14        -2.6916   66.3169    3.6584 H         1 29Z         0.0478
     46 H15        -0.7779   65.6876    1.1861 H         1 29Z         0.0319
     47 H16        -1.9158   67.0760    1.2537 H         1 29Z         0.0319
     48 H17        -2.7966   64.0161    1.4560 H         1 29Z         0.0572
     49 H18        -4.8798   63.6389    1.0328 H         1 29Z         0.2455
     50 H19        -9.3557   62.0947   -0.5839 H         1 29Z         0.0535
     51 H20       -11.6243   62.8977   -0.9853 H         1 29Z         0.0561
     52 H21       -10.4598   66.9159    0.0523 H         1 29Z         0.0570
     53 H22       -12.8195   64.3260   -2.6140 H         1 29Z         0.0728
     54 H23       -15.1314   65.1477   -3.0470 H         1 29Z         0.0705
     55 H24       -16.2072   66.6438   -1.3798 H         1 29Z         0.0808
     56 H25       -12.7812   66.6320    1.0216 H         1 29Z         0.0818
@<TRIPOS>BOND
     1    1    2 1  
     2    2    3 1  
     3    2    4 1  
     4    4    5 1  
     5    5    6 ar 
     6    5   10 ar 
     7    6    7 ar 
     8    7    8 ar 
     9    8    9 ar 
    10    8   11 1  
    11    9   10 ar 
    12   11   12 1  
    13   11   13 1  
    14   12   13 1  
    15   13   14 1  
    16   14   15 2  
    17   14   16 am 
    18   16   17 1  
    19   17   18 2  
    20   17   25 1  
    21   18   19 1  
    22   19   20 ar 
    23   19   24 ar 
    24   20   21 ar 
    25   21   22 ar 
    26   22   23 ar 
    27   22   26 1  
    28   23   24 ar 
    29   24   25 1  
    30   26   27 ar 
    31   26   31 ar 
    32   27   28 ar 
    33   28   29 ar 
    34   29   30 ar 
    35   30   31 ar 
    36    1   32 1  
    37    1   33 1  
    38    1   34 1  
    39    2   35 1  
    40    3   36 1  
    41    3   37 1  
    42    3   38 1  
    43    4   39 1  
    44    4   40 1  
    45    6   41 1  
    46    7   42 1  
    47    9   43 1  
    48   10   44 1  
    49   11   45 1  
    50   12   46 1  
    51   12   47 1  
    52   13   48 1  
    53   16   49 1  
    54   20   50 1  
    55   21   51 1  
    56   23   52 1  
    57   27   53 1  
    58   28   54 1  
    59   29   55 1  
    60   31   56 1  
@<TRIPOS>SUBSTRUCTURE
     1 29Z         1

