### 
### Created by X-TOOL on Mon Sep 10 21:13:13 2018
### 

@<TRIPOS>MOLECULE
4mf1_ligand
   54    58     1     0     0
SMALL
GAST_HUCK


@<TRIPOS>ATOM
      1 C1         18.0640  -13.1060   -4.0680 C.3       1 29Y        -0.0421
      2 N2         16.9810  -13.2100   -5.0570 N.4       1 29Y         0.2420
      3 C3         17.5190  -13.2600   -6.4260 C.3       1 29Y        -0.0421
      4 C4         16.0650  -14.3350   -4.7610 C.3       1 29Y        -0.0016
      5 C5         14.9120  -13.8650   -3.8990 C.ar      1 29Y        -0.0053
      6 C6         14.3670  -14.6700   -2.9070 C.ar      1 29Y        -0.0618
      7 C7         13.3140  -14.2080   -2.1280 C.ar      1 29Y        -0.0662
      8 C8         12.8160  -12.9290   -2.3370 C.ar      1 29Y        -0.0439
      9 C9         13.3580  -12.1400   -3.3300 C.ar      1 29Y        -0.0662
     10 C10        14.4020  -12.5990   -4.1050 C.ar      1 29Y        -0.0618
     11 C11        11.6590  -12.3720   -1.5450 C.3       1 29Y         0.0126
     12 C13        11.5740  -10.8690   -1.2760 C.3       1 29Y        -0.0164
     13 C14        10.7230  -11.4860   -2.3890 C.3       1 29Y         0.0708
     14 C16         9.2380  -11.5290   -2.1600 C.2       1 29Y         0.2231
     15 O17         8.8350  -11.5510   -1.0200 O.2       1 29Y        -0.3781
     16 N18         8.3750  -11.5360   -3.2120 N.am      1 29Y        -0.1893
     17 C19         7.0000  -11.5410   -3.0110 C.2       1 29Y         0.2105
     18 N20         6.0980  -11.4510   -3.9390 N.2       1 29Y        -0.3115
     19 C21         4.7960  -11.4390   -3.5530 C.ar      1 29Y         0.0036
     20 C22         3.6290  -11.3510   -4.3490 C.ar      1 29Y        -0.0677
     21 C23         2.3940  -11.3410   -3.7750 C.ar      1 29Y        -0.0752
     22 C24         2.2470  -11.4420   -2.3910 C.ar      1 29Y        -0.0478
     23 C25         3.3710  -11.5370   -1.5860 C.ar      1 29Y        -0.0539
     24 C26         4.6340  -11.5340   -2.1690 C.ar      1 29Y         0.0434
     25 S27         6.2260  -11.6260   -1.4350 S.3       1 29Y         0.0282
     26 C28         0.9020  -11.4220   -1.7700 C.2       1 29Y        -0.0060
     27 C29        -0.2160  -10.8660   -2.3050 C.2       1 29Y         0.0582
     28 N30        -1.2240  -11.0350   -1.4260 N.pl3     1 29Y        -0.2182
     29 N32        -0.7150  -11.7040   -0.3100 N.2       1 29Y        -0.2168
     30 C33         0.5540  -11.9310   -0.5080 C.2       1 29Y         0.0042
     31 H1         18.7172  -12.2597   -4.3272 H         1 29Y         0.0778
     32 H2         18.6514  -14.0360   -4.0683 H         1 29Y         0.0778
     33 H3         17.6337  -12.9444   -3.0687 H         1 29Y         0.0778
     34 H4         16.4350  -12.3656   -4.9872 H         1 29Y         0.2041
     35 H5         16.6889  -13.3375   -7.1436 H         1 29Y         0.0778
     36 H6         18.1764  -14.1358   -6.5299 H         1 29Y         0.0778
     37 H7         18.0937  -12.3441   -6.6278 H         1 29Y         0.0778
     38 H8         16.6184  -15.1222   -4.2281 H         1 29Y         0.0966
     39 H9         15.6704  -14.7390   -5.7050 H         1 29Y         0.0966
     40 H10        14.7656  -15.6641   -2.7399 H         1 29Y         0.0542
     41 H11        12.8836  -14.8422   -1.3615 H         1 29Y         0.0540
     42 H12        12.9585  -11.1473   -3.5032 H         1 29Y         0.0540
     43 H13        14.8227  -11.9649   -4.8770 H         1 29Y         0.0542
     44 H14        11.2890  -13.0964   -0.8046 H         1 29Y         0.0478
     45 H15        12.4223  -10.2170   -1.5314 H         1 29Y         0.0319
     46 H16        11.0933  -10.5023   -0.3570 H         1 29Y         0.0319
     47 H17        10.9433  -11.2977   -3.4501 H         1 29Y         0.0572
     48 H18         8.7360  -11.5376   -4.1446 H         1 29Y         0.2447
     49 H19         3.7192  -11.2909   -5.4276 H         1 29Y         0.0523
     50 H20         1.5137  -11.2534   -4.4014 H         1 29Y         0.0512
     51 H21         3.2668  -11.6131   -0.5097 H         1 29Y         0.0511
     52 H22        -0.2856  -10.3713   -3.2727 H         1 29Y         0.1014
     53 H23        -2.1979  -10.7254   -1.5545 H         1 29Y         0.2591
     54 H24         1.2284  -12.4299    0.1864 H         1 29Y         0.0669
@<TRIPOS>BOND
     1    1    2 1  
     2    2    3 1  
     3    2    4 1  
     4    4    5 1  
     5    5    6 ar 
     6    5   10 ar 
     7    6    7 ar 
     8    7    8 ar 
     9    8    9 ar 
    10    8   11 1  
    11    9   10 ar 
    12   11   12 1  
    13   11   13 1  
    14   12   13 1  
    15   13   14 1  
    16   14   15 2  
    17   14   16 am 
    18   16   17 1  
    19   17   18 2  
    20   17   25 1  
    21   18   19 1  
    22   19   20 ar 
    23   19   24 ar 
    24   20   21 ar 
    25   21   22 ar 
    26   22   23 ar 
    27   22   26 1  
    28   23   24 ar 
    29   24   25 1  
    30   26   27 2  
    31   26   30 1  
    32   27   28 1  
    33   28   29 1  
    34   29   30 2  
    35    1   31 1  
    36    1   32 1  
    37    1   33 1  
    38    2   34 1  
    39    3   35 1  
    40    3   36 1  
    41    3   37 1  
    42    4   38 1  
    43    4   39 1  
    44    6   40 1  
    45    7   41 1  
    46    9   42 1  
    47   10   43 1  
    48   11   44 1  
    49   12   45 1  
    50   12   46 1  
    51   13   47 1  
    52   16   48 1  
    53   20   49 1  
    54   21   50 1  
    55   23   51 1  
    56   27   52 1  
    57   28   53 1  
    58   30   54 1  
@<TRIPOS>SUBSTRUCTURE
     1 29Y         1

