### 
### Created by X-TOOL on Mon Sep 10 21:13:13 2018
### 

@<TRIPOS>MOLECULE
4mfe_ligand
   10     9     1     0     0
SMALL
GAST_HUCK


@<TRIPOS>ATOM
      1 C1        -39.6810   -5.3650   12.2900 C.2       1 3PY         0.1272
      2 O1        -40.6710   -5.1430   11.5290 O.co2     1 3PY        -0.5464
      3 O2        -39.5760   -4.8580   13.4290 O.co2     1 3PY        -0.5464
      4 C2        -38.6760   -6.2980   11.8290 C.2       1 3PY         0.1968
      5 O3        -37.5840   -6.3850   12.3650 O.2       1 3PY        -0.3552
      6 C3        -39.0690   -7.1290   10.6320 C.3       1 3PY         0.1268
      7 O4        -38.4220   -8.3960   10.6550 O.3       1 3PY        -0.3752
      8 H1        -38.7819   -6.5954    9.7140 H         1 3PY         0.0797
      9 H2        -40.1583   -7.2814   10.6421 H         1 3PY         0.0797
     10 H3        -37.4805   -8.2698   10.6426 H         1 3PY         0.2130
@<TRIPOS>BOND
     1    1    2 ar 
     2    1    3 ar 
     3    1    4 1  
     4    4    5 2  
     5    4    6 1  
     6    6    7 1  
     7    6    8 1  
     8    6    9 1  
     9    7   10 1  
@<TRIPOS>SUBSTRUCTURE
     1 3PY         1

