### 
### Created by X-TOOL on Mon Sep 10 21:13:18 2018
### 

@<TRIPOS>MOLECULE
4mg5_ligand
   21    25     1     0     0
SMALL
GAST_HUCK


@<TRIPOS>ATOM
      1 OAU        -8.8520   -2.6510   23.9450 O.2       1 27E        -0.2721
      2 CAA        -7.9330   -3.0470   23.2330 C.2       1 27E         0.1947
      3 CAB        -7.8710   -4.2350   22.5280 C.3       1 27E         0.1535
      4 CLT        -9.3540   -5.2490   22.5040 Cl        1 27E        -0.1136
      5 CAC        -6.5680   -4.8820   23.0400 C.3       1 27E         0.1151
      6 CLS        -6.6530   -6.3350   24.1090 Cl        1 27E        -0.1141
      7 CAH        -6.2310   -5.0860   21.5350 C.3       1 27E         0.1201
      8 CLN        -6.6240   -6.6860   20.7750 Cl        1 27E        -0.1116
      9 CAG        -7.1630   -3.9050   21.2060 C.3       1 27E         0.0992
     10 CLO        -8.1500   -3.8370   19.6940 Cl        1 27E        -0.1157
     11 CAF        -6.3020   -2.6560   21.6050 C.3       1 27E         0.0296
     12 CAE        -6.6620   -2.4870   23.1030 C.3       1 27E         0.1388
     13 CLQ        -6.3940   -0.8790   23.8420 Cl        1 27E        -0.1151
     14 CAD        -5.6910   -3.6570   23.4220 C.3       1 27E         0.1125
     15 CLR        -4.8540   -3.6190   25.0130 Cl        1 27E        -0.1142
     16 CAJ        -4.9740   -3.2660   22.1080 C.3       1 27E         0.1054
     17 CLK        -3.5420   -2.1600   22.2200 Cl        1 27E        -0.1130
     18 CAI        -4.8030   -4.5720   21.3510 C.3       1 27E         0.1608
     19 CLM        -4.3500   -4.3340   19.6220 Cl        1 27E        -0.0970
     20 CLL        -3.5240   -5.6230   22.0660 Cl        1 27E        -0.0970
     21 H          -6.3024   -1.7979   20.9168 H         1 27E         0.0337
@<TRIPOS>BOND
     1    1    2 2  
     2    2    3 1  
     3    2   12 1  
     4    3    4 1  
     5    3    5 1  
     6    3    9 1  
     7    5    6 1  
     8    5    7 1  
     9    5   14 1  
    10    7    8 1  
    11    7    9 1  
    12    7   18 1  
    13    9   10 1  
    14    9   11 1  
    15   11   12 1  
    16   11   16 1  
    17   12   13 1  
    18   12   14 1  
    19   14   15 1  
    20   14   16 1  
    21   16   17 1  
    22   16   18 1  
    23   18   19 1  
    24   18   20 1  
    25   11   21 1  
@<TRIPOS>SUBSTRUCTURE
     1 27E         1

