### 
### Created by X-TOOL on Mon Sep 10 21:13:17 2018
### 

@<TRIPOS>MOLECULE
4mg6_ligand
   43    44     1     0     0
SMALL
GAST_HUCK


@<TRIPOS>ATOM
      1 CAA        25.2020    3.0030    3.4950 C.3       1 27G        -0.0652
      2 CAM        24.9670    2.7260    4.9800 C.3       1 27G        -0.0535
      3 CAN        23.4750    2.4860    5.2310 C.3       1 27G        -0.0254
      4 CAO        23.0800    3.0340    6.6060 C.3       1 27G         0.0757
      5 OAQ        21.6560    3.2070    6.6630 O.3       1 27G        -0.2770
      6 CAS        21.3560    4.4620    7.0970 C.2       1 27G         0.2674
      7 OAB        22.2060    5.2820    7.4300 O.2       1 27G        -0.3547
      8 CAV        19.9990    4.7650    7.1890 C.ar      1 27G         0.0825
      9 CAK        19.3670    4.6430    8.4210 C.ar      1 27G        -0.0351
     10 CAG        18.0160    4.9340    8.5560 C.ar      1 27G        -0.0516
     11 CAH        17.2850    5.3600    7.4570 C.ar      1 27G        -0.0516
     12 CAL        17.9120    5.4920    6.2280 C.ar      1 27G        -0.0351
     13 CAW        19.2620    5.1970    6.0860 C.ar      1 27G         0.0826
     14 CAT        19.8320    5.3450    4.8270 C.2       1 27G         0.2694
     15 OAC        19.1210    5.5880    3.8520 O.2       1 27G        -0.3546
     16 OAR        21.1870    5.2260    4.7690 O.3       1 27G        -0.2637
     17 CAP        21.6310    5.6610    3.4860 C.3       1 27G         0.1097
     18 CAU        22.5590    6.6820    3.6330 C.ar      1 27G        -0.0130
     19 CAI        22.2710    7.7820    4.4320 C.ar      1 27G        -0.0578
     20 CAE        23.2040    8.8050    4.5740 C.ar      1 27G        -0.0685
     21 CAD        24.4300    8.7320    3.9250 C.ar      1 27G        -0.0687
     22 CAF        24.7170    7.6300    3.1290 C.ar      1 27G        -0.0685
     23 CAJ        23.7850    6.6060    2.9860 C.ar      1 27G        -0.0578
     24 H          26.2742    3.1747    3.3193 H         1 27G         0.0230
     25 H          24.6336    3.8954    3.1940 H         1 27G         0.0230
     26 H          24.8674    2.1382    2.9032 H         1 27G         0.0230
     27 H          25.3026    3.5910    5.5708 H         1 27G         0.0263
     28 H          25.5363    1.8339    5.2801 H         1 27G         0.0263
     29 H          23.2689    1.4060    5.1964 H         1 27G         0.0291
     30 H          22.8881    2.9964    4.4532 H         1 27G         0.0291
     31 H          23.5736    4.0033    6.7697 H         1 27G         0.0611
     32 H          23.3945    2.3259    7.3868 H         1 27G         0.0611
     33 H          19.9346    4.3174    9.2852 H         1 27G         0.0684
     34 H          17.5326    4.8282    9.5205 H         1 27G         0.0665
     35 H          16.2302    5.5882    7.5586 H         1 27G         0.0665
     36 H          17.3432    5.8288    5.3689 H         1 27G         0.0684
     37 H          20.7712    6.0292    2.9071 H         1 27G         0.0776
     38 H          22.0965    4.8176    2.9550 H         1 27G         0.0776
     39 H          21.3183    7.8434    4.9454 H         1 27G         0.0557
     40 H          22.9727    9.6633    5.1944 H         1 27G         0.0599
     41 H          25.1568    9.5282    4.0386 H         1 27G         0.0559
     42 H          25.6706    7.5674    2.6173 H         1 27G         0.0599
     43 H          24.0172    5.7465    2.3675 H         1 27G         0.0557
@<TRIPOS>BOND
     1    1    2 1  
     2    2    3 1  
     3    3    4 1  
     4    4    5 1  
     5    5    6 1  
     6    6    7 2  
     7    6    8 1  
     8    8    9 ar 
     9    8   13 ar 
    10    9   10 ar 
    11   10   11 ar 
    12   11   12 ar 
    13   12   13 ar 
    14   13   14 1  
    15   14   15 2  
    16   14   16 1  
    17   16   17 1  
    18   17   18 1  
    19   18   19 ar 
    20   18   23 ar 
    21   19   20 ar 
    22   20   21 ar 
    23   21   22 ar 
    24   22   23 ar 
    25    1   24 1  
    26    1   25 1  
    27    1   26 1  
    28    2   27 1  
    29    2   28 1  
    30    3   29 1  
    31    3   30 1  
    32    4   31 1  
    33    4   32 1  
    34    9   33 1  
    35   10   34 1  
    36   11   35 1  
    37   12   36 1  
    38   17   37 1  
    39   17   38 1  
    40   19   39 1  
    41   20   40 1  
    42   21   41 1  
    43   22   42 1  
    44   23   43 1  
@<TRIPOS>SUBSTRUCTURE
     1 27G         1

