### 
### Created by X-TOOL on Mon Sep 10 21:13:18 2018
### 

@<TRIPOS>MOLECULE
4mg7_ligand
   56    58     1     0     0
SMALL
GAST_HUCK


@<TRIPOS>ATOM
      1 CAB        -5.0500   -6.3700   21.8030 C.3       1 27H        -0.0600
      2 CAV        -5.5930   -4.9670   21.7600 C.3       1 27H        -0.0174
      3 CAC        -6.3730   -4.7840   20.4550 C.3       1 27H        -0.0600
      4 CAZ        -6.3560   -4.5740   23.0870 C.3       1 27H         0.0747
      5 CAX        -7.0780   -3.2040   22.8780 C.3       1 27H         0.0268
      6 OAG        -5.4740   -4.5760   24.1970 O.3       1 27H        -0.3879
      7 CAO        -7.4870   -5.4710   23.3910 C.3       1 27H        -0.0228
      8 CAN        -8.6860   -4.5960   23.5240 C.3       1 27H        -0.0435
      9 CAY        -8.2230   -3.2550   23.8700 C.3       1 27H        -0.0206
     10 CAD        -7.8330   -3.3350   25.3910 C.3       1 27H        -0.0580
     11 CAM        -9.2520   -2.1530   23.5950 C.3       1 27H        -0.0413
     12 CAH        -8.8020   -0.9240   24.0090 C.2       1 27H        -0.1084
     13 CAR        -7.7200   -0.2360   23.5430 C.2       1 27H        -0.0812
     14 CAA        -7.4260    0.9430   24.1540 C.3       1 27H        -0.0403
     15 CAP        -6.8820   -0.6990   22.5410 C.3       1 27H         0.0025
     16 CAW        -6.1700   -1.9830   22.9260 C.3       1 27H         0.1004
     17 OAQ        -5.1870   -2.1490   21.9990 O.3       1 27H        -0.2733
     18 CAS        -3.9180   -2.1890   22.3510 C.2       1 27H         0.2552
     19 OAE        -3.5830   -2.1140   23.5120 O.2       1 27H        -0.3623
     20 CAU        -2.9890   -2.5250   21.3370 C.ar      1 27H         0.0506
     21 CAK        -1.6720   -2.7370   21.6620 C.ar      1 27H        -0.0491
     22 CAI        -0.7490   -3.1020   20.7200 C.ar      1 27H        -0.0268
     23 CAT        -1.1000   -3.2680   19.4090 C.ar      1 27H         0.0934
     24 OAF        -0.2030   -3.6170   18.5140 O.3       1 27H        -0.3294
     25 CAJ        -2.4120   -3.0650   19.0330 C.ar      1 27H        -0.0268
     26 CAL        -3.3190   -2.6970   20.0070 C.ar      1 27H        -0.0491
     27 H          -4.5306   -6.5912   20.8589 H         1 27H         0.0233
     28 H          -5.8789   -7.0799   21.9405 H         1 27H         0.0233
     29 H          -4.3436   -6.4643   22.6409 H         1 27H         0.0233
     30 H          -4.7296   -4.2879   21.7026 H         1 27H         0.0323
     31 H          -5.7434   -5.0881   19.6058 H         1 27H         0.0233
     32 H          -6.6556   -3.7270   20.3419 H         1 27H         0.0233
     33 H          -7.2802   -5.4055   20.4798 H         1 27H         0.0233
     34 H          -7.5147   -3.2014   21.8684 H         1 27H         0.0365
     35 H          -4.8044   -3.9144   24.0692 H         1 27H         0.2102
     36 H          -7.3031   -6.0117   24.3311 H         1 27H         0.0293
     37 H          -7.6309   -6.1938   22.5744 H         1 27H         0.0293
     38 H          -9.3442   -4.9809   24.3169 H         1 27H         0.0273
     39 H          -9.2364   -4.5679   22.5720 H         1 27H         0.0273
     40 H          -7.4710   -2.3527   25.7288 H         1 27H         0.0236
     41 H          -7.0397   -4.0848   25.5272 H         1 27H         0.0236
     42 H          -8.7154   -3.6233   25.9811 H         1 27H         0.0236
     43 H         -10.1820   -2.3915   24.1318 H         1 27H         0.0345
     44 H          -9.4522   -2.1138   22.5141 H         1 27H         0.0345
     45 H          -9.3746   -0.4428   24.8005 H         1 27H         0.0242
     46 H          -6.5376    1.3886   23.6827 H         1 27H         0.0375
     47 H          -7.2241    0.7631   25.2202 H         1 27H         0.0375
     48 H          -8.2785    1.6308   24.0532 H         1 27H         0.0375
     49 H          -6.1274    0.0724   22.3277 H         1 27H         0.0439
     50 H          -7.4815   -0.8853   21.6377 H         1 27H         0.0439
     51 H          -5.7436   -1.8853   23.9353 H         1 27H         0.0673
     52 H          -1.3553   -2.6120   22.6911 H         1 27H         0.0645
     53 H           0.2805   -3.2627   21.0190 H         1 27H         0.0557
     54 H           0.4824   -2.9601   18.4814 H         1 27H         0.2502
     55 H          -2.7220   -3.1909   18.0019 H         1 27H         0.0557
     56 H          -4.3489   -2.5338   19.7108 H         1 27H         0.0645
@<TRIPOS>BOND
     1    1    2 1  
     2    2    3 1  
     3    2    4 1  
     4    4    5 1  
     5    4    6 1  
     6    4    7 1  
     7    5    9 1  
     8    5   16 1  
     9    7    8 1  
    10    8    9 1  
    11    9   10 1  
    12    9   11 1  
    13   11   12 1  
    14   12   13 2  
    15   13   14 1  
    16   13   15 1  
    17   15   16 1  
    18   16   17 1  
    19   17   18 1  
    20   18   19 2  
    21   18   20 1  
    22   20   21 ar 
    23   20   26 ar 
    24   21   22 ar 
    25   22   23 ar 
    26   23   24 1  
    27   23   25 ar 
    28   25   26 ar 
    29    1   27 1  
    30    1   28 1  
    31    1   29 1  
    32    2   30 1  
    33    3   31 1  
    34    3   32 1  
    35    3   33 1  
    36    5   34 1  
    37    6   35 1  
    38    7   36 1  
    39    7   37 1  
    40    8   38 1  
    41    8   39 1  
    42   10   40 1  
    43   10   41 1  
    44   10   42 1  
    45   11   43 1  
    46   11   44 1  
    47   12   45 1  
    48   14   46 1  
    49   14   47 1  
    50   14   48 1  
    51   15   49 1  
    52   15   50 1  
    53   16   51 1  
    54   21   52 1  
    55   22   53 1  
    56   24   54 1  
    57   25   55 1  
    58   26   56 1  
@<TRIPOS>SUBSTRUCTURE
     1 27H         1

