### 
### Created by X-TOOL on Mon Sep 10 21:13:17 2018
### 

@<TRIPOS>MOLECULE
4mg8_ligand
   49    50     1     0     0
SMALL
GAST_HUCK


@<TRIPOS>ATOM
      1 CAO        -7.6530   -5.1250   24.3950 C.3       1 27J        -0.0268
      2 CAK        -6.4560   -4.2240   24.4950 C.3       1 27J        -0.0481
      3 CAM        -6.6530   -2.9680   23.7350 C.3       1 27J        -0.0225
      4 CAV        -5.3430   -2.2170   23.5800 C.3       1 27J         0.0831
      5 CAA        -5.6220   -0.7530   23.2250 C.3       1 27J        -0.0344
      6 OAP        -4.5180   -2.8640   22.6240 O.3       1 27J        -0.2789
      7 CAQ        -3.2220   -2.7530   22.7800 C.2       1 27J         0.2446
      8 OAB        -2.7470   -2.2070   23.7550 O.2       1 27J        -0.3727
      9 CAU        -2.3850   -3.2060   21.7030 C.ar      1 27J         0.0803
     10 CAS        -1.0260   -3.0230   21.7980 C.ar      1 27J         0.0962
     11 OAD        -0.5410   -2.4810   22.9190 O.3       1 27J        -0.3317
     12 CAF        -0.1420   -3.3920   20.8250 C.ar      1 27J        -0.0057
     13 CAR        -0.6040   -3.9410   19.6840 C.ar      1 27J         0.0783
     14 OAC         0.2740   -4.2990   18.7470 O.3       1 27J        -0.3340
     15 CAG        -1.9420   -4.1200   19.5320 C.ar      1 27J        -0.0365
     16 CAT        -2.8540   -3.7880   20.4960 C.ar      1 27J        -0.0374
     17 CAL        -4.1700   -4.0250   20.1890 C.3       1 27J        -0.0200
     18 CAI        -4.5920   -5.3680   20.6670 C.3       1 27J        -0.0426
     19 CAH        -6.0310   -5.6040   20.5150 C.3       1 27J        -0.0510
     20 CAJ        -6.4970   -6.8980   21.1750 C.3       1 27J        -0.0506
     21 CAN        -6.7970   -6.7690   22.7040 C.3       1 27J        -0.0269
     22 CAW        -7.8610   -5.7620   23.0240 C.3       1 27J         0.0553
     23 OAE        -9.0680   -6.4300   22.9870 O.3       1 27J        -0.3918
     24 H          -8.5481   -4.5331   24.6368 H         1 27J         0.0290
     25 H          -7.5366   -5.9321   25.1333 H         1 27J         0.0290
     26 H          -5.5783   -4.7507   24.0924 H         1 27J         0.0267
     27 H          -6.2823   -3.9774   25.5528 H         1 27J         0.0267
     28 H          -7.3717   -2.3313   24.2718 H         1 27J         0.0293
     29 H          -7.0500   -3.2090   22.7379 H         1 27J         0.0293
     30 H          -4.8166   -2.2356   24.5457 H         1 27J         0.0644
     31 H          -4.6692   -0.2146   23.1141 H         1 27J         0.0258
     32 H          -6.2148   -0.2879   24.0264 H         1 27J         0.0258
     33 H          -6.1822   -0.7053   22.2796 H         1 27J         0.0258
     34 H          -0.9154   -1.6161   23.0390 H         1 27J         0.2506
     35 H           0.9223   -3.2447   20.9689 H         1 27J         0.0422
     36 H           0.7655   -3.5358   18.4670 H         1 27J         0.2497
     37 H          -2.3040   -4.5459   18.6032 H         1 27J         0.0406
     38 H          -4.3004   -3.9736   19.0980 H         1 27J         0.0437
     39 H          -4.7958   -3.2586   20.6696 H         1 27J         0.0437
     40 H          -4.3326   -5.4585   21.7321 H         1 27J         0.0289
     41 H          -4.0488   -6.1317   20.0911 H         1 27J         0.0289
     42 H          -6.2664   -5.6538   19.4416 H         1 27J         0.0267
     43 H          -6.5740   -4.7630   20.9709 H         1 27J         0.0267
     44 H          -5.7108   -7.6556   21.0410 H         1 27J         0.0266
     45 H          -7.4163   -7.2303   20.6705 H         1 27J         0.0266
     46 H          -5.8704   -6.4706   23.2163 H         1 27J         0.0290
     47 H          -7.1232   -7.7505   23.0784 H         1 27J         0.0290
     48 H          -7.8526   -4.9687   22.2621 H         1 27J         0.0593
     49 H          -9.7710   -5.8226   23.1856 H         1 27J         0.2098
@<TRIPOS>BOND
     1    1    2 1  
     2    1   22 1  
     3    2    3 1  
     4    3    4 1  
     5    4    5 1  
     6    4    6 1  
     7    6    7 1  
     8    7    8 2  
     9    7    9 1  
    10    9   10 ar 
    11    9   16 ar 
    12   10   11 1  
    13   10   12 ar 
    14   12   13 ar 
    15   13   14 1  
    16   13   15 ar 
    17   15   16 ar 
    18   16   17 1  
    19   17   18 1  
    20   18   19 1  
    21   19   20 1  
    22   20   21 1  
    23   21   22 1  
    24   22   23 1  
    25    1   24 1  
    26    1   25 1  
    27    2   26 1  
    28    2   27 1  
    29    3   28 1  
    30    3   29 1  
    31    4   30 1  
    32    5   31 1  
    33    5   32 1  
    34    5   33 1  
    35   11   34 1  
    36   12   35 1  
    37   14   36 1  
    38   15   37 1  
    39   17   38 1  
    40   17   39 1  
    41   18   40 1  
    42   18   41 1  
    43   19   42 1  
    44   19   43 1  
    45   20   44 1  
    46   20   45 1  
    47   21   46 1  
    48   21   47 1  
    49   22   48 1  
    50   23   49 1  
@<TRIPOS>SUBSTRUCTURE
     1 27J         1

