### 
### Created by X-TOOL on Mon Sep 10 21:13:18 2018
### 

@<TRIPOS>MOLECULE
4mg9_ligand
   28    28     1     0     0
SMALL
GAST_HUCK


@<TRIPOS>ATOM
      1 CAA        -7.5780   -5.2640   24.0420 C.3       1 27K        -0.0652
      2 CAH        -6.7740   -4.2740   23.1940 C.3       1 27K        -0.0535
      3 CAI        -6.5280   -3.0140   24.0250 C.3       1 27K        -0.0254
      4 CAJ        -5.7450   -1.9350   23.2600 C.3       1 27K         0.0755
      5 OAK        -4.4060   -2.2860   22.8320 O.3       1 27K        -0.2791
      6 CAL        -4.2460   -2.9380   21.6410 C.2       1 27K         0.2548
      7 OAB        -5.1520   -3.4460   20.9790 O.2       1 27K        -0.3624
      8 CAN        -2.9120   -2.9920   21.2390 C.ar      1 27K         0.0506
      9 CAF        -2.5040   -3.5280   20.0170 C.ar      1 27K        -0.0491
     10 CAD        -1.1520   -3.5100   19.6730 C.ar      1 27K        -0.0268
     11 CAM        -0.2390   -2.9380   20.5580 C.ar      1 27K         0.0934
     12 OAC         1.0840   -2.8850   20.2760 O.3       1 27K        -0.3294
     13 CAE        -0.6470   -2.3960   21.7640 C.ar      1 27K        -0.0268
     14 CAG        -1.9840   -2.4120   22.0910 C.ar      1 27K        -0.0491
     15 H          -7.7649   -6.1783   23.4596 H         1 27K         0.0230
     16 H          -8.5377   -4.8081   24.3267 H         1 27K         0.0230
     17 H          -7.0089   -5.5168   24.9487 H         1 27K         0.0230
     18 H          -7.3407   -4.0160   22.2872 H         1 27K         0.0263
     19 H          -5.8118   -4.7247   22.9093 H         1 27K         0.0263
     20 H          -5.9564   -3.2919   24.9228 H         1 27K         0.0291
     21 H          -7.5004   -2.5958   24.3243 H         1 27K         0.0291
     22 H          -5.6662   -1.0536   23.9133 H         1 27K         0.0611
     23 H          -6.3250   -1.6753   22.3621 H         1 27K         0.0611
     24 H          -3.2334   -3.9560   19.3388 H         1 27K         0.0645
     25 H          -0.8169   -3.9337   18.7332 H         1 27K         0.0557
     26 H           1.4177   -3.7670   20.1609 H         1 27K         0.2502
     27 H           0.0783   -1.9636   22.4438 H         1 27K         0.0557
     28 H          -2.3145   -1.9673   23.0227 H         1 27K         0.0645
@<TRIPOS>BOND
     1    1    2 1  
     2    2    3 1  
     3    3    4 1  
     4    4    5 1  
     5    5    6 1  
     6    6    7 2  
     7    6    8 1  
     8    8    9 ar 
     9    8   14 ar 
    10    9   10 ar 
    11   10   11 ar 
    12   11   12 1  
    13   11   13 ar 
    14   13   14 ar 
    15    1   15 1  
    16    1   16 1  
    17    1   17 1  
    18    2   18 1  
    19    2   19 1  
    20    3   20 1  
    21    3   21 1  
    22    4   22 1  
    23    4   23 1  
    24    9   24 1  
    25   10   25 1  
    26   12   26 1  
    27   13   27 1  
    28   14   28 1  
@<TRIPOS>SUBSTRUCTURE
     1 27K         1

