### 
### Created by X-TOOL on Mon Sep 10 21:13:18 2018
### 

@<TRIPOS>MOLECULE
4mga_ligand
   37    37     1     0     0
SMALL
GAST_HUCK


@<TRIPOS>ATOM
      1 CAA        -6.4980   -6.4340   20.8830 C.3       1 27L        -0.0609
      2 CAN        -5.5440   -5.5920   21.7280 C.3       1 27L        -0.0462
      3 CAB        -4.1030   -6.0140   21.4820 C.3       1 27L        -0.0609
      4 CAC        -5.9320   -5.8920   23.1810 C.3       1 27L        -0.0609
      5 CAK        -5.8500   -4.1050   21.4280 C.3       1 27L        -0.0733
      6 CAO        -4.9650   -2.9950   22.0480 C.3       1 27L        -0.0537
      7 CAD        -4.9280   -3.0710   23.5760 C.3       1 27L        -0.0901
      8 CAE        -5.5920   -1.6590   21.6620 C.3       1 27L        -0.0901
      9 CAM        -3.6350   -3.0020   21.5690 C.ar      1 27L        -0.0623
     10 CAI        -2.5850   -2.6180   22.4010 C.ar      1 27L        -0.0461
     11 CAG        -1.2770   -2.5880   21.9260 C.ar      1 27L         0.0011
     12 CAL        -1.0170   -2.9290   20.6030 C.ar      1 27L         0.1256
     13 OAF         0.2600   -2.8960   20.1370 O.3       1 27L        -0.3081
     14 CAH        -2.0560   -3.2950   19.7560 C.ar      1 27L         0.0011
     15 CAJ        -3.3660   -3.3210   20.2340 C.ar      1 27L        -0.0461
     16 H          -6.3092   -7.5013   21.0706 H         1 27L         0.0235
     17 H          -6.3350   -6.2146   19.8175 H         1 27L         0.0235
     18 H          -7.5368   -6.1926   21.1524 H         1 27L         0.0235
     19 H          -3.4305   -5.3984   22.0975 H         1 27L         0.0235
     20 H          -3.8567   -5.8753   20.4189 H         1 27L         0.0235
     21 H          -3.9800   -7.0733   21.7518 H         1 27L         0.0235
     22 H          -6.9742   -5.5850   23.3530 H         1 27L         0.0235
     23 H          -5.2691   -5.3356   23.8599 H         1 27L         0.0235
     24 H          -5.8311   -6.9705   23.3723 H         1 27L         0.0235
     25 H          -6.8796   -3.9174   21.7668 H         1 27L         0.0159
     26 H          -5.7952   -3.9828   20.3362 H         1 27L         0.0159
     27 H          -4.2894   -2.2656   23.9678 H         1 27L         0.0117
     28 H          -4.5206   -4.0450   23.8850 H         1 27L         0.0117
     29 H          -5.9473   -2.9570   23.9736 H         1 27L         0.0117
     30 H          -5.6320   -1.5758   20.5659 H         1 27L         0.0117
     31 H          -4.9849   -0.8375   22.0701 H         1 27L         0.0117
     32 H          -6.6112   -1.6003   22.0715 H         1 27L         0.0117
     33 H          -2.7890   -2.3398   23.4286 H         1 27L         0.0823
     34 H          -0.4650   -2.3003   22.5840 H         1 27L         0.0651
     35 H           0.2690   -3.1537   19.2226 H         1 27L         0.2631
     36 H          -1.8487   -3.5599   18.7255 H         1 27L         0.0651
     37 H          -4.1785   -3.5894   19.5685 H         1 27L         0.0823
@<TRIPOS>BOND
     1    1    2 1  
     2    2    3 1  
     3    2    4 1  
     4    2    5 1  
     5    5    6 1  
     6    6    7 1  
     7    6    8 1  
     8    6    9 1  
     9    9   10 ar 
    10    9   15 ar 
    11   10   11 ar 
    12   11   12 ar 
    13   12   13 1  
    14   12   14 ar 
    15   14   15 ar 
    16    1   16 1  
    17    1   17 1  
    18    1   18 1  
    19    3   19 1  
    20    3   20 1  
    21    3   21 1  
    22    4   22 1  
    23    4   23 1  
    24    4   24 1  
    25    5   25 1  
    26    5   26 1  
    27    7   27 1  
    28    7   28 1  
    29    7   29 1  
    30    8   30 1  
    31    8   31 1  
    32    8   32 1  
    33   10   33 1  
    34   11   34 1  
    35   13   35 1  
    36   14   36 1  
    37   15   37 1  
@<TRIPOS>SUBSTRUCTURE
     1 27L         1

