### 
### Created by X-TOOL on Mon Sep 10 21:13:19 2018
### 

@<TRIPOS>MOLECULE
4mgb_ligand
   33    34     1     0     0
SMALL
GAST_HUCK


@<TRIPOS>ATOM
      1 CAA        -4.9800   -6.2450   21.6990 C.3       1 XDH        -0.1043
      2 CAB        -5.8500   -5.0940   19.6750 C.3       1 XDH        -0.1043
      3 OAC        -0.4250   -2.2360   20.4390 O.3       1 XDH        -0.3126
      4 OAD        -8.8270   -1.9960   24.0730 O.3       1 XDH        -0.3126
      5 CLAE       -1.6180   -3.1230   17.9630 Cl        1 XDH        -0.0705
      6 CLAF       -1.2420   -2.4370   23.2340 Cl        1 XDH        -0.0705
      7 CLAG       -8.7350   -4.8610   24.7910 Cl        1 XDH        -0.0705
      8 CLAH       -7.4010   -0.3740   22.0950 Cl        1 XDH        -0.0705
      9 CAI        -3.4810   -4.0160   19.6670 C.ar      1 XDH        -0.0445
     10 CAJ        -3.3300   -3.7180   22.0610 C.ar      1 XDH        -0.0445
     11 CAK        -6.8910   -4.7930   22.8050 C.ar      1 XDH        -0.0445
     12 CAL        -6.2920   -2.7840   21.5920 C.ar      1 XDH        -0.0445
     13 CAM        -1.6110   -2.8840   20.6160 C.ar      1 XDH         0.1450
     14 CAN        -7.9380   -2.7130   23.3290 C.ar      1 XDH         0.1450
     15 CAO        -2.2740   -3.3570   19.5040 C.ar      1 XDH         0.0933
     16 CAP        -2.1140   -3.0490   21.8980 C.ar      1 XDH         0.0933
     17 CAQ        -7.8030   -4.0730   23.5680 C.ar      1 XDH         0.0933
     18 CAR        -7.1990   -2.0560   22.3560 C.ar      1 XDH         0.0933
     19 CAS        -4.0170   -4.1960   20.9390 C.ar      1 XDH        -0.0876
     20 CAT        -6.1390   -4.1490   21.8220 C.ar      1 XDH        -0.0876
     21 CAU        -5.2340   -4.8790   21.0570 C.3       1 XDH        -0.0588
     22 H          -4.2639   -6.8111   21.0852 H         1 XDH         0.0064
     23 H          -5.9268   -6.8012   21.7645 H         1 XDH         0.0064
     24 H          -4.5667   -6.1045   22.7087 H         1 XDH         0.0064
     25 H          -6.0380   -4.1190   19.2017 H         1 XDH         0.0064
     26 H          -6.7989   -5.6408   19.7775 H         1 XDH         0.0064
     27 H          -5.1565   -5.6768   19.0510 H         1 XDH         0.0064
     28 H          -0.0831   -1.9673   21.2837 H         1 XDH         0.2601
     29 H          -8.8083   -1.0870   23.7974 H         1 XDH         0.2601
     30 H          -4.0109   -4.3935   18.7999 H         1 XDH         0.0765
     31 H          -3.7400   -3.8663   23.0534 H         1 XDH         0.0765
     32 H          -6.7639   -5.8562   22.9740 H         1 XDH         0.0765
     33 H          -5.7082   -2.2917   20.8226 H         1 XDH         0.0765
@<TRIPOS>BOND
     1   21    1 1  
     2   21    2 1  
     3   13    3 1  
     4   14    4 1  
     5   15    5 1  
     6   16    6 1  
     7   17    7 1  
     8   18    8 1  
     9    9   15 ar 
    10   19    9 ar 
    11   10   16 ar 
    12   19   10 ar 
    13   11   17 ar 
    14   20   11 ar 
    15   12   18 ar 
    16   20   12 ar 
    17   15   13 ar 
    18   16   13 ar 
    19   17   14 ar 
    20   18   14 ar 
    21   21   19 1  
    22   20   21 1  
    23    1   22 1  
    24    1   23 1  
    25    1   24 1  
    26    2   25 1  
    27    2   26 1  
    28    2   27 1  
    29    3   28 1  
    30    4   29 1  
    31    9   30 1  
    32   10   31 1  
    33   11   32 1  
    34   12   33 1  
@<TRIPOS>SUBSTRUCTURE
     1 XDH         1

