### 
### Created by X-TOOL on Mon Sep 10 21:13:18 2018
### 

@<TRIPOS>MOLECULE
4mgc_ligand
   28    29     1     0     0
SMALL
GAST_HUCK


@<TRIPOS>ATOM
      1 OAD        -2.0230   -4.9330   22.2060 O.3       1 27M        -0.3303
      2 CAO        -2.5600   -5.1590   20.9780 C.ar      1 27M         0.0991
      3 CAJ        -1.7400   -5.4750   19.9020 C.ar      1 27M         0.0009
      4 CAM        -2.3030   -5.7260   18.6610 C.ar      1 27M         0.0848
      5 OAB        -1.4970   -6.0140   17.6060 O.3       1 27M        -0.3323
      6 CAF        -3.6860   -5.6810   18.5150 C.ar      1 27M        -0.0377
      7 CAH        -4.4920   -5.3800   19.6120 C.ar      1 27M        -0.0599
      8 CAQ        -3.9490   -5.1750   20.8790 C.ar      1 27M         0.0475
      9 CAL        -4.7320   -4.8090   21.9890 C.2       1 27M         0.1336
     10 OAA        -4.1910   -4.3810   23.0060 O.2       1 27M        -0.3913
     11 CAR        -6.1260   -4.9640   21.9520 C.ar      1 27M         0.0475
     12 CAI        -6.7520   -5.7820   21.0150 C.ar      1 27M        -0.0599
     13 CAG        -8.1290   -5.9770   21.0380 C.ar      1 27M        -0.0377
     14 CAN        -8.9020   -5.4000   22.0400 C.ar      1 27M         0.0848
     15 OAC       -10.2480   -5.5930   22.0700 O.3       1 27M        -0.3323
     16 CAK        -8.2910   -4.6250   23.0100 C.ar      1 27M         0.0009
     17 CAP        -6.9160   -4.4610   22.9850 C.ar      1 27M         0.0991
     18 OAE        -6.3030   -3.6850   23.9150 O.3       1 27M        -0.3303
     19 H          -2.7176   -4.7315   22.8219 H         1 27M         0.2507
     20 H          -0.6651   -5.5250   20.0326 H         1 27M         0.0475
     21 H          -0.9939   -6.7967   17.7977 H         1 27M         0.2499
     22 H          -4.1363   -5.8798   17.5492 H         1 27M         0.0471
     23 H          -5.5648   -5.3037   19.4764 H         1 27M         0.0616
     24 H          -6.1564   -6.2749   20.2552 H         1 27M         0.0616
     25 H          -8.6016   -6.5811   20.2719 H         1 27M         0.0471
     26 H         -10.6164   -5.1317   22.8143 H         1 27M         0.2499
     27 H          -8.8839   -4.1500   23.7833 H         1 27M         0.0475
     28 H          -5.3667   -3.6804   23.7546 H         1 27M         0.2507
@<TRIPOS>BOND
     1    1    2 1  
     2    2    3 ar 
     3    2    8 ar 
     4    3    4 ar 
     5    4    5 1  
     6    4    6 ar 
     7    6    7 ar 
     8    7    8 ar 
     9    8    9 1  
    10    9   10 2  
    11    9   11 1  
    12   11   12 ar 
    13   11   17 ar 
    14   12   13 ar 
    15   13   14 ar 
    16   14   15 1  
    17   14   16 ar 
    18   16   17 ar 
    19   17   18 1  
    20    1   19 1  
    21    3   20 1  
    22    5   21 1  
    23    6   22 1  
    24    7   23 1  
    25   12   24 1  
    26   13   25 1  
    27   15   26 1  
    28   16   27 1  
    29   18   28 1  
@<TRIPOS>SUBSTRUCTURE
     1 27M         1

