### 
### Created by X-TOOL on Mon Sep 10 21:13:18 2018
### 

@<TRIPOS>MOLECULE
4mgd_ligand
   30    31     1     0     0
SMALL
GAST_HUCK


@<TRIPOS>ATOM
      1 CAJ        -3.0630   -3.7320   20.0770 C.ar      1 27N        -0.0666
      2 CAF        -1.7890   -3.4240   19.5820 C.ar      1 27N        -0.0395
      3 CAN        -0.8000   -2.9620   20.4490 C.ar      1 27N         0.0807
      4 OAA         0.4310   -2.6520   19.9840 O.3       1 27N        -0.3374
      5 CAG        -1.0710   -2.7950   21.7980 C.ar      1 27N        -0.0395
      6 CAK        -2.3320   -3.1150   22.2870 C.ar      1 27N        -0.0666
      7 CAP        -3.3480   -3.5670   21.4400 C.ar      1 27N        -0.0371
      8 CAR        -4.6120   -3.9110   22.0120 C.3       1 27N         0.0625
      9 CAS        -5.5630   -2.7460   22.4240 C.3       1 27N         0.2093
     10 CLD        -6.0420   -1.7470   21.0650 Cl        1 27N        -0.0790
     11 CLE        -7.0190   -3.4940   23.1790 Cl        1 27N        -0.0790
     12 CLC        -4.8160   -1.6890   23.6260 Cl        1 27N        -0.0790
     13 CAQ        -5.2740   -4.9610   21.2970 C.ar      1 27N        -0.0371
     14 CAL        -4.8280   -6.2730   21.4750 C.ar      1 27N        -0.0666
     15 CAH        -5.4570   -7.3200   20.7980 C.ar      1 27N        -0.0395
     16 CAO        -6.5320   -7.0720   19.9410 C.ar      1 27N         0.0807
     17 OAB        -7.1410   -8.1060   19.2840 O.3       1 27N        -0.3374
     18 CAI        -6.9880   -5.7680   19.7620 C.ar      1 27N        -0.0395
     19 CAM        -6.3560   -4.7210   20.4340 C.ar      1 27N        -0.0666
     20 H          -3.8302   -4.0987   19.4047 H         1 27N         0.0533
     21 H          -1.5727   -3.5447   18.5267 H         1 27N         0.0526
     22 H           0.8211   -3.4215   19.5864 H         1 27N         0.2459
     23 H          -0.3055   -2.4178   22.4664 H         1 27N         0.0526
     24 H          -2.5318   -3.0119   23.3474 H         1 27N         0.0533
     25 H          -4.3406   -4.3682   22.9750 H         1 27N         0.0619
     26 H          -3.9949   -6.4779   22.1376 H         1 27N         0.0533
     27 H          -5.1073   -8.3363   20.9390 H         1 27N         0.0526
     28 H          -7.8472   -7.7663   18.7468 H         1 27N         0.2459
     29 H          -7.8273   -5.5681   19.1058 H         1 27N         0.0526
     30 H          -6.7059   -3.7055   20.2876 H         1 27N         0.0533
@<TRIPOS>BOND
     1    1    2 ar 
     2    1    7 ar 
     3    2    3 ar 
     4    3    4 1  
     5    3    5 ar 
     6    5    6 ar 
     7    6    7 ar 
     8    7    8 1  
     9    8    9 1  
    10    8   13 1  
    11    9   10 1  
    12    9   11 1  
    13    9   12 1  
    14   13   14 ar 
    15   13   19 ar 
    16   14   15 ar 
    17   15   16 ar 
    18   16   17 1  
    19   16   18 ar 
    20   18   19 ar 
    21    1   20 1  
    22    2   21 1  
    23    4   22 1  
    24    5   23 1  
    25    6   24 1  
    26    8   25 1  
    27   14   26 1  
    28   15   27 1  
    29   17   28 1  
    30   18   29 1  
    31   19   30 1  
@<TRIPOS>SUBSTRUCTURE
     1 27N         1

