### 
### Created by X-TOOL on Mon Sep 10 21:13:14 2018
### 

@<TRIPOS>MOLECULE
4mgv_ligand
   43    46     1     0     0
SMALL
GAST_HUCK


@<TRIPOS>ATOM
      1 O1        -11.4000    3.6780   20.1100 O.2       1 D5I        -0.3423
      2 C2        -11.2060    3.5180   21.3080 C.2       1 D5I         0.2228
      3 C3         -9.8490    3.0410   21.7430 C.3       1 D5I         0.0539
      4 C4         -9.9970    2.6060   23.2240 C.3       1 D5I        -0.0378
      5 C5         -8.6440    2.2000   23.7810 C.3       1 D5I        -0.0409
      6 C12        -8.1620    1.0390   22.9090 C.3       1 D5I        -0.0476
      7 C10        -7.9710    1.4670   21.4430 C.3       1 D5I        -0.0409
      8 C11        -9.3370    1.8790   20.8880 C.3       1 D5I        -0.0378
      9 C6         -7.7050    3.4140   23.6270 C.3       1 D5I        -0.0476
     10 C7         -7.4840    3.8420   22.1640 C.3       1 D5I        -0.0409
     11 C9         -6.9790    2.6500   21.3620 C.3       1 D5I        -0.0476
     12 C8         -8.8440    4.2010   21.5640 C.3       1 D5I        -0.0378
     13 N13       -12.0740    3.7080   22.3390 N.am      1 D5I        -0.1814
     14 N14       -13.4210    4.1970   22.3580 N.am      1 D5I        -0.1797
     15 C15       -13.4460    5.4480   22.8170 C.2       1 D5I         0.2362
     16 O16       -12.3830    5.9420   23.1150 O.2       1 D5I        -0.3773
     17 C17       -14.6250    6.3590   23.0280 C.ar      1 D5I         0.0716
     18 C18       -15.4510    6.2160   24.1430 C.ar      1 D5I        -0.0141
     19 C19       -16.5120    7.1010   24.3470 C.ar      1 D5I         0.0169
     20 N20       -16.7210    8.1040   23.4780 N.ar      1 D5I        -0.2918
     21 C21       -15.9340    8.2800   22.3990 C.ar      1 D5I         0.0169
     22 C22       -14.8650    7.4220   22.1560 C.ar      1 D5I        -0.0141
     23 H1        -10.6880    1.7524   23.2861 H         1 D5I         0.0260
     24 H2        -10.3968    3.4450   23.8124 H         1 D5I         0.0260
     25 H3         -8.7154    1.8957   24.8357 H         1 D5I         0.0300
     26 H4         -8.9063    0.2301   22.9497 H         1 D5I         0.0270
     27 H5         -7.2015    0.6737   23.3014 H         1 D5I         0.0270
     28 H6         -7.5752    0.6226   20.8596 H         1 D5I         0.0300
     29 H7         -9.2358    2.1994   19.8406 H         1 D5I         0.0260
     30 H8        -10.0370    1.0325   20.9465 H         1 D5I         0.0260
     31 H9         -6.7293    3.1566   24.0650 H         1 D5I         0.0270
     32 H10        -8.1407    4.2623   24.1752 H         1 D5I         0.0270
     33 H11        -6.7824    4.6872   22.1063 H         1 D5I         0.0300
     34 H12        -6.8605    2.9486   20.3100 H         1 D5I         0.0270
     35 H13        -6.0061    2.3318   21.7647 H         1 D5I         0.0270
     36 H14        -9.2348    5.0972   22.0681 H         1 D5I         0.0260
     37 H15        -8.7207    4.4084   20.4908 H         1 D5I         0.0260
     38 H16       -11.7091    3.4646   23.2377 H         1 D5I         0.2172
     39 H17       -14.2243    3.6760   22.0692 H         1 D5I         0.2164
     40 H18       -15.2691    5.4167   24.8523 H         1 D5I         0.0762
     41 H19       -17.1648    6.9790   25.2038 H         1 D5I         0.0837
     42 H20       -16.1347    9.0962   21.7145 H         1 D5I         0.0837
     43 H21       -14.2239    7.5783   21.2960 H         1 D5I         0.0762
@<TRIPOS>BOND
     1    1    2 2  
     2    2    3 1  
     3    2   13 am 
     4    3    4 1  
     5    3    8 1  
     6    3   12 1  
     7    4    5 1  
     8    5    6 1  
     9    5    9 1  
    10    6    7 1  
    11    7    8 1  
    12    7   11 1  
    13    9   10 1  
    14   10   11 1  
    15   10   12 1  
    16   13   14 1  
    17   14   15 am 
    18   15   16 2  
    19   15   17 1  
    20   17   18 ar 
    21   17   22 ar 
    22   18   19 ar 
    23   19   20 ar 
    24   20   21 ar 
    25   21   22 ar 
    26    4   23 1  
    27    4   24 1  
    28    5   25 1  
    29    6   26 1  
    30    6   27 1  
    31    7   28 1  
    32    8   29 1  
    33    8   30 1  
    34    9   31 1  
    35    9   32 1  
    36   10   33 1  
    37   11   34 1  
    38   11   35 1  
    39   12   36 1  
    40   12   37 1  
    41   13   38 1  
    42   14   39 1  
    43   18   40 1  
    44   19   41 1  
    45   21   42 1  
    46   22   43 1  
@<TRIPOS>SUBSTRUCTURE
     1 D5I         1

