### 
### Created by X-TOOL on Mon Sep 10 21:13:20 2018
### 

@<TRIPOS>MOLECULE
4mh7_ligand
   62    63     1     0     0
SMALL
GAST_HUCK


@<TRIPOS>ATOM
      1 C01        12.9460   16.6330   20.2150 C.3       1 MH7        -0.0652
      2 C02        13.1140   18.1280   20.3040 C.3       1 MH7        -0.0540
      3 C03        13.0620   18.8060   18.9310 C.3       1 MH7        -0.0325
      4 C04        14.2780   19.7490   18.7160 C.3       1 MH7         0.0315
      5 N05        14.2250   20.3330   17.3860 N.pl3     1 MH7        -0.2898
      6 C06        14.9140   19.6650   16.2990 C.ar      1 MH7         0.1784
      7 N07        16.0140   20.2190   15.7490 N.ar      1 MH7        -0.2658
      8 C08        16.6720   19.6000   14.7400 C.ar      1 MH7         0.0203
      9 C09        16.2260   18.3570   14.2380 C.ar      1 MH7         0.1041
     10 C10        16.8540   17.5260   13.1000 C.2       1 MH7         0.2032
     11 O11        16.2610   16.4890   12.8830 O.2       1 MH7        -0.3928
     12 N12        18.0300   17.7870   12.2590 N.am      1 MH7        -0.2777
     13 C13        18.9050   18.9470   12.3160 C.3       1 MH7         0.0217
     14 C14        18.4560   16.8110   11.2330 C.3       1 MH7         0.0327
     15 C15        19.7600   16.1450   11.7790 C.3       1 MH7        -0.0329
     16 C16        20.9720   16.3160   10.8860 C.3       1 MH7        -0.0541
     17 C17        22.2490   15.7450   11.5440 C.3       1 MH7        -0.0652
     18 C18        15.0650   17.8160   14.8560 C.ar      1 MH7         0.1345
     19 N19        14.4770   16.5320   14.4530 N.pl3     1 MH7        -0.2965
     20 C20        13.3330   16.0450   15.1560 C.3       1 MH7         0.0417
     21 C21        13.8250   15.2570   16.3740 C.3       1 MH7        -0.0271
     22 C22        12.6660   14.6350   17.1300 C.3       1 MH7        -0.0247
     23 C23        11.7810   13.8060   16.2360 C.3       1 MH7         0.0554
     24 O24        10.6190   13.4410   16.9590 O.3       1 MH7        -0.3918
     25 C25        11.3450   14.5570   14.9690 C.3       1 MH7        -0.0247
     26 C26        12.5120   15.1860   14.2320 C.3       1 MH7        -0.0271
     27 N27        14.4510   18.4840   15.8560 N.ar      1 MH7        -0.2356
     28 H          12.9910   16.1983   21.2244 H         1 MH7         0.0230
     29 H          13.7516   16.2096   19.5972 H         1 MH7         0.0230
     30 H          11.9727   16.3999   19.7585 H         1 MH7         0.0230
     31 H          14.0865   18.3468   20.7690 H         1 MH7         0.0263
     32 H          12.3076   18.5371   20.9304 H         1 MH7         0.0263
     33 H          12.1357   19.3947   18.8577 H         1 MH7         0.0285
     34 H          13.0673   18.0319   18.1495 H         1 MH7         0.0285
     35 H          15.2091   19.1733   18.8242 H         1 MH7         0.0526
     36 H          14.2538   20.5518   19.4676 H         1 MH7         0.0526
     37 H          13.7065   21.2071   17.2184 H         1 MH7         0.1877
     38 H          17.5528   20.0646   14.3118 H         1 MH7         0.0904
     39 H          19.6950   18.8480   11.5570 H         1 MH7         0.0485
     40 H          19.3619   19.0129   13.3144 H         1 MH7         0.0485
     41 H          18.3200   19.8576   12.1196 H         1 MH7         0.0485
     42 H          18.6593   17.3230   10.2809 H         1 MH7         0.0521
     43 H          17.6748   16.0516   11.0815 H         1 MH7         0.0521
     44 H          19.5714   15.0681   11.9003 H         1 MH7         0.0285
     45 H          19.9892   16.5897   12.7586 H         1 MH7         0.0285
     46 H          21.1212   17.3877   10.6880 H         1 MH7         0.0263
     47 H          20.7934   15.7892    9.9370 H         1 MH7         0.0263
     48 H          23.1049   15.8872   10.8678 H         1 MH7         0.0230
     49 H          22.1116   14.6715   11.7407 H         1 MH7         0.0230
     50 H          22.4394   16.2700   12.4917 H         1 MH7         0.0230
     51 H          14.8830   15.9914   13.6760 H         1 MH7         0.1869
     52 H          12.7190   16.8916   15.4968 H         1 MH7         0.0562
     53 H          14.3678   15.9377   17.0463 H         1 MH7         0.0289
     54 H          14.5020   14.4589   16.0354 H         1 MH7         0.0289
     55 H          12.0632   15.4389   17.5777 H         1 MH7         0.0291
     56 H          13.0676   13.9909   17.9262 H         1 MH7         0.0291
     57 H          12.3299   12.9002   15.9389 H         1 MH7         0.0593
     58 H          10.0534   12.9173   16.4037 H         1 MH7         0.2098
     59 H          10.6401   15.3514   15.2555 H         1 MH7         0.0291
     60 H          10.8435   13.8477   14.2942 H         1 MH7         0.0291
     61 H          13.1491   14.3893   13.8204 H         1 MH7         0.0289
     62 H          12.1259   15.8078   13.4109 H         1 MH7         0.0289
@<TRIPOS>BOND
     1    1    2 1  
     2    2    3 1  
     3    3    4 1  
     4    4    5 1  
     5    5    6 1  
     6    6    7 ar 
     7    6   27 ar 
     8    7    8 ar 
     9    8    9 ar 
    10    9   10 1  
    11    9   18 ar 
    12   10   11 2  
    13   10   12 am 
    14   12   13 1  
    15   12   14 1  
    16   14   15 1  
    17   15   16 1  
    18   16   17 1  
    19   18   19 1  
    20   18   27 ar 
    21   19   20 1  
    22   20   21 1  
    23   20   26 1  
    24   21   22 1  
    25   22   23 1  
    26   23   24 1  
    27   23   25 1  
    28   25   26 1  
    29    1   28 1  
    30    1   29 1  
    31    1   30 1  
    32    2   31 1  
    33    2   32 1  
    34    3   33 1  
    35    3   34 1  
    36    4   35 1  
    37    4   36 1  
    38    5   37 1  
    39    8   38 1  
    40   13   39 1  
    41   13   40 1  
    42   13   41 1  
    43   14   42 1  
    44   14   43 1  
    45   15   44 1  
    46   15   45 1  
    47   16   46 1  
    48   16   47 1  
    49   17   48 1  
    50   17   49 1  
    51   17   50 1  
    52   19   51 1  
    53   20   52 1  
    54   21   53 1  
    55   21   54 1  
    56   22   55 1  
    57   22   56 1  
    58   23   57 1  
    59   24   58 1  
    60   25   59 1  
    61   25   60 1  
    62   26   61 1  
    63   26   62 1  
@<TRIPOS>SUBSTRUCTURE
     1 MH7         1

