### 
### Created by X-TOOL on Mon Sep 10 21:13:20 2018
### 

@<TRIPOS>MOLECULE
4mha_ligand
   65    67     1     0     0
SMALL
GAST_HUCK


@<TRIPOS>ATOM
      1 C01         4.5530    3.3050   23.6140 C.3       1 4MH        -0.0652
      2 C02         4.6420    2.3130   22.4500 C.3       1 4MH        -0.0540
      3 C03         3.2800    1.9870   21.8650 C.3       1 4MH        -0.0325
      4 C04         3.0840    0.4770   21.5820 C.3       1 4MH         0.0315
      5 N05         3.5970    0.0680   20.3020 N.pl3     1 4MH        -0.2898
      6 C06         3.3510    0.8570   19.0920 C.ar      1 4MH         0.1784
      7 N07         2.2910    0.5560   18.3070 N.ar      1 4MH        -0.2658
      8 C08         2.0500    1.2880   17.1770 C.ar      1 4MH         0.0203
      9 C09         2.8920    2.3550   16.8240 C.ar      1 4MH         0.1041
     10 C10         2.6100    3.1750   15.5480 C.2       1 4MH         0.2028
     11 O11         3.1710    4.2370   15.3690 O.2       1 4MH        -0.3928
     12 N12         1.6650    2.6490   14.5680 N.am      1 4MH        -0.2771
     13 C13         1.3490    3.3550   13.3590 C.3       1 4MH         0.0636
     14 C14         1.7920    2.5220   12.1330 C.ar      1 4MH        -0.0210
     15 C15         3.0990    2.1130   12.0250 C.ar      1 4MH        -0.0566
     16 C16         3.5070    1.3630   10.9210 C.ar      1 4MH        -0.0419
     17 C17         2.5890    1.0260    9.9360 C.ar      1 4MH         0.1009
     18 C18         1.2770    1.4350   10.0440 C.ar      1 4MH        -0.0419
     19 C19         0.8710    2.1880   11.1460 C.ar      1 4MH        -0.0566
     20 S20         3.1100    0.0690    8.5350 S.o2      1 4MH         0.0628
     21 O21         4.5080    0.2460    8.2780 O.2       1 4MH        -0.1514
     22 O22         2.5370    0.5670    7.3230 O.2       1 4MH        -0.1514
     23 N23         2.7410   -1.5260    8.7680 N.am      1 4MH        -0.2617
     24 C24         4.0000    2.6480   17.6740 C.ar      1 4MH         0.1345
     25 N25         4.9110    3.7390   17.3610 N.pl3     1 4MH        -0.2965
     26 C26         4.7740    5.0210   17.9780 C.3       1 4MH         0.0417
     27 C27         6.0810    5.7710   17.7770 C.3       1 4MH        -0.0271
     28 C28         6.1450    7.0570   18.5700 C.3       1 4MH        -0.0247
     29 C29         5.8340    6.8340   20.0430 C.3       1 4MH         0.0554
     30 O30         5.8000    8.0890   20.7080 O.3       1 4MH        -0.3918
     31 C31         4.5000    6.1380   20.2310 C.3       1 4MH        -0.0247
     32 C32         4.4170    4.8410   19.4510 C.3       1 4MH        -0.0271
     33 N33         4.1990    1.8970   18.7750 N.ar      1 4MH        -0.2356
     34 H           5.5625    3.5075   24.0012 H         1 4MH         0.0230
     35 H           3.9325    2.8762   24.4146 H         1 4MH         0.0230
     36 H           4.1002    4.2437   23.2620 H         1 4MH         0.0230
     37 H           5.1029    1.3825   22.8128 H         1 4MH         0.0263
     38 H           5.2707    2.7500   21.6602 H         1 4MH         0.0263
     39 H           3.1643    2.5378   20.9199 H         1 4MH         0.0285
     40 H           2.5067    2.3127   22.5763 H         1 4MH         0.0285
     41 H           2.0077    0.2521   21.6151 H         1 4MH         0.0526
     42 H           3.6025   -0.0955   22.3652 H         1 4MH         0.0526
     43 H           4.1495   -0.7987   20.2344 H         1 4MH         0.1877
     44 H           1.2017    1.0424   16.5485 H         1 4MH         0.0904
     45 H           1.2238    1.7691   14.7444 H         1 4MH         0.1865
     46 H           1.8745    4.3213   13.3527 H         1 4MH         0.0682
     47 H           0.2637    3.5274   13.3101 H         1 4MH         0.0682
     48 H           3.8137    2.3729   12.7975 H         1 4MH         0.0558
     49 H           4.5393    1.0441   10.8329 H         1 4MH         0.0619
     50 H           0.5615    1.1718    9.2734 H         1 4MH         0.0619
     51 H          -0.1598    2.5119   11.2327 H         1 4MH         0.0558
     52 H           2.9708   -2.2001    8.0660 H         1 4MH         0.1634
     53 H           2.2881   -1.8165    9.6109 H         1 4MH         0.1634
     54 H           5.6694    3.5842   16.6815 H         1 4MH         0.1869
     55 H           3.9636    5.5805   17.4880 H         1 4MH         0.0562
     56 H           6.1882    6.0108   16.7088 H         1 4MH         0.0289
     57 H           6.9111    5.1218   18.0922 H         1 4MH         0.0289
     58 H           5.4134    7.7664   18.1560 H         1 4MH         0.0291
     59 H           7.1567    7.4795   18.4806 H         1 4MH         0.0291
     60 H           6.6259    6.2100   20.4828 H         1 4MH         0.0593
     61 H           5.6060    7.9535   21.6280 H         1 4MH         0.2098
     62 H           3.6986    6.8093   19.8887 H         1 4MH         0.0291
     63 H           4.3625    5.9181   21.3000 H         1 4MH         0.0291
     64 H           5.1139    4.1161   19.8969 H         1 4MH         0.0289
     65 H           3.3901    4.4529   19.5202 H         1 4MH         0.0289
@<TRIPOS>BOND
     1    1    2 1  
     2    2    3 1  
     3    3    4 1  
     4    4    5 1  
     5    5    6 1  
     6    6    7 ar 
     7    6   33 ar 
     8    7    8 ar 
     9    8    9 ar 
    10    9   10 1  
    11    9   24 ar 
    12   10   11 2  
    13   10   12 am 
    14   12   13 1  
    15   13   14 1  
    16   14   15 ar 
    17   14   19 ar 
    18   15   16 ar 
    19   16   17 ar 
    20   17   18 ar 
    21   17   20 1  
    22   18   19 ar 
    23   20   21 2  
    24   20   22 2  
    25   20   23 am 
    26   24   25 1  
    27   24   33 ar 
    28   25   26 1  
    29   26   27 1  
    30   26   32 1  
    31   27   28 1  
    32   28   29 1  
    33   29   30 1  
    34   29   31 1  
    35   31   32 1  
    36    1   34 1  
    37    1   35 1  
    38    1   36 1  
    39    2   37 1  
    40    2   38 1  
    41    3   39 1  
    42    3   40 1  
    43    4   41 1  
    44    4   42 1  
    45    5   43 1  
    46    8   44 1  
    47   12   45 1  
    48   13   46 1  
    49   13   47 1  
    50   15   48 1  
    51   16   49 1  
    52   18   50 1  
    53   19   51 1  
    54   23   52 1  
    55   23   53 1  
    56   25   54 1  
    57   26   55 1  
    58   27   56 1  
    59   27   57 1  
    60   28   58 1  
    61   28   59 1  
    62   29   60 1  
    63   30   61 1  
    64   31   62 1  
    65   31   63 1  
    66   32   64 1  
    67   32   65 1  
@<TRIPOS>SUBSTRUCTURE
     1 4MH         1

