### 
### Created by X-TOOL on Mon Sep 10 21:13:17 2018
### 

@<TRIPOS>MOLECULE
4mho_ligand
   51    53     1     0     0
SMALL
GAST_HUCK


@<TRIPOS>ATOM
      1 C17        37.6580   27.8150   37.2030 C.ar      1 26M        -0.0567
      2 C16        38.5720   28.2890   38.1470 C.ar      1 26M        -0.0629
      3 C15        39.9110   27.8920   38.0960 C.ar      1 26M        -0.0632
      4 C14        40.3380   27.0140   37.0970 C.ar      1 26M        -0.0629
      5 C13        39.4170   26.5500   36.1340 C.ar      1 26M        -0.0567
      6 C12        38.0720   26.9480   36.1870 C.ar      1 26M        -0.0247
      7 C9         37.1520   26.4920   35.2160 C.ar      1 26M        -0.0279
      8 C8         37.5530   26.4040   33.8700 C.ar      1 26M        -0.0616
      9 C7         36.6530   25.9610   32.8870 C.ar      1 26M        -0.0310
     10 C10        35.8500   26.1260   35.5700 C.ar      1 26M        -0.0616
     11 C11        34.9390   25.6800   34.5910 C.ar      1 26M        -0.0310
     12 C6         35.3440   25.5780   33.2480 C.ar      1 26M         0.0961
     13 O5         34.4250   25.1510   32.3150 O.3       1 26M        -0.2964
     14 C4         34.9560   24.7520   31.0460 C.3       1 26M         0.1595
     15 C2         33.8420   24.1100   30.1940 C.2       1 26M         0.2090
     16 O3         32.6700   24.1050   30.5690 O.2       1 26M        -0.3940
     17 N1         34.2550   23.6170   29.0190 N.am      1 26M        -0.2562
     18 C1'        33.3310   22.9860   28.0640 C.3       1 26M         0.1720
     19 O5'        33.3140   21.5590   28.3250 O.3       1 26M        -0.3436
     20 C5'        32.2380   20.9540   27.5830 C.3       1 26M         0.1127
     21 C6'        32.1640   19.4850   28.0100 C.3       1 26M         0.0730
     22 O6'        33.2840   18.7800   27.4700 O.3       1 26M        -0.3924
     23 C4'        32.4560   21.1120   26.0340 C.3       1 26M         0.1119
     24 O4'        31.2930   20.6310   25.3190 O.3       1 26M        -0.3865
     25 C3'        32.7180   22.6060   25.6560 C.3       1 26M         0.1138
     26 O3'        33.2030   22.7000   24.3280 O.3       1 26M        -0.3864
     27 C2'        33.7750   23.2420   26.6090 C.3       1 26M         0.1308
     28 O2'        33.9200   24.6510   26.3640 O.3       1 26M        -0.3844
     29 H          36.6198   28.1216   37.2585 H         1 26M         0.0609
     30 H          38.2408   28.9688   38.9237 H         1 26M         0.0614
     31 H          40.6165   28.2645   38.8299 H         1 26M         0.0605
     32 H          41.3721   26.6906   37.0617 H         1 26M         0.0614
     33 H          39.7503   25.8818   35.3482 H         1 26M         0.0609
     34 H          38.5632   26.6800   33.5900 H         1 26M         0.0601
     35 H          36.9644   25.9133   31.8498 H         1 26M         0.0548
     36 H          35.5382   26.1857   36.6065 H         1 26M         0.0601
     37 H          33.9263   25.4157   34.8733 H         1 26M         0.0548
     38 H          35.7641   24.0220   31.2011 H         1 26M         0.0860
     39 H          35.3540   25.6339   30.5227 H         1 26M         0.0860
     40 H          35.2247   23.6801   28.7829 H         1 26M         0.1878
     41 H          32.3218   23.3991   28.2082 H         1 26M         0.0896
     42 H          31.2931   21.4508   27.8483 H         1 26M         0.0647
     43 H          31.2321   19.0389   27.6325 H         1 26M         0.0584
     44 H          32.1833   19.4199   29.1079 H         1 26M         0.0584
     45 H          34.0878   19.1669   27.7967 H         1 26M         0.2095
     46 H          33.3303   20.5134   25.7385 H         1 26M         0.0647
     47 H          30.5310   21.1343   25.5810 H         1 26M         0.2100
     48 H          31.7736   23.1639   25.7389 H         1 26M         0.0647
     49 H          33.3575   23.6122   24.1123 H         1 26M         0.2100
     50 H          34.7473   22.7566   26.4388 H         1 26M         0.0668
     51 H          33.0861   25.0834   26.5058 H         1 26M         0.2101
@<TRIPOS>BOND
     1    1    2 ar 
     2    1    6 ar 
     3    2    3 ar 
     4    3    4 ar 
     5    4    5 ar 
     6    5    6 ar 
     7    6    7 1  
     8    7    8 ar 
     9    7   10 ar 
    10    8    9 ar 
    11    9   12 ar 
    12   10   11 ar 
    13   11   12 ar 
    14   12   13 1  
    15   13   14 1  
    16   14   15 1  
    17   15   16 2  
    18   15   17 am 
    19   17   18 1  
    20   18   19 1  
    21   18   27 1  
    22   19   20 1  
    23   20   21 1  
    24   20   23 1  
    25   21   22 1  
    26   23   24 1  
    27   23   25 1  
    28   25   26 1  
    29   25   27 1  
    30   27   28 1  
    31    1   29 1  
    32    2   30 1  
    33    3   31 1  
    34    4   32 1  
    35    5   33 1  
    36    8   34 1  
    37    9   35 1  
    38   10   36 1  
    39   11   37 1  
    40   14   38 1  
    41   14   39 1  
    42   17   40 1  
    43   18   41 1  
    44   20   42 1  
    45   21   43 1  
    46   21   44 1  
    47   22   45 1  
    48   23   46 1  
    49   24   47 1  
    50   25   48 1  
    51   26   49 1  
    52   27   50 1  
    53   28   51 1  
@<TRIPOS>SUBSTRUCTURE
     1 26M         1

