### 
### Created by X-TOOL on Mon Sep 10 21:13:17 2018
### 

@<TRIPOS>MOLECULE
4mhs_ligand
   53    55     1     0     0
SMALL
GAST_HUCK


@<TRIPOS>ATOM
      1 C17        38.1490   28.0520   37.2000 C.ar      1 26Q        -0.0557
      2 C16        39.0380   28.5470   38.1600 C.ar      1 26Q        -0.0622
      3 C15        40.3370   28.0360   38.2380 C.ar      1 26Q        -0.0627
      4 C14        40.7530   27.0220   37.3690 C.ar      1 26Q        -0.0622
      5 C13        39.8630   26.5460   36.4010 C.ar      1 26Q        -0.0557
      6 C12        38.5510   27.0460   36.3050 C.ar      1 26Q        -0.0221
      7 C9         37.6530   26.5600   35.3230 C.ar      1 26Q        -0.0242
      8 C8         38.0810   26.3290   33.9980 C.ar      1 26Q        -0.0600
      9 C7         37.2060   25.8470   33.0170 C.ar      1 26Q        -0.0588
     10 C10        36.3120   26.3020   35.6460 C.ar      1 26Q        -0.0600
     11 C11        35.4300   25.8280   34.6710 C.ar      1 26Q        -0.0588
     12 C6         35.8580   25.5990   33.3510 C.ar      1 26Q        -0.0398
     13 C5         34.8880   25.1320   32.4500 C.3       1 26Q        -0.0017
     14 C4         35.2170   24.5630   31.0660 C.3       1 26Q         0.0471
     15 C2         34.0760   24.0340   30.1710 C.2       1 26Q         0.1800
     16 O3         32.8880   24.1030   30.5250 O.2       1 26Q        -0.3968
     17 N1         34.4870   23.5530   28.9860 N.am      1 26Q        -0.2583
     18 C1'        33.5370   22.9850   28.0190 C.3       1 26Q         0.1719
     19 O5'        33.4570   21.5530   28.3160 O.3       1 26Q        -0.3436
     20 C5'        32.3840   20.9560   27.5600 C.3       1 26Q         0.1127
     21 C6'        32.2320   19.5040   27.9530 C.3       1 26Q         0.0730
     22 O6'        33.2910   18.8020   27.3070 O.3       1 26Q        -0.3924
     23 C4'        32.6030   21.1240   26.0040 C.3       1 26Q         0.1119
     24 O4'        31.4330   20.6620   25.3100 O.3       1 26Q        -0.3865
     25 C3'        32.8960   22.5870   25.6160 C.3       1 26Q         0.1138
     26 O3'        33.2860   22.6240   24.2300 O.3       1 26Q        -0.3864
     27 C2'        34.0090   23.1690   26.5630 C.3       1 26Q         0.1308
     28 O2'        34.2710   24.5520   26.2850 O.3       1 26Q        -0.3844
     29 H          37.1413   28.4479   37.1460 H         1 26Q         0.0615
     30 H          38.7199   29.3263   38.8430 H         1 26Q         0.0615
     31 H          41.0264   28.4283   38.9769 H         1 26Q         0.0610
     32 H          41.7529   26.6102   37.4449 H         1 26Q         0.0615
     33 H          40.1902   25.7767   35.7110 H         1 26Q         0.0615
     34 H          39.1128   26.5298   33.7333 H         1 26Q         0.0609
     35 H          37.5614   25.6659   32.0091 H         1 26Q         0.0560
     36 H          35.9585   26.4712   36.6567 H         1 26Q         0.0609
     37 H          34.3973   25.6333   34.9370 H         1 26Q         0.0560
     38 H          34.2113   25.9807   32.2718 H         1 26Q         0.0454
     39 H          34.3455   24.3354   32.9801 H         1 26Q         0.0454
     40 H          35.9154   23.7275   31.2213 H         1 26Q         0.0525
     41 H          35.7209   25.3623   30.5029 H         1 26Q         0.0525
     42 H          35.4600   23.5820   28.7569 H         1 26Q         0.1878
     43 H          32.5519   23.4585   28.1431 H         1 26Q         0.0896
     44 H          31.4519   21.4779   27.8223 H         1 26Q         0.0647
     45 H          31.2584   19.1182   27.6165 H         1 26Q         0.0584
     46 H          32.3125   19.3943   29.0445 H         1 26Q         0.0584
     47 H          34.1251   19.1497   27.6002 H         1 26Q         0.2095
     48 H          33.4629   20.5070   25.7041 H         1 26Q         0.0647
     49 H          30.6810   21.1738   25.5839 H         1 26Q         0.2100
     50 H          31.9819   23.1859   25.7417 H         1 26Q         0.0647
     51 H          33.4697   23.5212   23.9777 H         1 26Q         0.2100
     52 H          34.9394   22.6022   26.4111 H         1 26Q         0.0668
     53 H          34.5644   24.6431   25.3861 H         1 26Q         0.2101
@<TRIPOS>BOND
     1    1    2 ar 
     2    1    6 ar 
     3    2    3 ar 
     4    3    4 ar 
     5    4    5 ar 
     6    5    6 ar 
     7    6    7 1  
     8    7    8 ar 
     9    7   10 ar 
    10    8    9 ar 
    11    9   12 ar 
    12   10   11 ar 
    13   11   12 ar 
    14   12   13 1  
    15   13   14 1  
    16   14   15 1  
    17   15   16 2  
    18   15   17 am 
    19   17   18 1  
    20   18   19 1  
    21   18   27 1  
    22   19   20 1  
    23   20   21 1  
    24   20   23 1  
    25   21   22 1  
    26   23   24 1  
    27   23   25 1  
    28   25   26 1  
    29   25   27 1  
    30   27   28 1  
    31    1   29 1  
    32    2   30 1  
    33    3   31 1  
    34    4   32 1  
    35    5   33 1  
    36    8   34 1  
    37    9   35 1  
    38   10   36 1  
    39   11   37 1  
    40   13   38 1  
    41   13   39 1  
    42   14   40 1  
    43   14   41 1  
    44   17   42 1  
    45   18   43 1  
    46   20   44 1  
    47   21   45 1  
    48   21   46 1  
    49   22   47 1  
    50   23   48 1  
    51   24   49 1  
    52   25   50 1  
    53   26   51 1  
    54   27   52 1  
    55   28   53 1  
@<TRIPOS>SUBSTRUCTURE
     1 26Q         1

