### 
### Created by X-TOOL on Mon Sep 10 21:13:16 2018
### 

@<TRIPOS>MOLECULE
4mhy_ligand
   42    43     1     0     0
SMALL
GAST_HUCK


@<TRIPOS>ATOM
      1 CAA       -22.3590   17.8230   -0.5950 C.3       1 PBD         0.0546
      2 CAB       -25.3260   17.9570   -5.1250 C.3       1 PBD         0.0567
      3 SAC       -21.7510   23.9310   -6.9020 S.3       1 PBD        -0.0461
      4 CAD       -15.2720   17.9050   -6.6260 C.2       1 PBD        -0.0236
      5 CAE       -22.0810   21.1700   -3.0850 C.ar      1 PBD        -0.0566
      6 CAF       -22.1640   20.0800   -2.2160 C.ar      1 PBD        -0.0498
      7 CAG       -16.1350   18.7000   -7.2610 C.2       1 PBD         0.0363
      8 CAH       -15.4560   19.7320   -5.4880 C.2       1 PBD         0.0974
      9 CAI       -23.7600   20.1760   -4.5240 C.ar      1 PBD        -0.0166
     10 CAJ       -18.4770   20.7570   -6.2550 C.3       1 PBD        -0.0211
     11 CAK       -19.3620   21.9930   -6.4270 C.3       1 PBD        -0.0205
     12 CAL       -17.0870   20.9810   -6.8630 C.3       1 PBD         0.0586
     13 NAM       -14.8570   18.5360   -5.5220 N.2       1 PBD        -0.3302
     14 NAN       -20.6230   21.7760   -5.6880 N.2       1 PBD        -0.3604
     15 NAO       -22.8210   22.2580   -5.0870 N.pl3     1 PBD        -0.2411
     16 OAP       -23.2180   17.9280   -1.7340 O.3       1 PBD        -0.3319
     17 OAQ       -24.6780   18.0140   -3.8480 O.3       1 PBD        -0.3274
     18 CAR       -21.7210   22.5460   -5.8220 C.2       1 PBD         0.1706
     19 CAS       -22.8680   21.2150   -4.2440 C.ar      1 PBD         0.0511
     20 CAT       -23.0510   19.0380   -2.5100 C.ar      1 PBD         0.1083
     21 CAU       -23.8430   19.0830   -3.6570 C.ar      1 PBD         0.1113
     22 NAV       -16.2410   19.8290   -6.5560 N.pl3     1 PBD        -0.2521
     23 H         -22.5844   16.8944   -0.0502 H         1 PBD         0.0569
     24 H         -22.5218   18.6857    0.0678 H         1 PBD         0.0569
     25 H         -21.3103   17.8081   -0.9267 H         1 PBD         0.0569
     26 H         -25.9684   17.0652   -5.1707 H         1 PBD         0.0573
     27 H         -24.5669   17.9031   -5.9193 H         1 PBD         0.0573
     28 H         -25.9401   18.8588   -5.2652 H         1 PBD         0.0573
     29 H         -22.6571   24.3704   -6.8579 H         1 PBD         0.1373
     30 H         -14.9594   16.9136   -6.9505 H         1 PBD         0.0444
     31 H         -21.4037   21.9864   -2.8618 H         1 PBD         0.0422
     32 H         -21.5488   20.0414   -1.3243 H         1 PBD         0.0484
     33 H         -16.6587   18.4696   -8.1876 H         1 PBD         0.0860
     34 H         -15.3235   20.4925   -4.7199 H         1 PBD         0.1215
     35 H         -24.3843   20.2177   -5.4092 H         1 PBD         0.0434
     36 H         -18.9540   19.9017   -6.7558 H         1 PBD         0.0295
     37 H         -18.3685   20.5399   -5.1821 H         1 PBD         0.0295
     38 H         -19.5797   22.1474   -7.4941 H         1 PBD         0.0305
     39 H         -18.8452   22.8776   -6.0264 H         1 PBD         0.0305
     40 H         -16.6400   21.8908   -6.4358 H         1 PBD         0.0625
     41 H         -17.1754   21.0931   -7.9537 H         1 PBD         0.0625
     42 H         -23.6512   22.8608   -5.1781 H         1 PBD         0.2220
@<TRIPOS>BOND
     1   16    1 1  
     2   17    2 1  
     3   18    3 1  
     4    7    4 2  
     5   13    4 1  
     6    5    6 ar 
     7   19    5 ar 
     8    6   20 ar 
     9   22    7 1  
    10    8   13 2  
    11   22    8 1  
    12    9   19 ar 
    13   21    9 ar 
    14   11   10 1  
    15   10   12 1  
    16   14   11 1  
    17   12   22 1  
    18   18   14 2  
    19   15   18 1  
    20   19   15 1  
    21   20   16 1  
    22   17   21 1  
    23   20   21 ar 
    24    1   23 1  
    25    1   24 1  
    26    1   25 1  
    27    2   26 1  
    28    2   27 1  
    29    2   28 1  
    30    3   29 1  
    31    4   30 1  
    32    5   31 1  
    33    6   32 1  
    34    7   33 1  
    35    8   34 1  
    36    9   35 1  
    37   10   36 1  
    38   10   37 1  
    39   11   38 1  
    40   11   39 1  
    41   12   40 1  
    42   12   41 1  
    43   15   42 1  
@<TRIPOS>SUBSTRUCTURE
     1 PBD         1

