### 
### Created by X-TOOL on Mon Sep 10 21:13:17 2018
### 

@<TRIPOS>MOLECULE
4mhz_ligand
   42    43     1     0     0
SMALL
GAST_HUCK


@<TRIPOS>ATOM
      1 CAA       -22.7200   17.9470   -0.2080 C.3       1 PBD         0.0554
      2 CAB       -25.5050   17.8640   -4.9830 C.3       1 PBD         0.0567
      3 SAC       -21.9850   23.4840   -7.0300 S.3       1 PBD        -0.0457
      4 CAD       -15.5870   17.8920   -6.7720 C.2       1 PBD        -0.0236
      5 CAE       -22.4730   21.2600   -2.8490 C.ar      1 PBD        -0.0779
      6 CAF       -22.6080   20.2190   -1.9140 C.ar      1 PBD        -0.0484
      7 CAG       -16.0970   18.9100   -7.4620 C.2       1 PBD         0.0363
      8 CAH       -16.9400   18.9680   -5.5010 C.2       1 PBD         0.0974
      9 CAI       -23.9220   20.0300   -4.3820 C.ar      1 PBD        -0.0382
     10 CAJ       -19.1160   20.7070   -6.5780 C.3       1 PBD        -0.0029
     11 CAK       -19.4570   21.9690   -5.8180 C.3       1 PBD         0.0392
     12 CAL       -17.6860   20.7750   -7.0430 C.3       1 PBD         0.0604
     13 NAM       -16.1140   17.9490   -5.5580 N.2       1 PBD        -0.3302
     14 NAN       -20.7910   21.7660   -5.2420 N.pl3     1 PBD        -0.2778
     15 NAO       -23.0870   22.0780   -5.0540 N.2       1 PBD        -0.3177
     16 OAP       -23.5820   18.0190   -1.3580 O.3       1 PBD        -0.3295
     17 OAQ       -24.8140   17.8860   -3.7130 O.3       1 PBD        -0.3268
     18 CAR       -21.9350   22.3360   -5.7060 C.2       1 PBD         0.1680
     19 CAS       -23.1410   21.1560   -4.0820 C.ar      1 PBD        -0.0271
     20 CAT       -23.3990   19.0870   -2.2160 C.ar      1 PBD         0.1118
     21 CAU       -24.0570   19.0000   -3.4580 C.ar      1 PBD         0.1122
     22 NAV       -16.9340   19.5760   -6.6790 N.pl3     1 PBD        -0.2521
     23 H         -22.9725   17.0550    0.3842 H         1 PBD         0.0570
     24 H         -22.8560   18.8473    0.4092 H         1 PBD         0.0570
     25 H         -21.6727   17.8835   -0.5382 H         1 PBD         0.0570
     26 H         -26.0753   16.9278   -5.0739 H         1 PBD         0.0573
     27 H         -24.7718   17.9276   -5.8005 H         1 PBD         0.0573
     28 H         -26.1936   18.7198   -5.0406 H         1 PBD         0.0573
     29 H         -22.9389   23.7661   -7.1927 H         1 PBD         0.1382
     30 H         -14.8735   17.1541   -7.1358 H         1 PBD         0.0444
     31 H         -21.8643   22.1281   -2.6233 H         1 PBD         0.0431
     32 H         -22.1032   20.2846   -0.9570 H         1 PBD         0.0493
     33 H         -15.8651   19.1548   -8.4975 H         1 PBD         0.0860
     34 H         -17.5293   19.2633   -4.6341 H         1 PBD         0.1215
     35 H         -24.4236   19.9625   -5.3406 H         1 PBD         0.0438
     36 H         -19.7811   20.6120   -7.4490 H         1 PBD         0.0314
     37 H         -19.2469   19.8354   -5.9198 H         1 PBD         0.0314
     38 H         -19.4658   22.8319   -6.5002 H         1 PBD         0.0538
     39 H         -18.7210   22.1410   -5.0188 H         1 PBD         0.0538
     40 H         -17.2040   21.6499   -6.5823 H         1 PBD         0.0625
     41 H         -17.6733   20.8834   -8.1376 H         1 PBD         0.0625
     42 H         -20.8667   21.1446   -4.4241 H         1 PBD         0.1959
@<TRIPOS>BOND
     1   16    1 1  
     2   17    2 1  
     3   18    3 1  
     4    7    4 2  
     5   13    4 1  
     6    5    6 ar 
     7   19    5 ar 
     8    6   20 ar 
     9   22    7 1  
    10    8   13 2  
    11   22    8 1  
    12    9   19 ar 
    13   21    9 ar 
    14   11   10 1  
    15   10   12 1  
    16   14   11 1  
    17   12   22 1  
    18   18   14 1  
    19   15   18 2  
    20   19   15 1  
    21   20   16 1  
    22   17   21 1  
    23   20   21 ar 
    24    1   23 1  
    25    1   24 1  
    26    1   25 1  
    27    2   26 1  
    28    2   27 1  
    29    2   28 1  
    30    3   29 1  
    31    4   30 1  
    32    5   31 1  
    33    6   32 1  
    34    7   33 1  
    35    8   34 1  
    36    9   35 1  
    37   10   36 1  
    38   10   37 1  
    39   11   38 1  
    40   11   39 1  
    41   12   40 1  
    42   12   41 1  
    43   14   42 1  
@<TRIPOS>SUBSTRUCTURE
     1 PBD         1

