### 
### Created by X-TOOL on Mon Sep 10 21:13:17 2018
### 

@<TRIPOS>MOLECULE
4mi3_ligand
   55    56     1     0     0
SMALL
GAST_HUCK


@<TRIPOS>ATOM
      1 C14        40.7160   27.1100   34.9900 C.3       1 26R        -0.0537
      2 C13        39.9490   28.1510   34.1610 C.3       1 26R        -0.0162
      3 C15        39.4910   29.2820   35.0850 C.3       1 26R        -0.0537
      4 C10        38.8340   27.5850   33.4280 C.ar      1 26R        -0.0472
      5 C9         38.7170   27.8910   32.0590 C.ar      1 26R        -0.0666
      6 C8         37.6830   27.3810   31.2730 C.ar      1 26R        -0.0667
      7 C11        37.8630   26.7430   34.0060 C.ar      1 26R        -0.0666
      8 C12        36.8090   26.2340   33.2290 C.ar      1 26R        -0.0667
      9 C7         36.7260   26.5470   31.8510 C.ar      1 26R        -0.0472
     10 C6         35.6780   26.0620   31.0320 C.3       1 26R        -0.0028
     11 C4         35.9600   24.6980   30.3560 C.3       1 26R         0.0545
     12 C5         36.6460   23.7510   31.3130 C.3       1 26R        -0.0436
     13 C2         34.6410   24.0690   29.8210 C.2       1 26R         0.1826
     14 O3         33.5510   24.1720   30.3810 O.2       1 26R        -0.3966
     15 N1         34.7920   23.4460   28.6610 N.am      1 26R        -0.2581
     16 C1'        33.6690   22.8650   27.9410 C.3       1 26R         0.1719
     17 O5'        33.5760   21.4590   28.2000 O.3       1 26R        -0.3436
     18 C5'        32.3910   20.9380   27.5810 C.3       1 26R         0.1127
     19 C6'        32.2450   19.4920   28.0210 C.3       1 26R         0.0730
     20 O6'        33.2840   18.7650   27.3500 O.3       1 26R        -0.3924
     21 C4'        32.4710   21.0910   26.0200 C.3       1 26R         0.1119
     22 O4'        31.2610   20.6190   25.3920 O.3       1 26R        -0.3865
     23 C3'        32.7160   22.5500   25.5990 C.3       1 26R         0.1138
     24 O3'        33.0170   22.6200   24.1890 O.3       1 26R        -0.3864
     25 C2'        33.9140   23.1180   26.4230 C.3       1 26R         0.1308
     26 O2'        34.1010   24.5310   26.1750 O.3       1 26R        -0.3844
     27 H          41.5455   27.6017   35.5193 H         1 26R         0.0253
     28 H          41.1164   26.3326   34.3227 H         1 26R         0.0253
     29 H          40.0354   26.6502   35.7217 H         1 26R         0.0253
     30 H          40.6464   28.5729   33.4224 H         1 26R         0.0443
     31 H          38.9402   30.0332   34.4999 H         1 26R         0.0253
     32 H          40.3689   29.7524   35.5518 H         1 26R         0.0253
     33 H          38.8346   28.8733   35.8674 H         1 26R         0.0253
     34 H          39.4526   28.5427   31.6015 H         1 26R         0.0540
     35 H          37.6239   27.6314   30.2200 H         1 26R         0.0540
     36 H          37.9298   26.4864   35.0571 H         1 26R         0.0540
     37 H          36.0576   25.6001   33.6858 H         1 26R         0.0540
     38 H          35.4906   26.8034   30.2413 H         1 26R         0.0440
     39 H          34.7780   25.9553   31.6554 H         1 26R         0.0440
     40 H          36.6316   24.8703   29.5020 H         1 26R         0.0556
     41 H          36.8341   22.7920   30.8081 H         1 26R         0.0258
     42 H          36.0016   23.5841   32.1887 H         1 26R         0.0258
     43 H          37.6017   24.1874   31.6388 H         1 26R         0.0258
     44 H          35.7084   23.3728   28.2674 H         1 26R         0.1878
     45 H          32.7341   23.3524   28.2545 H         1 26R         0.0896
     46 H          31.5183   21.5055   27.9364 H         1 26R         0.0647
     47 H          31.2580   19.1025   27.7309 H         1 26R         0.0584
     48 H          32.3653   19.4107   29.1114 H         1 26R         0.0584
     49 H          34.1294   19.1168   27.6032 H         1 26R         0.2095
     50 H          33.3128   20.4804   25.6615 H         1 26R         0.0647
     51 H          30.5222   21.1241   25.7109 H         1 26R         0.2100
     52 H          31.8144   23.1452   25.8057 H         1 26R         0.0647
     53 H          33.1659   23.5253   23.9427 H         1 26R         0.2100
     54 H          34.8291   22.5885   26.1195 H         1 26R         0.0668
     55 H          33.3137   25.0017   26.4223 H         1 26R         0.2101
@<TRIPOS>BOND
     1    1    2 1  
     2    2    3 1  
     3    2    4 1  
     4    4    5 ar 
     5    4    7 ar 
     6    5    6 ar 
     7    6    9 ar 
     8    7    8 ar 
     9    8    9 ar 
    10    9   10 1  
    11   10   11 1  
    12   11   12 1  
    13   11   13 1  
    14   13   14 2  
    15   13   15 am 
    16   15   16 1  
    17   16   17 1  
    18   16   25 1  
    19   17   18 1  
    20   18   19 1  
    21   18   21 1  
    22   19   20 1  
    23   21   22 1  
    24   21   23 1  
    25   23   24 1  
    26   23   25 1  
    27   25   26 1  
    28    1   27 1  
    29    1   28 1  
    30    1   29 1  
    31    2   30 1  
    32    3   31 1  
    33    3   32 1  
    34    3   33 1  
    35    5   34 1  
    36    6   35 1  
    37    7   36 1  
    38    8   37 1  
    39   10   38 1  
    40   10   39 1  
    41   11   40 1  
    42   12   41 1  
    43   12   42 1  
    44   12   43 1  
    45   15   44 1  
    46   16   45 1  
    47   18   46 1  
    48   19   47 1  
    49   19   48 1  
    50   20   49 1  
    51   21   50 1  
    52   22   51 1  
    53   23   52 1  
    54   24   53 1  
    55   25   54 1  
    56   26   55 1  
@<TRIPOS>SUBSTRUCTURE
     1 26R         1

