### 
### Created by X-TOOL on Mon Sep 10 21:13:17 2018
### 

@<TRIPOS>MOLECULE
4mi6_ligand
   56    58     1     0     0
SMALL
GAST_HUCK


@<TRIPOS>ATOM
      1 C12        37.1360   26.3190   33.9310 C.ar      1 26V        -0.0653
      2 C11        37.4140   27.0580   35.1110 C.ar      1 26V        -0.0474
      3 C16        36.4290   27.0990   36.1010 C.3       1 26V        -0.0230
      4 C15        36.6410   28.2250   37.1380 C.3       1 26V        -0.0428
      5 C14        38.0910   28.3100   37.5930 C.3       1 26V        -0.0435
      6 C13        39.0440   28.4650   36.4080 C.3       1 26V        -0.0246
      7 C10        38.6610   27.6990   35.2790 C.ar      1 26V        -0.0477
      8 C9         39.5990   27.6050   34.2650 C.ar      1 26V        -0.0733
      9 C8         39.3180   26.8820   33.1080 C.ar      1 26V        -0.0738
     10 C7         38.1100   26.2000   32.9250 C.ar      1 26V        -0.0563
     11 C6         37.9400   25.5730   31.6760 C.3       1 26V        -0.0218
     12 C5         37.0490   24.3490   31.6030 C.3       1 26V        -0.0273
     13 C4         36.8540   24.1000   30.0660 C.3       1 26V         0.0390
     14 C2         35.4060   23.8310   29.5820 C.2       1 26V         0.1781
     15 O3         34.4020   24.1780   30.2030 O.2       1 26V        -0.3970
     16 N1         35.3430   23.2230   28.4000 N.am      1 26V        -0.2584
     17 C1'        34.0690   22.8610   27.7810 C.3       1 26V         0.1719
     18 O5'        33.8150   21.4550   28.0440 O.3       1 26V        -0.3436
     19 C5'        32.5890   20.9920   27.4480 C.3       1 26V         0.1127
     20 C6'        32.3380   19.5490   27.8490 C.3       1 26V         0.0730
     21 O6'        33.3850   18.7530   27.2650 O.3       1 26V        -0.3924
     22 C4'        32.6730   21.1660   25.9100 C.3       1 26V         0.1119
     23 O4'        31.4380   20.7280   25.2900 O.3       1 26V        -0.3865
     24 C3'        32.9380   22.6210   25.5410 C.3       1 26V         0.1138
     25 O3'        33.1430   22.7120   24.1290 O.3       1 26V        -0.3864
     26 C2'        34.1950   23.1390   26.2800 C.3       1 26V         0.1308
     27 O2'        34.3620   24.5680   26.0800 O.3       1 26V        -0.3844
     28 H          36.1692   25.8450   33.8057 H         1 26V         0.0477
     29 H          36.4274   26.1347   36.6302 H         1 26V         0.0410
     30 H          35.4540   27.2525   35.6154 H         1 26V         0.0410
     31 H          36.0045   28.0274   38.0131 H         1 26V         0.0287
     32 H          36.3534   29.1851   36.6847 H         1 26V         0.0287
     33 H          38.3481   27.3909   38.1400 H         1 26V         0.0286
     34 H          38.2059   29.1776   38.2594 H         1 26V         0.0286
     35 H          40.0482   28.1451   36.7229 H         1 26V         0.0398
     36 H          39.0712   29.5257   36.1178 H         1 26V         0.0398
     37 H          40.5587   28.0974   34.3722 H         1 26V         0.0521
     38 H          40.0623   26.8464   32.3207 H         1 26V         0.0482
     39 H          38.9376   25.2713   31.3243 H         1 26V         0.0414
     40 H          37.5204   26.3229   30.9893 H         1 26V         0.0414
     41 H          36.0826   24.5412   32.0919 H         1 26V         0.0310
     42 H          37.5352   23.4846   32.0788 H         1 26V         0.0310
     43 H          37.4651   23.2282   29.7895 H         1 26V         0.0504
     44 H          37.2230   24.9898   29.5348 H         1 26V         0.0504
     45 H          36.1934   23.0070   27.9203 H         1 26V         0.1877
     46 H          33.2533   23.4665   28.2028 H         1 26V         0.0896
     47 H          31.7561   21.6052   27.8225 H         1 26V         0.0647
     48 H          31.3591   19.2184   27.4715 H         1 26V         0.0584
     49 H          32.3597   19.4538   28.9446 H         1 26V         0.0584
     50 H          34.2262   19.0487   27.5926 H         1 26V         0.2095
     51 H          33.5008   20.5485   25.5312 H         1 26V         0.0647
     52 H          30.7159   21.2473   25.6238 H         1 26V         0.2100
     53 H          32.0705   23.2340   25.8268 H         1 26V         0.0647
     54 H          33.3088   23.6169   23.8919 H         1 26V         0.2100
     55 H          35.0791   22.6157   25.8870 H         1 26V         0.0668
     56 H          33.5998   25.0248   26.4158 H         1 26V         0.2101
@<TRIPOS>BOND
     1    1    2 ar 
     2    1   10 ar 
     3    2    3 1  
     4    2    7 ar 
     5    3    4 1  
     6    4    5 1  
     7    5    6 1  
     8    6    7 1  
     9    7    8 ar 
    10    8    9 ar 
    11    9   10 ar 
    12   10   11 1  
    13   11   12 1  
    14   12   13 1  
    15   13   14 1  
    16   14   15 2  
    17   14   16 am 
    18   16   17 1  
    19   17   18 1  
    20   17   26 1  
    21   18   19 1  
    22   19   20 1  
    23   19   22 1  
    24   20   21 1  
    25   22   23 1  
    26   22   24 1  
    27   24   25 1  
    28   24   26 1  
    29   26   27 1  
    30    1   28 1  
    31    3   29 1  
    32    3   30 1  
    33    4   31 1  
    34    4   32 1  
    35    5   33 1  
    36    5   34 1  
    37    6   35 1  
    38    6   36 1  
    39    8   37 1  
    40    9   38 1  
    41   11   39 1  
    42   11   40 1  
    43   12   41 1  
    44   12   42 1  
    45   13   43 1  
    46   13   44 1  
    47   16   45 1  
    48   17   46 1  
    49   19   47 1  
    50   20   48 1  
    51   20   49 1  
    52   21   50 1  
    53   22   51 1  
    54   23   52 1  
    55   24   53 1  
    56   25   54 1  
    57   26   55 1  
    58   27   56 1  
@<TRIPOS>SUBSTRUCTURE
     1 26V         1

