### 
### Created by X-TOOL on Mon Sep 10 21:13:17 2018
### 

@<TRIPOS>MOLECULE
4mi9_ligand
   52    53     1     0     0
SMALL
GAST_HUCK


@<TRIPOS>ATOM
      1 C14        40.6330   27.3750   34.9600 C.3       1 26W        -0.0563
      2 C13        39.2230   27.9340   34.7000 C.3       1 26W        -0.0251
      3 C10        38.4250   27.0200   33.9530 C.ar      1 26W        -0.0500
      4 C11        37.2250   26.5120   34.4530 C.ar      1 26W        -0.0668
      5 C12        36.4570   25.6280   33.6840 C.ar      1 26W        -0.0664
      6 C9         38.8360   26.6310   32.6770 C.ar      1 26W        -0.0668
      7 C8         38.0820   25.7390   31.9120 C.ar      1 26W        -0.0664
      8 C7         36.8900   25.2270   32.4170 C.ar      1 26W        -0.0447
      9 C5         36.1100   24.3230   31.6410 C.3       1 26W         0.0035
     10 C6         36.9970   23.2480   31.0330 C.3       1 26W        -0.0514
     11 C4         35.3850   25.1140   30.5890 C.3       1 26W         0.0486
     12 C2         34.3230   24.2300   29.8790 C.2       1 26W         0.1801
     13 O3         33.2220   24.0900   30.4060 O.2       1 26W        -0.3968
     14 N1         34.6320   23.7290   28.6690 N.am      1 26W        -0.2583
     15 C1'        33.6060   22.9820   27.9000 C.3       1 26W         0.1719
     16 O5'        33.5700   21.5550   28.1610 O.3       1 26W        -0.3436
     17 C5'        32.3990   20.9750   27.5370 C.3       1 26W         0.1127
     18 C6'        32.2700   19.5220   27.9620 C.3       1 26W         0.0730
     19 O6'        33.3400   18.7750   27.3520 O.3       1 26W        -0.3924
     20 C4'        32.4750   21.1490   25.9590 C.3       1 26W         0.1119
     21 O4'        31.2860   20.6450   25.3350 O.3       1 26W        -0.3865
     22 C3'        32.6970   22.5890   25.5540 C.3       1 26W         0.1138
     23 O3'        33.0540   22.6400   24.1460 O.3       1 26W        -0.3864
     24 C2'        33.8540   23.2070   26.3990 C.3       1 26W         0.1308
     25 O2'        33.9750   24.5880   26.1280 O.3       1 26W        -0.3844
     26 H          41.2169   28.1069   35.5374 H         1 26W         0.0250
     27 H          41.1338   27.1820   33.9998 H         1 26W         0.0250
     28 H          40.5563   26.4366   35.5287 H         1 26W         0.0250
     29 H          39.3104   28.8745   34.1363 H         1 26W         0.0410
     30 H          38.7329   28.1291   35.6653 H         1 26W         0.0410
     31 H          36.8858   26.8027   35.4407 H         1 26W         0.0540
     32 H          35.5186   25.2517   34.0751 H         1 26W         0.0540
     33 H          39.7591   27.0295   32.2719 H         1 26W         0.0540
     34 H          38.4243   25.4455   30.9262 H         1 26W         0.0540
     35 H          35.3693   23.8351   32.2916 H         1 26W         0.0470
     36 H          36.3811   22.5582   30.4373 H         1 26W         0.0254
     37 H          37.4999   22.6898   31.8365 H         1 26W         0.0254
     38 H          37.7516   23.7182   30.3854 H         1 26W         0.0254
     39 H          36.1097   25.4768   29.8452 H         1 26W         0.0526
     40 H          34.8843   25.9717   31.0619 H         1 26W         0.0526
     41 H          35.5482   23.8594   28.2900 H         1 26W         0.1878
     42 H          32.6217   23.3955   28.1648 H         1 26W         0.0896
     43 H          31.5091   21.5145   27.8935 H         1 26W         0.0647
     44 H          31.3007   19.1220   27.6296 H         1 26W         0.0584
     45 H          32.3415   19.4471   29.0571 H         1 26W         0.0584
     46 H          34.1743   19.1262   27.6402 H         1 26W         0.2095
     47 H          33.3301   20.5594   25.5969 H         1 26W         0.0647
     48 H          30.5320   21.1222   25.6609 H         1 26W         0.2100
     49 H          31.7739   23.1632   25.7217 H         1 26W         0.0647
     50 H          33.1941   23.5436   23.8885 H         1 26W         0.2100
     51 H          34.7951   22.7102   26.1205 H         1 26W         0.0668
     52 H          34.1630   24.7132   25.2052 H         1 26W         0.2101
@<TRIPOS>BOND
     1    1    2 1  
     2    2    3 1  
     3    3    4 ar 
     4    3    6 ar 
     5    4    5 ar 
     6    5    8 ar 
     7    6    7 ar 
     8    7    8 ar 
     9    8    9 1  
    10    9   10 1  
    11    9   11 1  
    12   11   12 1  
    13   12   13 2  
    14   12   14 am 
    15   14   15 1  
    16   15   16 1  
    17   15   24 1  
    18   16   17 1  
    19   17   18 1  
    20   17   20 1  
    21   18   19 1  
    22   20   21 1  
    23   20   22 1  
    24   22   23 1  
    25   22   24 1  
    26   24   25 1  
    27    1   26 1  
    28    1   27 1  
    29    1   28 1  
    30    2   29 1  
    31    2   30 1  
    32    4   31 1  
    33    5   32 1  
    34    6   33 1  
    35    7   34 1  
    36    9   35 1  
    37   10   36 1  
    38   10   37 1  
    39   10   38 1  
    40   11   39 1  
    41   11   40 1  
    42   14   41 1  
    43   15   42 1  
    44   17   43 1  
    45   18   44 1  
    46   18   45 1  
    47   19   46 1  
    48   20   47 1  
    49   21   48 1  
    50   22   49 1  
    51   23   50 1  
    52   24   51 1  
    53   25   52 1  
@<TRIPOS>SUBSTRUCTURE
     1 26W         1

