### 
### Created by X-TOOL on Mon Sep 10 21:13:19 2018
### 

@<TRIPOS>MOLECULE
4mib_ligand
   66    69     1     0     0
SMALL
GAST_HUCK


@<TRIPOS>ATOM
      1 C1         -9.7340    8.9450   10.4620 C.ar      1 28M        -0.0005
      2 C2         -8.6870    9.4700   11.1920 C.ar      1 28M        -0.0598
      3 C3         -7.5550   10.1050   10.6760 C.ar      1 28M        -0.0281
      4 C4         -7.4840   10.1770    9.3030 C.ar      1 28M         0.1526
      5 C5         -8.5390    9.7170    8.4560 C.ar      1 28M         0.0737
      6 C6         -9.6740    9.0760    9.0320 C.ar      1 28M         0.0605
      7 N7        -10.7010    8.5850    8.2760 N.ar      1 28M        -0.2899
      8 C8        -10.6280    8.7180    6.9600 C.ar      1 28M         0.0415
      9 C9         -9.5650    9.3670    6.3040 C.ar      1 28M         0.0819
     10 C10        -8.5160    9.8690    7.0530 C.ar      1 28M         0.0005
     11 N11        -9.6520    9.5800    4.9230 N.pl3     1 28M        -0.3014
     12 C12        -8.6860   10.3790    4.1520 C.3       1 28M         0.0283
     13 C13        -9.3650   10.5570    2.8040 C.3       1 28M        -0.0270
     14 C14       -10.2330    9.3000    2.6680 C.3       1 28M        -0.0026
     15 C15       -10.7530    9.0680    4.0960 C.3       1 28M         0.0322
     16 C16       -11.4330    9.5070    1.7370 C.3       1 28M         0.0309
     17 N17       -11.0010    9.6650    0.3220 N.am      1 28M        -0.2517
     18 S18       -11.1180    8.4350   -0.7110 S.o2      1 28M         0.0362
     19 O19       -10.5540    8.8690   -1.9500 O.2       1 28M        -0.1558
     20 O20       -10.5650    7.2830   -0.0700 O.2       1 28M        -0.1558
     21 C21       -12.8290    8.1570   -0.9550 C.3       1 28M         0.0732
     22 O22        -6.3160   10.6140    8.7070 O.3       1 28M        -0.2748
     23 C23        -5.4850    9.6710    8.0400 C.3       1 28M         0.0775
     24 C24        -6.5030   10.7040   11.6520 C.3       1 28M        -0.0668
     25 C25        -6.9830   10.6950   13.1180 C.3       1 28M        -0.0991
     26 C26        -5.1900    9.9100   11.6120 C.3       1 28M        -0.0991
     27 C27        -6.1900   12.1660   11.3290 C.3       1 28M        -0.0991
     28 C28       -10.8610    8.3000   11.1890 C.2       1 28M         0.0433
     29 C29       -11.1700    6.8880   10.9470 C.2       1 28M         0.1757
     30 O30       -10.6430    6.1650   10.0960 O.2       1 28M        -0.3923
     31 N31       -12.1820    6.3830   11.7560 N.2       1 28M        -0.2503
     32 C33       -12.8660    7.1010   12.6880 C.2       1 28M         0.0406
     33 C34       -12.5950    8.4130   12.8880 C.3       1 28M         0.0528
     34 C35       -11.5710    9.0170   12.1260 C.2       1 28M        -0.0237
     35 H          -8.7492    9.3809   12.2705 H         1 28M         0.0594
     36 H         -11.4287    8.3055    6.3568 H         1 28M         0.0866
     37 H          -7.6871   10.3725    6.5688 H         1 28M         0.0735
     38 H          -7.7314    9.8434    4.0432 H         1 28M         0.0515
     39 H          -8.5079   11.3518    4.6335 H         1 28M         0.0515
     40 H          -8.6224   10.6108    1.9943 H         1 28M         0.0288
     41 H          -9.9852   11.4654    2.7937 H         1 28M         0.0288
     42 H          -9.6321    8.4494    2.3139 H         1 28M         0.0336
     43 H         -11.6809    9.6302    4.2772 H         1 28M         0.0519
     44 H         -10.9289    7.9989    4.2860 H         1 28M         0.0519
     45 H         -11.9760   10.4115    2.0486 H         1 28M         0.0479
     46 H         -12.0993    8.6350    1.8126 H         1 28M         0.0479
     47 H         -10.6351   10.5418    0.0100 H         1 28M         0.1668
     48 H         -12.9683    7.3216   -1.6570 H         1 28M         0.0482
     49 H         -13.2926    9.0647   -1.3687 H         1 28M         0.0482
     50 H         -13.3012    7.9099    0.0072 H         1 28M         0.0482
     51 H          -4.6049   10.1856    7.6268 H         1 28M         0.0616
     52 H          -6.0498    9.1976    7.2234 H         1 28M         0.0616
     53 H          -5.1578    8.9010    8.7541 H         1 28M         0.0616
     54 H          -6.2032   11.1280   13.7618 H         1 28M         0.0089
     55 H          -7.1844    9.6601   13.4316 H         1 28M         0.0089
     56 H          -7.9036   11.2906   13.2061 H         1 28M         0.0089
     57 H          -4.8061    9.8880   10.5814 H         1 28M         0.0089
     58 H          -5.3726    8.8817   11.9573 H         1 28M         0.0089
     59 H          -4.4502   10.3913   12.2686 H         1 28M         0.0089
     60 H          -7.1195   12.7538   11.3524 H         1 28M         0.0089
     61 H          -5.7396   12.2320   10.3276 H         1 28M         0.0089
     62 H          -5.4859   12.5637   12.0747 H         1 28M         0.0089
     63 H         -13.6403    6.6151   13.2799 H         1 28M         0.1326
     64 H         -12.3222    8.5296   13.9472 H         1 28M         0.0820
     65 H         -13.5215    8.9699   12.6845 H         1 28M         0.0820
     66 H         -11.3385   10.0694   12.2823 H         1 28M         0.0905
@<TRIPOS>BOND
     1    1    2 ar 
     2    1    6 ar 
     3    1   28 1  
     4    2    3 ar 
     5    3    4 ar 
     6    3   24 1  
     7    4    5 ar 
     8    4   22 1  
     9    5    6 ar 
    10    5   10 ar 
    11    6    7 ar 
    12    7    8 ar 
    13    8    9 ar 
    14    9   10 ar 
    15    9   11 1  
    16   11   12 1  
    17   11   15 1  
    18   12   13 1  
    19   13   14 1  
    20   14   15 1  
    21   14   16 1  
    22   16   17 1  
    23   17   18 am 
    24   18   19 2  
    25   18   20 2  
    26   18   21 1  
    27   22   23 1  
    28   24   25 1  
    29   24   26 1  
    30   24   27 1  
    31   28   29 1  
    32   28   34 2  
    33   29   30 2  
    34   29   31 1  
    35   31   32 2  
    36   32   33 1  
    37   33   34 1  
    38    2   35 1  
    39    8   36 1  
    40   10   37 1  
    41   12   38 1  
    42   12   39 1  
    43   13   40 1  
    44   13   41 1  
    45   14   42 1  
    46   15   43 1  
    47   15   44 1  
    48   16   45 1  
    49   16   46 1  
    50   17   47 1  
    51   21   48 1  
    52   21   49 1  
    53   21   50 1  
    54   23   51 1  
    55   23   52 1  
    56   23   53 1  
    57   25   54 1  
    58   25   55 1  
    59   25   56 1  
    60   26   57 1  
    61   26   58 1  
    62   26   59 1  
    63   27   60 1  
    64   27   61 1  
    65   27   62 1  
    66   32   63 1  
    67   33   64 1  
    68   33   65 1  
    69   34   66 1  
@<TRIPOS>SUBSTRUCTURE
     1 28M         1

