### 
### Created by X-TOOL on Mon Sep 10 21:13:18 2018
### 

@<TRIPOS>MOLECULE
4mic_ligand
   52    53     1     0     0
SMALL
GAST_HUCK


@<TRIPOS>ATOM
      1 C14        39.5530   28.8480   34.7690 C.3       1 26Y        -0.0537
      2 C13        39.7590   27.3280   34.6910 C.3       1 26Y        -0.0162
      3 C15        40.0740   26.7590   36.0740 C.3       1 26Y        -0.0537
      4 C10        38.6180   26.7550   34.1100 C.ar      1 26Y        -0.0472
      5 C9         38.6450   26.5560   32.7330 C.ar      1 26Y        -0.0666
      6 C8         37.5550   26.0090   32.0760 C.ar      1 26Y        -0.0667
      7 C11        37.4660   26.4090   34.8300 C.ar      1 26Y        -0.0666
      8 C12        36.3720   25.8580   34.1600 C.ar      1 26Y        -0.0667
      9 C7         36.4100   25.6450   32.7790 C.ar      1 26Y        -0.0475
     10 C6         35.3080   25.1060   32.1130 C.3       1 26Y        -0.0054
     11 C4         35.4500   24.4540   30.7240 C.3       1 26Y         0.0460
     12 C2         34.2330   23.8930   29.9730 C.2       1 26Y         0.1798
     13 O3         33.0940   23.9590   30.4340 O.2       1 26Y        -0.3968
     14 N1         34.5330   23.3380   28.7920 N.am      1 26Y        -0.2583
     15 C1'        33.5070   22.7410   27.9230 C.3       1 26Y         0.1719
     16 O5'        33.4260   21.3110   28.1790 O.3       1 26Y        -0.3436
     17 C5'        32.3300   20.7420   27.4460 C.3       1 26Y         0.1127
     18 C6'        32.2270   19.2620   27.7820 C.3       1 26Y         0.0730
     19 O6'        33.4810   18.6600   27.4050 O.3       1 26Y        -0.3924
     20 C4'        32.4880   20.9780   25.9100 C.3       1 26Y         0.1119
     21 O4'        31.2860   20.5930   25.2430 O.3       1 26Y        -0.3865
     22 C3'        32.7320   22.4580   25.5970 C.3       1 26Y         0.1138
     23 O3'        33.0200   22.6240   24.2010 O.3       1 26Y        -0.3864
     24 C2'        33.8830   22.9760   26.4660 C.3       1 26Y         0.1308
     25 O2'        34.1020   24.3770   26.2450 O.3       1 26Y        -0.3844
     26 H          40.4394   29.3153   35.2228 H         1 26Y         0.0253
     27 H          38.6677   29.0670   35.3840 H         1 26Y         0.0253
     28 H          39.4045   29.2504   33.7561 H         1 26Y         0.0253
     29 H          40.6192   27.1209   34.0374 H         1 26Y         0.0443
     30 H          40.2182   25.6711   35.9987 H         1 26Y         0.0253
     31 H          39.2384   26.9717   36.7570 H         1 26Y         0.0253
     32 H          40.9921   27.2245   36.4616 H         1 26Y         0.0253
     33 H          39.5283   26.8319   32.1685 H         1 26Y         0.0540
     34 H          37.5941   25.8628   31.0026 H         1 26Y         0.0540
     35 H          37.4248   26.5684   35.9014 H         1 26Y         0.0540
     36 H          35.4816   25.5919   34.7180 H         1 26Y         0.0540
     37 H          34.5824   25.9248   31.9993 H         1 26Y         0.0438
     38 H          34.8899   24.3351   32.7770 H         1 26Y         0.0438
     39 H          36.1533   23.6169   30.8444 H         1 26Y         0.0523
     40 H          35.8957   25.2158   30.0675 H         1 26Y         0.0523
     41 H          35.4864   23.3290   28.4906 H         1 26Y         0.1878
     42 H          32.5325   23.2068   28.1310 H         1 26Y         0.0896
     43 H          31.4018   21.2359   27.7694 H         1 26Y         0.0647
     44 H          31.4019   18.8024   27.2181 H         1 26Y         0.0584
     45 H          32.0527   19.1299   28.8600 H         1 26Y         0.0584
     46 H          34.1864   19.0684   27.8929 H         1 26Y         0.2095
     47 H          33.3319   20.3788   25.5376 H         1 26Y         0.0647
     48 H          30.5624   21.1138   25.5711 H         1 26Y         0.2100
     49 H          31.8231   23.0289   25.8377 H         1 26Y         0.0647
     50 H          33.1696   23.5438   24.0169 H         1 26Y         0.2100
     51 H          34.8034   22.4240   26.2248 H         1 26Y         0.0668
     52 H          34.3192   24.5222   25.3317 H         1 26Y         0.2101
@<TRIPOS>BOND
     1    1    2 1  
     2    2    3 1  
     3    2    4 1  
     4    4    5 ar 
     5    4    7 ar 
     6    5    6 ar 
     7    6    9 ar 
     8    7    8 ar 
     9    8    9 ar 
    10    9   10 1  
    11   10   11 1  
    12   11   12 1  
    13   12   13 2  
    14   12   14 am 
    15   14   15 1  
    16   15   16 1  
    17   15   24 1  
    18   16   17 1  
    19   17   18 1  
    20   17   20 1  
    21   18   19 1  
    22   20   21 1  
    23   20   22 1  
    24   22   23 1  
    25   22   24 1  
    26   24   25 1  
    27    1   26 1  
    28    1   27 1  
    29    1   28 1  
    30    2   29 1  
    31    3   30 1  
    32    3   31 1  
    33    3   32 1  
    34    5   33 1  
    35    6   34 1  
    36    7   35 1  
    37    8   36 1  
    38   10   37 1  
    39   10   38 1  
    40   11   39 1  
    41   11   40 1  
    42   14   41 1  
    43   15   42 1  
    44   17   43 1  
    45   18   44 1  
    46   18   45 1  
    47   19   46 1  
    48   20   47 1  
    49   21   48 1  
    50   22   49 1  
    51   23   50 1  
    52   24   51 1  
    53   25   52 1  
@<TRIPOS>SUBSTRUCTURE
     1 26Y         1

