### 
### Created by X-TOOL on Fri Sep 26 17:35:01 2014
### 

@<TRIPOS>MOLECULE
4mjo_ligand
   49    50     1     0     0
SMALL
GAST_HUCK


@<TRIPOS>ATOM
      1 N3         38.8300   12.2860  -22.8050 N.am      1 2C1        -0.1348
      2 C5         38.9100   11.0320  -22.4070 C.2       1 2C1         0.3122
      3 C6         39.7480    8.9530  -23.2380 C.ar      1 2C1         0.1224
      4 C7         40.8580    7.2510  -24.3380 C.ar      1 2C1         0.1224
      5 C8         35.9700   12.9250  -20.9100 C.2       1 2C1        -0.0602
      6 C10        34.4680   13.7350  -22.2960 C.2       1 2C1         0.0115
      7 N12        41.5240    6.7890  -25.4200 N.am      1 2C1        -0.2067
      8 C13        34.7230   13.1370  -21.1520 C.2       1 2C1        -0.0656
      9 C15        39.5030    8.1340  -22.1260 C.ar      1 2C1        -0.0215
     10 C28        41.8170    9.5930  -27.8640 C.3       1 2C1         0.0206
     11 S1         38.2640   13.3820  -21.9670 S.o2      1 2C1         0.0941
     12 C2         36.6900   13.4330  -21.8430 C.2       1 2C1         0.1517
     13 S4         35.8240   14.2600  -23.0180 S.3       1 2C1        -0.0262
     14 N9         40.4350    8.5070  -24.2830 N.ar      1 2C1        -0.2700
     15 N11        39.4490   10.2540  -23.3240 N.am      1 2C1        -0.2054
     16 C14        41.8340    7.4790  -26.5260 C.2       1 2C1         0.2913
     17 C16        40.6150    6.3920  -23.2740 C.ar      1 2C1        -0.0215
     18 O17        38.7050   14.5360  -22.6080 O.2       1 2C1        -0.1469
     19 O18        38.9410   13.4940  -20.7200 O.2       1 2C1        -0.1469
     20 C19        39.9250    6.8030  -22.1250 C.ar      1 2C1         0.0044
     21 O20        38.4870   10.6470  -21.3240 O.2       1 2C1        -0.3874
     22 O21        42.4310    6.8940  -27.3970 O.2       1 2C1        -0.3886
     23 N22        41.5240    8.7600  -26.7130 N.am      1 2C1        -0.2701
     24 C23        33.1220   14.0820  -22.8410 C.3       1 2C1         0.0094
     25 BR1        39.6050    5.5950  -20.6380 Br        1 2C1        -0.0467
     26 C25        33.5810   12.8060  -20.2200 C.3       1 2C1        -0.0502
     27 O26        31.8320   16.0820  -22.8890 O.3       1 2C1        -0.3809
     28 C27        32.9360   15.4870  -22.2740 C.3       1 2C1         0.0564
     29 C29        31.7360   17.4760  -22.5990 C.3       1 2C1         0.0367
     30 H1         39.1671   12.5148  -23.7183 H         1 2C1         0.2147
     31 H2         36.3565   12.3932  -20.0418 H         1 2C1         0.0380
     32 H3         41.8156    5.8329  -25.3920 H         1 2C1         0.2309
     33 H4         38.9838    8.5361  -21.2636 H         1 2C1         0.0485
     34 H5         41.4199   10.6048  -27.6949 H         1 2C1         0.0482
     35 H6         41.3473    9.1597  -28.7593 H         1 2C1         0.0482
     36 H7         42.9059    9.6462  -28.0105 H         1 2C1         0.0482
     37 H8         39.6620   10.6929  -24.1969 H         1 2C1         0.2309
     38 H9         40.9707    5.3698  -23.3340 H         1 2C1         0.0485
     39 H10        41.0272    9.2034  -25.9670 H         1 2C1         0.1850
     40 H11        32.3472   13.3922  -22.4751 H         1 2C1         0.0443
     41 H12        33.1196   14.0860  -23.9410 H         1 2C1         0.0443
     42 H13        33.9743   12.3127  -19.3189 H         1 2C1         0.0312
     43 H14        32.8760   12.1321  -20.7288 H         1 2C1         0.0312
     44 H15        33.0612   13.7321  -19.9336 H         1 2C1         0.0312
     45 H16        33.8364   16.0870  -22.4719 H         1 2C1         0.0582
     46 H17        32.7662   15.4275  -21.1888 H         1 2C1         0.0582
     47 H18        30.8539   17.8958  -23.1046 H         1 2C1         0.0524
     48 H19        32.6416   17.9881  -22.9562 H         1 2C1         0.0524
     49 H20        31.6384   17.6187  -21.5127 H         1 2C1         0.0524
@<TRIPOS>BOND
     1    2    1 am 
     2    1   11 am 
     3   15    2 am 
     4    2   21 2  
     5    3    9 ar 
     6   14    3 ar 
     7    3   15 1  
     8    7    4 1  
     9    4   14 ar 
    10    4   17 ar 
    11    5    8 1  
    12   12    5 2  
    13    6    8 2  
    14   13    6 1  
    15    6   24 1  
    16   16    7 am 
    17    8   26 1  
    18    9   20 ar 
    19   23   10 1  
    20   11   12 1  
    21   11   18 2  
    22   11   19 2  
    23   12   13 1  
    24   16   22 2  
    25   16   23 am 
    26   17   20 ar 
    27   20   25 1  
    28   24   28 1  
    29   28   27 1  
    30   27   29 1  
    31    1   30 1  
    32    5   31 1  
    33    7   32 1  
    34    9   33 1  
    35   10   34 1  
    36   10   35 1  
    37   10   36 1  
    38   15   37 1  
    39   17   38 1  
    40   23   39 1  
    41   24   40 1  
    42   24   41 1  
    43   26   42 1  
    44   26   43 1  
    45   26   44 1  
    46   28   45 1  
    47   28   46 1  
    48   29   47 1  
    49   29   48 1  
    50   29   49 1  
@<TRIPOS>SUBSTRUCTURE
     1 2C1         1

