### 
### Created by X-TOOL on Mon Sep 10 21:13:14 2018
### 

@<TRIPOS>MOLECULE
4mjp_ligand
   42    44     1     0     0
SMALL
GAST_HUCK


@<TRIPOS>ATOM
      1 C4        -19.1220  -18.2370   45.9690 C.ar      1 27O        -0.0679
      2 C5        -18.2320  -17.2160   45.5920 C.ar      1 27O        -0.0692
      3 C6        -17.5350  -17.2100   44.3700 C.ar      1 27O        -0.0378
      4 C7        -16.5740  -16.1170   43.9830 C.3       1 27O        -0.0093
      5 C8        -15.1450  -16.6420   44.1730 C.3       1 27O        -0.0410
      6 C10       -14.3530  -14.1360   44.0980 C.3       1 27O        -0.0527
      7 C13       -17.7510  -18.3660   43.4410 C.ar      1 27O        -0.0177
      8 C15       -17.3320  -19.5590   41.3730 C.ar      1 27O        -0.0641
      9 C17       -18.8780  -20.5340   42.9580 C.ar      1 27O        -0.0574
     10 O1        -22.0920  -21.1160   44.0950 O.co2     1 27O        -0.5661
     11 C2        -21.7020  -20.3170   44.9420 C.2       1 27O         0.0485
     12 O         -22.5380  -19.3500   45.3000 O.co2     1 27O        -0.5661
     13 C1        -20.3330  -20.4470   45.5770 C.3       1 27O         0.0401
     14 C         -20.4940  -20.5190   47.0950 C.3       1 27O        -0.0416
     15 C3        -19.3850  -19.3600   45.1560 C.ar      1 27O        -0.0255
     16 C18       -18.6790  -19.4630   43.8380 C.ar      1 27O        -0.0164
     17 C16       -18.2130  -20.5750   41.7340 C.ar      1 27O        -0.0641
     18 C14       -17.1010  -18.4690   42.2120 C.ar      1 27O        -0.0575
     19 C12       -16.7190  -14.8380   44.7940 C.3       1 27O        -0.0410
     20 C11       -15.8210  -13.7390   44.2490 C.3       1 27O        -0.0510
     21 C9        -14.0290  -15.6090   44.3610 C.3       1 27O        -0.0510
     22 H         -19.6276  -18.1582   46.9246 H         1 27O         0.0512
     23 H         -18.0749  -16.3914   46.2779 H         1 27O         0.0509
     24 H         -16.7380  -15.8738   42.9228 H         1 27O         0.0456
     25 H         -14.8934  -17.2403   43.2849 H         1 27O         0.0290
     26 H         -15.1476  -17.2891   45.0625 H         1 27O         0.0290
     27 H         -13.7656  -13.5304   44.8038 H         1 27O         0.0265
     28 H         -14.0445  -13.9016   43.0685 H         1 27O         0.0265
     29 H         -16.8157  -19.6163   40.4216 H         1 27O         0.0600
     30 H         -19.5538  -21.3365   43.2307 H         1 27O         0.0614
     31 H         -19.8989  -21.3999   45.2400 H         1 27O         0.0615
     32 H         -21.1950  -21.3270   47.3514 H         1 27O         0.0271
     33 H         -20.8861  -19.5614   47.4680 H         1 27O         0.0271
     34 H         -19.5169  -20.7205   47.5582 H         1 27O         0.0271
     35 H         -18.3830  -21.4047   41.0574 H         1 27O         0.0600
     36 H         -16.4085  -17.6935   41.9051 H         1 27O         0.0614
     37 H         -16.4429  -15.0421   45.8390 H         1 27O         0.0290
     38 H         -17.7654  -14.5015   44.7501 H         1 27O         0.0290
     39 H         -16.2007  -13.4444   43.2595 H         1 27O         0.0267
     40 H         -15.8758  -12.8797   44.9335 H         1 27O         0.0267
     41 H         -13.2089  -15.8883   43.6832 H         1 27O         0.0267
     42 H         -13.6858  -15.6861   45.4032 H         1 27O         0.0267
@<TRIPOS>BOND
     1    1    2 ar 
     2   15    1 ar 
     3    2    3 ar 
     4    3    4 1  
     5    3    7 ar 
     6    4    5 1  
     7    4   19 1  
     8    5   21 1  
     9    6   20 1  
    10   21    6 1  
    11    7   16 ar 
    12    7   18 ar 
    13    8   17 ar 
    14   18    8 ar 
    15   16    9 ar 
    16    9   17 ar 
    17   11   10 ar 
    18   11   12 ar 
    19   13   11 1  
    20   13   14 1  
    21   13   15 1  
    22   15   16 ar 
    23   19   20 1  
    24    1   22 1  
    25    2   23 1  
    26    4   24 1  
    27    5   25 1  
    28    5   26 1  
    29    6   27 1  
    30    6   28 1  
    31    8   29 1  
    32    9   30 1  
    33   13   31 1  
    34   14   32 1  
    35   14   33 1  
    36   14   34 1  
    37   17   35 1  
    38   18   36 1  
    39   19   37 1  
    40   19   38 1  
    41   20   39 1  
    42   20   40 1  
    43   21   41 1  
    44   21   42 1  
@<TRIPOS>SUBSTRUCTURE
     1 27O         1

