### 
### Created by X-TOOL on Mon Sep 10 21:13:14 2018
### 

@<TRIPOS>MOLECULE
4mjq_ligand
   31    32     1     0     0
SMALL
GAST_HUCK


@<TRIPOS>ATOM
      1 C4        -21.7930    0.7740  -23.6200 C.ar      1 27R         0.0174
      2 C5        -22.1010   -0.1210  -22.6120 C.ar      1 27R        -0.0467
      3 C6        -23.4000   -0.5370  -22.4280 C.ar      1 27R        -0.0412
      4 C7        -26.3900   -0.6700  -21.6450 C.ar      1 27R         0.0457
      5 C8        -25.7870   -0.0870  -20.5320 C.ar      1 27R        -0.0616
      6 C10       -27.4420   -0.9960  -19.0080 C.ar      1 27R        -0.0653
      7 C13       -30.6150   -1.5820  -19.5800 C.2       1 27R         0.0443
      8 O2        -30.5480   -0.3710  -19.5470 O.co2     1 27R        -0.5668
      9 O1        -31.8110   -2.1610  -19.5190 O.co2     1 27R        -0.5668
     10 C12       -29.3720   -2.4220  -19.6810 C.3       1 27R         0.0313
     11 C11       -28.1390   -1.6090  -20.0420 C.ar      1 27R        -0.0054
     12 C9        -26.2900   -0.2540  -19.2470 C.ar      1 27R        -0.0757
     13 C14       -27.6250   -1.4710  -21.4370 C.ar      1 27R         0.0601
     14 N         -28.2460   -2.0510  -22.5010 N.pl3     1 27R        -0.3350
     15 C         -25.8200   -0.5050  -23.0270 C.2       1 27R         0.1523
     16 O         -26.4830   -0.8090  -24.0060 O.2       1 27R        -0.3745
     17 C1        -24.4110   -0.0420  -23.2430 C.ar      1 27R         0.0338
     18 BR        -20.0100    1.2930  -23.8370 Br        1 27R        -0.0460
     19 C3        -22.7870    1.2660  -24.4590 C.ar      1 27R        -0.0467
     20 C2        -24.1000    0.8520  -24.2670 C.ar      1 27R        -0.0412
     21 H         -21.3168   -0.4963  -21.9645 H         1 27R         0.0655
     22 H         -23.6346   -1.2511  -21.6470 H         1 27R         0.0675
     23 H         -24.8973    0.5160  -20.6729 H         1 27R         0.0577
     24 H         -27.8044   -1.0984  -17.9915 H         1 27R         0.0558
     25 H         -29.5272   -3.1876  -20.4554 H         1 27R         0.0562
     26 H         -29.1987   -2.9113  -18.7112 H         1 27R         0.0562
     27 H         -25.7726    0.2045  -18.4120 H         1 27R         0.0502
     28 H         -27.8610   -1.9331  -23.4490 H         1 27R         0.1727
     29 H         -29.1007   -2.6076  -22.3578 H         1 27R         0.1727
     30 H         -22.5412    1.9630  -25.2520 H         1 27R         0.0655
     31 H         -24.8845    1.2252  -24.9153 H         1 27R         0.0675
@<TRIPOS>BOND
     1    2    1 ar 
     2    1   18 1  
     3    1   19 ar 
     4    3    2 ar 
     5   17    3 ar 
     6    4    5 ar 
     7    4   13 ar 
     8   15    4 1  
     9    5   12 ar 
    10   11    6 ar 
    11   12    6 ar 
    12    7    8 ar 
    13    7    9 ar 
    14   10    7 1  
    15   11   10 1  
    16   13   11 ar 
    17   13   14 1  
    18   15   16 2  
    19   15   17 1  
    20   17   20 ar 
    21   19   20 ar 
    22    2   21 1  
    23    3   22 1  
    24    5   23 1  
    25    6   24 1  
    26   10   25 1  
    27   10   26 1  
    28   12   27 1  
    29   14   28 1  
    30   14   29 1  
    31   19   30 1  
    32   20   31 1  
@<TRIPOS>SUBSTRUCTURE
     1 27R         1

