### 
### Created by X-TOOL on Mon Sep 10 21:13:14 2018
### 

@<TRIPOS>MOLECULE
4mjr_ligand
   30    32     1     0     0
SMALL
GAST_HUCK


@<TRIPOS>ATOM
      1 CL        -19.4960    0.5810  -24.4290 Cl        1 0LA        -0.0818
      2 C3        -21.1980    1.0570  -24.1850 C.ar      1 0LA         0.0260
      3 C2        -21.5820    2.1790  -24.9040 C.ar      1 0LA        -0.0597
      4 C1        -22.8600    2.7040  -24.8170 C.ar      1 0LA        -0.0402
      5 C9A       -23.7800    2.0740  -24.0030 C.ar      1 0LA         0.0648
      6 N9        -25.0900    2.3170  -23.7010 N.pl3     1 0LA        -0.2756
      7 C4        -22.0700    0.3740  -23.3450 C.ar      1 0LA        -0.0549
      8 C4A       -23.3550    0.8780  -23.2460 C.ar      1 0LA        -0.0057
      9 C4B       -24.5250    0.4380  -22.4930 C.ar      1 0LA        -0.0085
     10 C5        -24.7430   -0.6170  -21.6150 C.ar      1 0LA        -0.0723
     11 C6        -26.0310   -0.7360  -21.0540 C.ar      1 0LA        -0.0698
     12 C8A       -25.5940    1.4010  -22.8290 C.ar      1 0LA         0.0597
     13 C8        -26.8380    1.2370  -22.2460 C.ar      1 0LA        -0.0371
     14 C7        -27.0620    0.1840  -21.3590 C.ar      1 0LA        -0.0378
     15 C10       -28.4500    0.0640  -20.8310 C.3       1 0LA         0.0390
     16 C14       -28.6220    0.4360  -19.3820 C.3       1 0LA        -0.0414
     17 C11       -28.9040   -1.3520  -21.0260 C.2       1 0LA         0.0487
     18 O13       -29.1980   -1.7960  -22.2460 O.co2     1 0LA        -0.5661
     19 O12       -29.0090   -2.1080  -20.0730 O.co2     1 0LA        -0.5661
     20 H         -20.8595    2.6595  -25.5538 H         1 0LA         0.0570
     21 H         -23.1327    3.5915  -25.3765 H         1 0LA         0.0539
     22 H         -25.6332    3.1019  -24.0880 H         1 0LA         0.2157
     23 H         -21.7595   -0.5076  -22.7960 H         1 0LA         0.0577
     24 H         -23.9546   -1.3200  -21.3713 H         1 0LA         0.0567
     25 H         -26.2367   -1.5529  -20.3718 H         1 0LA         0.0472
     26 H         -27.6400    1.9281  -22.4790 H         1 0LA         0.0474
     27 H         -29.0927    0.7313  -21.4240 H         1 0LA         0.0617
     28 H         -28.2915    1.4738  -19.2282 H         1 0LA         0.0271
     29 H         -28.0181   -0.2376  -18.7563 H         1 0LA         0.0271
     30 H         -29.6820    0.3436  -19.1030 H         1 0LA         0.0271
@<TRIPOS>BOND
     1    1    2 1  
     2    2    3 ar 
     3    2    7 ar 
     4    3    4 ar 
     5    4    5 ar 
     6    5    6 1  
     7    5    8 ar 
     8    6   12 1  
     9    7    8 ar 
    10    8    9 1  
    11    9   10 ar 
    12    9   12 ar 
    13   10   11 ar 
    14   11   14 ar 
    15   12   13 ar 
    16   13   14 ar 
    17   14   15 1  
    18   15   16 1  
    19   15   17 1  
    20   17   18 ar 
    21   17   19 ar 
    22    3   20 1  
    23    4   21 1  
    24    6   22 1  
    25    7   23 1  
    26   10   24 1  
    27   11   25 1  
    28   13   26 1  
    29   15   27 1  
    30   16   28 1  
    31   16   29 1  
    32   16   30 1  
@<TRIPOS>SUBSTRUCTURE
     1 0LA         1

