### 
### Created by X-TOOL on Mon Sep 10 21:13:17 2018
### 

@<TRIPOS>MOLECULE
4mk0_ligand
   47    50     1     0     0
SMALL
GAST_HUCK


@<TRIPOS>ATOM
      1 F21       -15.2100   24.6680   15.8390 F         1 29X        -0.1893
      2 C4        -15.7710   25.8030   16.2890 C.ar      1 29X         0.1248
      3 C5        -15.4430   26.2640   17.5560 C.ar      1 29X        -0.0349
      4 C6        -16.0180   27.4390   18.0350 C.ar      1 29X        -0.0617
      5 C3        -16.6760   26.5150   15.5060 C.ar      1 29X        -0.0349
      6 C2        -17.2510   27.6950   15.9840 C.ar      1 29X        -0.0617
      7 C1        -16.9240   28.1670   17.2590 C.ar      1 29X        -0.0431
      8 C7        -17.5300   29.4280   17.7810 C.3       1 29X         0.0057
      9 C8        -16.4480   30.5000   17.9580 C.3       1 29X        -0.0000
     10 C9        -16.9720   31.7870   18.5900 C.3       1 29X        -0.0316
     11 N10       -17.7920   31.5000   19.7450 N.4       1 29X         0.2275
     12 C11       -18.8290   30.4850   19.6580 C.3       1 29X        -0.0262
     13 C12       -18.2760   29.1810   19.0920 C.3       1 29X         0.0391
     14 C13       -19.4100   28.1790   18.9190 C.3       1 29X         0.0811
     15 O14       -20.0710   28.3000   17.6490 O.3       1 29X        -0.3157
     16 C15       -21.2760   27.6710   17.4370 C.ar      1 29X         0.0901
     17 C16       -21.6490   26.5630   18.2070 C.ar      1 29X        -0.0239
     18 C20       -22.1370   28.1510   16.4450 C.ar      1 29X        -0.0336
     19 C19       -23.3710   27.5340   16.2120 C.ar      1 29X        -0.0565
     20 C18       -23.7170   26.4450   16.9940 C.ar      1 29X         0.0421
     21 C22       -24.8840   25.5200   17.1010 C.2       1 29X         0.1942
     22 O25       -25.9420   25.5680   16.3780 O.2       1 29X        -0.3934
     23 C17       -22.8760   25.9660   17.9700 C.ar      1 29X        -0.0092
     24 C24       -23.4100   24.8180   18.6910 C.3       1 29X         0.0648
     25 N23       -24.7170   24.6000   18.0570 N.am      1 29X        -0.2767
     26 H         -14.7417   25.7117   18.1710 H         1 29X         0.0587
     27 H         -15.7585   27.7944   19.0257 H         1 29X         0.0547
     28 H         -16.9362   26.1511   14.5186 H         1 29X         0.0587
     29 H         -17.9513   28.2452   15.3660 H         1 29X         0.0547
     30 H         -18.2566   29.7920   17.0397 H         1 29X         0.0461
     31 H         -16.0303   30.7413   16.9694 H         1 29X         0.0341
     32 H         -15.6546   30.0926   18.6019 H         1 29X         0.0341
     33 H         -17.5736   32.3330   17.8484 H         1 29X         0.0815
     34 H         -16.1192   32.4088   18.8999 H         1 29X         0.0815
     35 H         -18.2474   32.3619   20.0016 H         1 29X         0.2014
     36 H         -17.1674   31.2171   20.4839 H         1 29X         0.2014
     37 H         -19.6334   30.8487   19.0018 H         1 29X         0.0819
     38 H         -19.2330   30.2972   20.6637 H         1 29X         0.0819
     39 H         -17.5592   28.7658   19.8157 H         1 29X         0.0403
     40 H         -20.1491   28.3434   19.7169 H         1 29X         0.0622
     41 H         -18.9974   27.1630   19.0050 H         1 29X         0.0622
     42 H         -20.9885   26.1787   18.9759 H         1 29X         0.0492
     43 H         -21.8455   29.0095   15.8508 H         1 29X         0.0502
     44 H         -24.0385   27.8989   15.4397 H         1 29X         0.0625
     45 H         -23.5239   25.0431   19.7617 H         1 29X         0.0695
     46 H         -22.7608   23.9386   18.5682 H         1 29X         0.0695
     47 H         -25.3717   23.8841   18.2995 H         1 29X         0.1868
@<TRIPOS>BOND
     1    1    2 1  
     2    2    3 ar 
     3    2    5 ar 
     4    3    4 ar 
     5    4    7 ar 
     6    5    6 ar 
     7    6    7 ar 
     8    7    8 1  
     9    8    9 1  
    10    8   13 1  
    11    9   10 1  
    12   10   11 1  
    13   11   12 1  
    14   12   13 1  
    15   13   14 1  
    16   14   15 1  
    17   15   16 1  
    18   16   17 ar 
    19   16   18 ar 
    20   17   23 ar 
    21   18   19 ar 
    22   19   20 ar 
    23   20   21 1  
    24   20   23 ar 
    25   21   22 2  
    26   21   25 am 
    27   23   24 1  
    28   24   25 1  
    29    3   26 1  
    30    4   27 1  
    31    5   28 1  
    32    6   29 1  
    33    8   30 1  
    34    9   31 1  
    35    9   32 1  
    36   10   33 1  
    37   10   34 1  
    38   11   35 1  
    39   11   36 1  
    40   12   37 1  
    41   12   38 1  
    42   13   39 1  
    43   14   40 1  
    44   14   41 1  
    45   17   42 1  
    46   18   43 1  
    47   19   44 1  
    48   24   45 1  
    49   24   46 1  
    50   25   47 1  
@<TRIPOS>SUBSTRUCTURE
     1 29X         1

