### 
### Created by X-TOOL on Mon Sep 10 21:13:13 2018
### 

@<TRIPOS>MOLECULE
4mk1_ligand
   13    13     1     0     0
SMALL
GAST_HUCK


@<TRIPOS>ATOM
      1 O01        10.0340   22.3100   -7.9810 O.3       1 27Y        -0.3283
      2 C02        10.3280   21.7660   -9.2090 C.ar      1 27Y         0.1478
      3 C03        11.1550   22.4480  -10.1070 C.ar      1 27Y        -0.0129
      4 C04        11.4360   21.8200  -11.3260 C.ar      1 27Y         0.0191
      5 BR         12.5800   22.6870  -12.6410 Br        1 27Y        -0.0534
      6 C06        10.8960   20.5720  -11.6120 C.ar      1 27Y        -0.0028
      7 N07        10.1150   19.9560  -10.7210 N.ar      1 27Y        -0.2817
      8 C08         9.8240   20.5160   -9.5460 C.ar      1 27Y         0.1959
      9 O09         9.0530   19.8520   -8.6560 O.3       1 27Y        -0.3174
     10 H1          9.4644   21.7192   -7.5024 H         1 27Y         0.2470
     11 H2         11.5622   23.4239   -9.8686 H         1 27Y         0.0645
     12 H3         11.1096   20.0964  -12.5624 H         1 27Y         0.0714
     13 H4          8.9412   20.3838   -7.8768 H         1 27Y         0.2506
@<TRIPOS>BOND
     1    1    2 1  
     2    2    3 ar 
     3    2    8 ar 
     4    3    4 ar 
     5    4    5 1  
     6    4    6 ar 
     7    6    7 ar 
     8    7    8 ar 
     9    8    9 1  
    10    1   10 1  
    11    3   11 1  
    12    6   12 1  
    13    9   13 1  
@<TRIPOS>SUBSTRUCTURE
     1 27Y         1

