### 
### Created by X-TOOL on Mon Sep 10 21:13:13 2018
### 

@<TRIPOS>MOLECULE
4mk2_ligand
   24    25     1     0     0
SMALL
GAST_HUCK


@<TRIPOS>ATOM
      1 O01         9.0400   19.7670   -8.3890 O.2       1 28B        -0.4078
      2 C02         9.5940   20.4300   -9.2560 C.2       1 28B         0.2452
      3 C03        10.0510   21.7500   -8.9540 C.2       1 28B         0.1463
      4 O04         9.8610   22.2290   -7.6990 O.3       1 28B        -0.3373
      5 C05        10.6940   22.5550   -9.9440 C.2       1 28B        -0.0418
      6 C06        10.8930   22.0060  -11.2460 C.2       1 28B        -0.0093
      7 C07        11.5590   22.8120  -12.3050 C.ar      1 28B        -0.0296
      8 C08        12.5840   23.6860  -11.9830 C.ar      1 28B        -0.0571
      9 C09        13.1840   24.4320  -12.9840 C.ar      1 28B        -0.0587
     10 C10        12.7630   24.3090  -14.2980 C.ar      1 28B        -0.0347
     11 C11        11.7370   23.4330  -14.6180 C.ar      1 28B         0.0882
     12 C12        11.2690   23.2820  -16.0280 C.1       1 28B         0.0987
     13 N13        10.8900   23.1460  -17.0990 N.1       1 28B        -0.3283
     14 C14        11.1310   22.6830  -13.6210 C.ar      1 28B        -0.0304
     15 C15        10.4500   20.6910  -11.5510 C.2       1 28B         0.0626
     16 N16         9.8040   19.9010  -10.5440 N.am      1 28B        -0.2217
     17 H1         10.2108   23.1103   -7.6413 H         1 28B         0.2438
     18 H2         11.0251   23.5657   -9.7099 H         1 28B         0.0456
     19 H3         12.9142   23.7855  -10.9553 H         1 28B         0.0623
     20 H4         13.9879   25.1162  -12.7377 H         1 28B         0.0619
     21 H5         13.2357   24.8976  -15.0760 H         1 28B         0.0653
     22 H6         10.3269   21.9990  -13.8672 H         1 28B         0.0658
     23 H7         10.6011   20.2832  -12.5494 H         1 28B         0.1149
     24 H8          9.5017   18.9718  -10.7569 H         1 28B         0.2559
@<TRIPOS>BOND
     1    1    2 2  
     2    2    3 1  
     3    2   16 am 
     4    3    4 1  
     5    3    5 2  
     6    5    6 1  
     7    6    7 1  
     8    6   15 2  
     9    7    8 ar 
    10    7   14 ar 
    11    8    9 ar 
    12    9   10 ar 
    13   10   11 ar 
    14   11   12 1  
    15   11   14 ar 
    16   12   13 3  
    17   15   16 1  
    18    4   17 1  
    19    5   18 1  
    20    8   19 1  
    21    9   20 1  
    22   10   21 1  
    23   14   22 1  
    24   15   23 1  
    25   16   24 1  
@<TRIPOS>SUBSTRUCTURE
     1 28B         1

