### 
### Created by X-TOOL on Mon Sep 10 21:13:13 2018
### 

@<TRIPOS>MOLECULE
4mk5_ligand
   27    28     1     0     0
SMALL
GAST_HUCK


@<TRIPOS>ATOM
      1 O01         9.9230   22.3060   -7.6890 O.3       1 28A        -0.3278
      2 C02        10.1210   21.8850   -8.9930 C.ar      1 28A         0.1464
      3 C03        10.7700   22.6990   -9.9370 C.ar      1 28A        -0.0207
      4 C04        10.9370   22.1580  -11.2420 C.ar      1 28A        -0.0475
      5 C05        10.4820   20.8680  -11.5010 C.ar      1 28A         0.0266
      6 C06        10.6260   20.2240  -12.8270 C.ar      1 28A        -0.0204
      7 C07        10.5610   21.0200  -13.9750 C.ar      1 28A        -0.0258
      8 C08        10.6740   20.4090  -15.2090 C.ar      1 28A         0.0910
      9 O09        10.5900   21.2000  -16.3180 O.3       1 28A        -0.3214
     10 C10        10.5790   20.5840  -17.5700 C.3       1 28A         0.0593
     11 C11        10.8760   19.0430  -15.3270 C.ar      1 28A        -0.0329
     12 C12        10.9510   18.2440  -14.1860 C.ar      1 28A        -0.0697
     13 C13        10.8400   18.8530  -12.9360 C.ar      1 28A        -0.0649
     14 N14         9.8790   20.1320  -10.5490 N.ar      1 28A        -0.2799
     15 C15         9.6910   20.6150   -9.3340 C.ar      1 28A         0.1926
     16 O16         9.0670   19.8360   -8.4200 O.3       1 28A        -0.3190
     17 H1          9.4711   21.6262   -7.2031 H         1 28A         0.2478
     18 H2         11.1260   23.6909   -9.6831 H         1 28A         0.0623
     19 H3         11.4113   22.7413  -12.0229 H         1 28A         0.0597
     20 H4         10.4250   22.0927  -13.8984 H         1 28A         0.0543
     21 H5         10.5080   21.3509  -18.3553 H         1 28A         0.0577
     22 H6          9.7140   19.9080  -17.6385 H         1 28A         0.0577
     23 H7         11.5063   20.0076  -17.7032 H         1 28A         0.0577
     24 H8         10.9760   18.5942  -16.3087 H         1 28A         0.0545
     25 H9         11.0926   17.1725  -14.2690 H         1 28A         0.0590
     26 H10        10.9214   18.2510  -12.0382 H         1 28A         0.0532
     27 H11         9.0003   20.3064   -7.5973 H         1 28A         0.2498
@<TRIPOS>BOND
     1    1    2 1  
     2    2    3 ar 
     3    2   15 ar 
     4    3    4 ar 
     5    4    5 ar 
     6    5    6 1  
     7    5   14 ar 
     8    6    7 ar 
     9    6   13 ar 
    10    7    8 ar 
    11    8    9 1  
    12    8   11 ar 
    13    9   10 1  
    14   11   12 ar 
    15   12   13 ar 
    16   14   15 ar 
    17   15   16 1  
    18    1   17 1  
    19    3   18 1  
    20    4   19 1  
    21    7   20 1  
    22   10   21 1  
    23   10   22 1  
    24   10   23 1  
    25   11   24 1  
    26   12   25 1  
    27   13   26 1  
    28   16   27 1  
@<TRIPOS>SUBSTRUCTURE
     1 28A         1

