### 
### Created by X-TOOL on Mon Sep 10 21:13:15 2018
### 

@<TRIPOS>MOLECULE
4mk7_ligand
   38    39     1     0     0
SMALL
GAST_HUCK


@<TRIPOS>ATOM
      1 C1        -10.5480    9.3290   19.2830 C.ar      1 28O        -0.0112
      2 C2        -10.4250    9.0210   17.9300 C.ar      1 28O        -0.0380
      3 C3         -9.2870    9.3720   17.2260 C.ar      1 28O         0.0005
      4 C4         -8.2500   10.0370   17.8810 C.ar      1 28O         0.1225
      5 C5         -8.3690   10.4160   19.2320 C.ar      1 28O        -0.0270
      6 C6         -9.5310   10.0460   19.9080 C.ar      1 28O        -0.0514
      7 C7         -7.2700   11.1780   20.0180 C.3       1 28O        -0.0565
      8 C8         -7.8060   11.6860   21.3690 C.3       1 28O        -0.0920
      9 C9         -6.0840   10.2540   20.3270 C.3       1 28O        -0.0920
     10 C10        -6.7520   12.4120   19.2600 C.3       1 28O        -0.0920
     11 O11        -7.0310   10.2660   17.2980 O.3       1 28O        -0.2946
     12 C12        -6.8050    9.7610   15.9780 C.3       1 28O         0.0699
     13 C13       -11.7090    8.8470   20.0780 C.2       1 28O         0.0372
     14 C14       -12.1770    7.4760   19.8730 C.2       1 28O         0.2112
     15 O15       -11.7010    6.6590   19.0770 O.2       1 28O        -0.4137
     16 N16       -13.2520    7.1100   20.6950 N.am      1 28O        -0.2188
     17 C18       -13.8340    7.9200   21.6200 C.2       1 28O         0.0663
     18 C19       -13.3880    9.1860   21.8090 C.2       1 28O        -0.0382
     19 C20       -12.3130    9.6510   21.0200 C.2       1 28O        -0.0655
     20 H1        -11.2297    8.5007   17.4233 H         1 28O         0.0816
     21 H2         -9.2016    9.1319   16.1724 H         1 28O         0.0633
     22 H3         -9.6459   10.3243   20.9493 H         1 28O         0.0698
     23 H4         -7.0067   12.2210   21.9028 H         1 28O         0.0112
     24 H5         -8.1431   10.8317   21.9744 H         1 28O         0.0112
     25 H6         -8.6511   12.3683   21.1951 H         1 28O         0.0112
     26 H7         -5.6671    9.8655   19.3861 H         1 28O         0.0112
     27 H8         -6.4257    9.4148   20.9507 H         1 28O         0.0112
     28 H9         -5.3092   10.8194   20.8655 H         1 28O         0.0112
     29 H10        -7.5937   13.0826   19.0326 H         1 28O         0.0112
     30 H11        -6.2742   12.0924   18.3222 H         1 28O         0.0112
     31 H12        -6.0177   12.9436   19.8831 H         1 28O         0.0112
     32 H13        -5.7877   10.0253   15.6535 H         1 28O         0.0600
     33 H14        -7.5370   10.2029   15.2860 H         1 28O         0.0600
     34 H15        -6.9165    8.6667   15.9800 H         1 28O         0.0600
     35 H16       -13.6181    6.1849   20.5939 H         1 28O         0.2596
     36 H17       -14.6668    7.5475   22.2148 H         1 28O         0.1247
     37 H18       -13.8495    9.8318   22.5546 H         1 28O         0.0385
     38 H19       -11.9528   10.6692   21.1594 H         1 28O         0.0649
@<TRIPOS>BOND
     1    1    2 ar 
     2    1    6 ar 
     3    1   13 1  
     4    2    3 ar 
     5    3    4 ar 
     6    4    5 ar 
     7    4   11 1  
     8    5    6 ar 
     9    5    7 1  
    10    7    8 1  
    11    7    9 1  
    12    7   10 1  
    13   11   12 1  
    14   13   14 1  
    15   13   19 2  
    16   14   15 2  
    17   14   16 am 
    18   16   17 1  
    19   17   18 2  
    20   18   19 1  
    21    2   20 1  
    22    3   21 1  
    23    6   22 1  
    24    8   23 1  
    25    8   24 1  
    26    8   25 1  
    27    9   26 1  
    28    9   27 1  
    29    9   28 1  
    30   10   29 1  
    31   10   30 1  
    32   10   31 1  
    33   12   32 1  
    34   12   33 1  
    35   12   34 1  
    36   16   35 1  
    37   17   36 1  
    38   18   37 1  
    39   19   38 1  
@<TRIPOS>SUBSTRUCTURE
     1 28O         1

