### 
### Created by X-TOOL on Mon Sep 10 21:13:15 2018
### 

@<TRIPOS>MOLECULE
4mk8_ligand
   62    64     1     0     0
SMALL
GAST_HUCK


@<TRIPOS>ATOM
      1 C1        -51.1180   -8.9210  -13.5710 C.ar      1 28Q        -0.0587
      2 C2        -50.0030   -9.4860  -12.9490 C.ar      1 28Q        -0.0328
      3 C3        -49.9720   -9.4410  -11.5230 C.ar      1 28Q         0.1258
      4 C4        -50.9900   -8.8280  -10.7750 C.ar      1 28Q         0.0213
      5 C5        -52.0670   -8.2690  -11.4590 C.ar      1 28Q        -0.0369
      6 C6        -52.1380   -8.3100  -12.8500 C.ar      1 28Q        -0.0189
      7 C7        -53.3100   -7.7320  -13.5600 C.2       1 28Q         0.0353
      8 C8        -53.9260   -8.4060  -14.5930 C.2       1 28Q        -0.0656
      9 C9        -55.0130   -7.8350  -15.3080 C.2       1 28Q        -0.0381
     10 C10       -55.4490   -6.6020  -14.9540 C.2       1 28Q         0.0664
     11 N11       -54.8720   -5.9320  -13.9190 N.am      1 28Q        -0.2187
     12 C13       -53.7900   -6.4120  -13.1550 C.2       1 28Q         0.2111
     13 O14       -53.3310   -5.7360  -12.2300 O.2       1 28Q        -0.4137
     14 C15       -50.9460   -8.7070   -9.2570 C.3       1 28Q        -0.0063
     15 C16       -52.1880   -9.3810   -8.5810 C.3       1 28Q        -0.0181
     16 C17       -52.1880   -9.3100   -7.0750 C.ar      1 28Q        -0.0578
     17 C18       -51.6440  -10.3380   -6.3130 C.ar      1 28Q        -0.0754
     18 C19       -51.7550  -10.3420   -4.9340 C.ar      1 28Q        -0.0516
     19 C20       -52.4170   -9.3060   -4.2840 C.ar      1 28Q         0.0553
     20 C21       -52.9330   -8.2570   -5.0370 C.ar      1 28Q        -0.0516
     21 C22       -52.8170   -8.2650   -6.4160 C.ar      1 28Q        -0.0754
     22 N23       -52.5950   -9.3740   -2.8700 N.am      1 28Q        -0.1957
     23 S24       -53.1620   -8.2170   -1.8810 S.o2      1 28Q         0.0560
     24 O25       -52.8860   -8.6590   -0.5490 O.2       1 28Q        -0.1504
     25 O26       -52.6110   -6.9700   -2.3180 O.2       1 28Q        -0.1504
     26 C27       -54.8970   -8.1750   -2.0950 C.3       1 28Q         0.0785
     27 O28       -48.8600   -9.9330  -10.8620 O.3       1 28Q        -0.2971
     28 C29       -49.0120  -11.1810  -10.1850 C.3       1 28Q         0.0687
     29 C30       -48.8270   -9.9340  -13.8610 C.3       1 28Q        -0.0582
     30 C31       -49.1930   -9.8630  -15.3550 C.3       1 28Q        -0.0922
     31 C32       -47.6010   -9.0160  -13.6650 C.3       1 28Q        -0.0922
     32 C33       -48.4030  -11.3850  -13.5980 C.3       1 28Q        -0.0922
     33 H1        -51.1910   -8.9599  -14.6518 H         1 28Q         0.0637
     34 H2        -52.8642   -7.7935  -10.8991 H         1 28Q         0.0740
     35 H3        -53.5714   -9.3985  -14.8671 H         1 28Q         0.0650
     36 H4        -55.4865   -8.3779  -16.1247 H         1 28Q         0.0386
     37 H5        -56.2694   -6.1423  -15.5031 H         1 28Q         0.1248
     38 H6        -55.2432   -5.0337  -13.6838 H         1 28Q         0.2596
     39 H7        -50.9282   -7.6412   -8.9856 H         1 28Q         0.0429
     40 H8        -50.0318   -9.1948   -8.8877 H         1 28Q         0.0429
     41 H9        -52.2085  -10.4405   -8.8761 H         1 28Q         0.0414
     42 H10       -53.0953   -8.8801   -8.9497 H         1 28Q         0.0414
     43 H11       -51.1240  -11.1502   -6.8079 H         1 28Q         0.0515
     44 H12       -51.3251  -11.1542   -4.3590 H         1 28Q         0.0466
     45 H13       -53.4282   -7.4296   -4.5418 H         1 28Q         0.0466
     46 H14       -53.2246   -7.4408   -6.9902 H         1 28Q         0.0515
     47 H15       -52.3400  -10.2379   -2.4356 H         1 28Q         0.2132
     48 H16       -55.3284   -7.4020   -1.4419 H         1 28Q         0.0487
     49 H17       -55.3225   -9.1551   -1.8336 H         1 28Q         0.0487
     50 H18       -55.1315   -7.9414   -3.1440 H         1 28Q         0.0487
     51 H19       -48.0612  -11.4559   -9.7049 H         1 28Q         0.0598
     52 H20       -49.2953  -11.9589  -10.9092 H         1 28Q         0.0598
     53 H21       -49.7964  -11.0896   -9.4193 H         1 28Q         0.0598
     54 H22       -48.3331  -10.1882  -15.9590 H         1 28Q         0.0112
     55 H23       -49.4563   -8.8282  -15.6193 H         1 28Q         0.0112
     56 H24       -50.0510  -10.5220  -15.5541 H         1 28Q         0.0112
     57 H25       -47.2971   -9.0309  -12.6079 H         1 28Q         0.0112
     58 H26       -47.8621   -7.9881  -13.9570 H         1 28Q         0.0112
     59 H27       -46.7703   -9.3750  -14.2904 H         1 28Q         0.0112
     60 H28       -49.2683  -12.0503  -13.7344 H         1 28Q         0.0112
     61 H29       -48.0289  -11.4767  -12.5677 H         1 28Q         0.0112
     62 H30       -47.6079  -11.6683  -14.3034 H         1 28Q         0.0112
@<TRIPOS>BOND
     1    1    2 ar 
     2    1    6 ar 
     3    2    3 ar 
     4    2   29 1  
     5    3    4 ar 
     6    3   27 1  
     7    4    5 ar 
     8    4   14 1  
     9    5    6 ar 
    10    6    7 1  
    11    7    8 2  
    12    7   12 1  
    13    8    9 1  
    14    9   10 2  
    15   10   11 1  
    16   11   12 am 
    17   12   13 2  
    18   14   15 1  
    19   15   16 1  
    20   16   17 ar 
    21   16   21 ar 
    22   17   18 ar 
    23   18   19 ar 
    24   19   20 ar 
    25   19   22 1  
    26   20   21 ar 
    27   22   23 am 
    28   23   24 2  
    29   23   25 2  
    30   23   26 1  
    31   27   28 1  
    32   29   30 1  
    33   29   31 1  
    34   29   32 1  
    35    1   33 1  
    36    5   34 1  
    37    8   35 1  
    38    9   36 1  
    39   10   37 1  
    40   11   38 1  
    41   14   39 1  
    42   14   40 1  
    43   15   41 1  
    44   15   42 1  
    45   17   43 1  
    46   18   44 1  
    47   20   45 1  
    48   21   46 1  
    49   22   47 1  
    50   26   48 1  
    51   26   49 1  
    52   26   50 1  
    53   28   51 1  
    54   28   52 1  
    55   28   53 1  
    56   30   54 1  
    57   30   55 1  
    58   30   56 1  
    59   31   57 1  
    60   31   58 1  
    61   31   59 1  
    62   32   60 1  
    63   32   61 1  
    64   32   62 1  
@<TRIPOS>SUBSTRUCTURE
     1 28Q         1

