### 
### Created by X-TOOL on Mon Sep 10 21:13:14 2018
### 

@<TRIPOS>MOLECULE
4mk9_ligand
   58    61     1     0     0
SMALL
GAST_HUCK


@<TRIPOS>ATOM
      1 C1         -9.5240    8.3630   12.3170 C.ar      1 28R         0.0032
      2 C2         -8.4510    8.9320   12.9970 C.ar      1 28R        -0.0411
      3 C3         -7.3720    9.5160   12.3300 C.ar      1 28R        -0.0147
      4 C4         -7.4200    9.5070   10.9100 C.ar      1 28R         0.1471
      5 C5         -8.5160    8.9830   10.2010 C.ar      1 28R         0.1100
      6 C6         -9.5520    8.3870   10.9240 C.ar      1 28R        -0.0164
      7 C7         -8.7160    9.2100    8.7610 C.2       1 28R         0.2029
      8 N8         -9.1980    8.4230    7.8470 N.2       1 28R        -0.2989
      9 C9         -9.2040    9.1960    6.6790 C.ar      1 28R         0.0290
     10 C10        -8.7080   10.4440    6.9790 C.ar      1 28R         0.1276
     11 O11        -8.3840   10.4650    8.3200 O.3       1 28R        -0.2315
     12 C12        -8.5960   11.4590    6.0550 C.ar      1 28R        -0.0397
     13 C13        -8.9960   11.1840    4.7580 C.ar      1 28R        -0.0528
     14 C14        -9.4850    9.9210    4.4050 C.ar      1 28R         0.0485
     15 C15        -9.6060    8.9070    5.3650 C.ar      1 28R        -0.0452
     16 N16        -9.7940    9.7460    3.0140 N.am      1 28R        -0.1983
     17 S17       -10.3630    8.4740    2.1760 S.o2      1 28R         0.0555
     18 O18       -10.1610    8.7790    0.7930 O.2       1 28R        -0.1505
     19 O19        -9.7560    7.2950    2.7180 O.2       1 28R        -0.1505
     20 C20       -12.0860    8.4140    2.4700 C.3       1 28R         0.0784
     21 O21        -6.3660   10.0640   10.2060 O.3       1 28R        -0.2871
     22 C22        -5.5410    9.2000    9.4160 C.3       1 28R         0.0724
     23 C23        -6.2360   10.1610   13.1750 C.3       1 28R        -0.0526
     24 C24        -6.5750   10.1610   14.6830 C.3       1 28R        -0.0905
     25 C25        -4.9060    9.3910   13.0330 C.3       1 28R        -0.0905
     26 C26        -6.0060   11.6410   12.7920 C.3       1 28R        -0.0905
     27 C27       -10.6580    7.7790   13.0800 C.2       1 28R         0.0458
     28 C28       -11.1240    6.4360   12.7280 C.2       1 28R         0.1750
     29 O29       -10.7430    5.7700   11.7620 O.2       1 28R        -0.3932
     30 N30       -12.1100    5.9270   13.5810 N.2       1 28R        -0.2506
     31 C32       -12.6440    6.5970   14.6370 C.2       1 28R         0.0404
     32 C33       -12.2470    7.8610   14.9250 C.3       1 28R         0.0523
     33 C34       -11.2280    8.4530   14.1370 C.2       1 28R        -0.0245
     34 H1         -8.4530    8.9214   14.0810 H         1 28R         0.0782
     35 H2        -10.3860    7.9387   10.3962 H         1 28R         0.0859
     36 H3         -8.2104   12.4336    6.3317 H         1 28R         0.0533
     37 H4         -8.9293   11.9597    4.0038 H         1 28R         0.0448
     38 H5         -9.9973    7.9310    5.1016 H         1 28R         0.0387
     39 H6         -9.6282   10.5589    2.4557 H         1 28R         0.2120
     40 H7        -12.5221    7.5656    1.9222 H         1 28R         0.0487
     41 H8        -12.5496    9.3501    2.1255 H         1 28R         0.0487
     42 H9        -12.2700    8.2884    3.5472 H         1 28R         0.0487
     43 H10        -4.7555    9.7923    8.9239 H         1 28R         0.0605
     44 H11        -6.1569    8.7019    8.6528 H         1 28R         0.0605
     45 H12        -5.0769    8.4424   10.0645 H         1 28R         0.0605
     46 H13        -5.7499   10.6238   15.2443 H         1 28R         0.0116
     47 H14        -6.7172    9.1259   15.0269 H         1 28R         0.0116
     48 H15        -7.4991   10.7334   14.8511 H         1 28R         0.0116
     49 H16        -4.6126    9.3583   11.9733 H         1 28R         0.0116
     50 H17        -5.0339    8.3655   13.4098 H         1 28R         0.0116
     51 H18        -4.1235    9.9004   13.6145 H         1 28R         0.0116
     52 H19        -6.9504   12.1963   12.8909 H         1 28R         0.0116
     53 H20        -5.6532   11.7000   11.7518 H         1 28R         0.0116
     54 H21        -5.2509   12.0798   13.4608 H         1 28R         0.0116
     55 H22       -13.3976    6.1138   15.2571 H         1 28R         0.1326
     56 H23       -11.8907    7.8588   15.9657 H         1 28R         0.0817
     57 H24       -13.1347    8.5054   14.8427 H         1 28R         0.0817
     58 H25       -10.8892    9.4609   14.3722 H         1 28R         0.0897
@<TRIPOS>BOND
     1    1    2 ar 
     2    1    6 ar 
     3    1   27 1  
     4    2    3 ar 
     5    3    4 ar 
     6    3   23 1  
     7    4    5 ar 
     8    4   21 1  
     9    5    6 ar 
    10    5    7 1  
    11    7    8 2  
    12    7   11 1  
    13    8    9 1  
    14    9   10 ar 
    15    9   15 ar 
    16   10   11 1  
    17   10   12 ar 
    18   12   13 ar 
    19   13   14 ar 
    20   14   15 ar 
    21   14   16 1  
    22   16   17 am 
    23   17   18 2  
    24   17   19 2  
    25   17   20 1  
    26   21   22 1  
    27   23   24 1  
    28   23   25 1  
    29   23   26 1  
    30   27   28 1  
    31   27   33 2  
    32   28   29 2  
    33   28   30 1  
    34   30   31 2  
    35   31   32 1  
    36   32   33 1  
    37    2   34 1  
    38    6   35 1  
    39   12   36 1  
    40   13   37 1  
    41   15   38 1  
    42   16   39 1  
    43   20   40 1  
    44   20   41 1  
    45   20   42 1  
    46   22   43 1  
    47   22   44 1  
    48   22   45 1  
    49   24   46 1  
    50   24   47 1  
    51   24   48 1  
    52   25   49 1  
    53   25   50 1  
    54   25   51 1  
    55   26   52 1  
    56   26   53 1  
    57   26   54 1  
    58   31   55 1  
    59   32   56 1  
    60   32   57 1  
    61   33   58 1  
@<TRIPOS>SUBSTRUCTURE
     1 28R         1

