### 
### Created by X-TOOL on Mon Sep 10 21:13:13 2018
### 

@<TRIPOS>MOLECULE
4mka_ligand
   61    64     1     0     0
SMALL
GAST_HUCK


@<TRIPOS>ATOM
      1 N1        -10.1590    9.6890    2.5600 N.am      1 2AY        -0.1916
      2 S2        -10.5670    8.4510    1.5850 S.o2      1 2AY         0.0574
      3 O3        -10.3440    8.9040    0.2470 O.2       1 2AY        -0.1500
      4 O4         -9.8700    7.2880    2.0470 O.2       1 2AY        -0.1500
      5 C5        -12.2850    8.1970    1.7930 C.3       1 2AY         0.0789
      6 C6         -9.7620    9.7090    3.9400 C.ar      1 2AY         0.0655
      7 C7         -9.1230   10.8600    4.3830 C.ar      1 2AY        -0.0431
      8 C8         -8.7060   10.9660    5.6970 C.ar      1 2AY        -0.0700
      9 C9         -8.9160    9.9290    6.6120 C.ar      1 2AY        -0.0357
     10 C10        -8.5030   10.0220    7.9900 C.2       1 2AY        -0.0360
     11 C11        -8.7180    9.0260    8.8540 C.2       1 2AY         0.1376
     12 O12        -9.3290    7.8440    8.4340 O.3       1 2AY        -0.2106
     13 C13        -9.7840    7.6430    7.1180 C.2       1 2AY         0.2727
     14 O14       -10.2990    6.5690    6.8780 O.2       1 2AY        -0.3676
     15 C15        -9.5660    8.7520    6.1700 C.ar      1 2AY         0.0490
     16 C16        -9.9910    8.6590    4.8330 C.ar      1 2AY        -0.0284
     17 C17        -8.5570    9.0410   10.3220 C.ar      1 2AY         0.0849
     18 C18        -7.4530    9.6110   10.9910 C.ar      1 2AY         0.1421
     19 C19        -7.3730    9.6600   12.4150 C.ar      1 2AY        -0.0188
     20 C20        -8.4440    9.1150   13.1270 C.ar      1 2AY        -0.0463
     21 C21        -9.5350    8.5400   12.4830 C.ar      1 2AY        -0.0032
     22 C22        -9.5850    8.5160   11.0950 C.ar      1 2AY        -0.0249
     23 C23       -10.6280    7.9120   13.2680 C.2       1 2AY         0.0445
     24 C24       -11.0580    6.5780   12.8700 C.2       1 2AY         0.1749
     25 O25       -10.5900    5.9340   11.9270 O.2       1 2AY        -0.3932
     26 N26       -12.1240    6.0730   13.6180 N.2       1 2AY        -0.2506
     27 C28       -12.7490    6.7400   14.6240 C.2       1 2AY         0.0405
     28 C29       -12.3540    7.9880   14.9770 C.3       1 2AY         0.0524
     29 C30       -11.2690    8.5790   14.2870 C.2       1 2AY        -0.0245
     30 C31        -6.1780   10.2430   13.2240 C.3       1 2AY        -0.0538
     31 C32        -6.5230   10.3950   14.7150 C.3       1 2AY        -0.0908
     32 C33        -4.9340    9.3280   13.1580 C.3       1 2AY        -0.0908
     33 C34        -5.7800   11.6370   12.7340 C.3       1 2AY        -0.0908
     34 O35        -6.4430   10.1970   10.2520 O.3       1 2AY        -0.2878
     35 C36        -5.4240    9.3510    9.7270 C.3       1 2AY         0.0724
     36 H1        -10.1901   10.5884    2.1240 H         1 2AY         0.2163
     37 H2        -12.6130    7.3656    1.1517 H         1 2AY         0.0488
     38 H3        -12.8275    9.1120    1.5131 H         1 2AY         0.0488
     39 H4        -12.4950    7.9535    2.8449 H         1 2AY         0.0488
     40 H5         -8.9503   11.6796    3.6948 H         1 2AY         0.0524
     41 H6         -8.2065   11.8706    6.0246 H         1 2AY         0.0550
     42 H7         -8.0036   10.9261    8.3351 H         1 2AY         0.0390
     43 H8        -10.5007    7.7651    4.4921 H         1 2AY         0.0521
     44 H9         -8.4246    9.1407   14.2105 H         1 2AY         0.0734
     45 H10       -10.4460    8.0775   10.6037 H         1 2AY         0.0801
     46 H11       -13.5757    6.2670   15.1520 H         1 2AY         0.1326
     47 H12       -12.0791    7.9514   16.0415 H         1 2AY         0.0817
     48 H13       -13.2214    8.6514   14.8448 H         1 2AY         0.0817
     49 H14       -10.9360    9.5774   14.5667 H         1 2AY         0.0898
     50 H15        -5.6563   10.8085   15.2516 H         1 2AY         0.0115
     51 H16        -6.7784    9.4107   15.1345 H         1 2AY         0.0115
     52 H17        -7.3809   11.0745   14.8255 H         1 2AY         0.0115
     53 H18        -4.6404    9.1836   12.1078 H         1 2AY         0.0115
     54 H19        -5.1712    8.3535   13.6097 H         1 2AY         0.0115
     55 H20        -4.1051    9.7958   13.7094 H         1 2AY         0.0115
     56 H21        -6.6544   12.3032   12.7740 H         1 2AY         0.0115
     57 H22        -5.4161   11.5715   11.6980 H         1 2AY         0.0115
     58 H23        -4.9835   12.0384   13.3778 H         1 2AY         0.0115
     59 H24        -4.6969    9.9571    9.1667 H         1 2AY         0.0606
     60 H25        -5.8757    8.6064    9.0551 H         1 2AY         0.0606
     61 H26        -4.9126    8.8364   10.5538 H         1 2AY         0.0606
@<TRIPOS>BOND
     1    1    2 am 
     2    1    6 1  
     3    2    3 2  
     4    2    4 2  
     5    2    5 1  
     6    6    7 ar 
     7    6   16 ar 
     8    7    8 ar 
     9    8    9 ar 
    10    9   10 1  
    11    9   15 ar 
    12   10   11 2  
    13   11   12 1  
    14   11   17 1  
    15   12   13 1  
    16   13   14 2  
    17   13   15 1  
    18   15   16 ar 
    19   17   18 ar 
    20   17   22 ar 
    21   18   19 ar 
    22   18   34 1  
    23   19   20 ar 
    24   19   30 1  
    25   20   21 ar 
    26   21   22 ar 
    27   21   23 1  
    28   23   24 1  
    29   23   29 2  
    30   24   25 2  
    31   24   26 1  
    32   26   27 2  
    33   27   28 1  
    34   28   29 1  
    35   30   31 1  
    36   30   32 1  
    37   30   33 1  
    38   34   35 1  
    39    1   36 1  
    40    5   37 1  
    41    5   38 1  
    42    5   39 1  
    43    7   40 1  
    44    8   41 1  
    45   10   42 1  
    46   16   43 1  
    47   20   44 1  
    48   22   45 1  
    49   27   46 1  
    50   28   47 1  
    51   28   48 1  
    52   29   49 1  
    53   31   50 1  
    54   31   51 1  
    55   31   52 1  
    56   32   53 1  
    57   32   54 1  
    58   32   55 1  
    59   33   56 1  
    60   33   57 1  
    61   33   58 1  
    62   35   59 1  
    63   35   60 1  
    64   35   61 1  
@<TRIPOS>SUBSTRUCTURE
     1 2AY         1

