### 
### Created by X-TOOL on Mon Sep 10 21:13:17 2018
### 

@<TRIPOS>MOLECULE
4mlt_ligand
   17    17     1     0     0
SMALL
GAST_HUCK


@<TRIPOS>ATOM
      1 C6         17.1480    3.6130   13.0310 C.3       1 TM4        -0.0178
      2 C1         16.3100    3.3080   14.2400 C.3       1 TM4         0.1494
      3 O1         15.5720    4.3140   14.7430 O.3       1 TM4        -0.3142
      4 C5         14.8390    4.0510   15.8140 C.2       1 TM4         0.0426
      5 C4         14.7780    2.8630   16.4170 C.2       1 TM4        -0.0488
      6 C3         15.5260    1.7810   15.9380 C.3       1 TM4         0.0899
      7 S1         15.4870    0.2390   16.6670 S.3       1 TM4        -0.1471
      8 C2         16.3380    2.0410   14.7750 C.2       1 TM4         0.1556
      9 O2         17.0480    1.0980   14.2750 O.2       1 TM4        -0.3855
     10 H1         17.6958    2.7088   12.7270 H         1 TM4         0.0284
     11 H2         17.8645    4.4116   13.2735 H         1 TM4         0.0284
     12 H3         16.4973    3.9418   12.2073 H         1 TM4         0.0284
     13 H4         15.4661    3.0095   13.6007 H         1 TM4         0.0883
     14 H5         14.2441    4.8619   16.2318 H         1 TM4         0.0865
     15 H6         14.1403    2.7334   17.2902 H         1 TM4         0.0365
     16 H7         16.3614    2.0569   16.5983 H         1 TM4         0.0729
     17 H8         16.0970   -0.3853   16.1627 H         1 TM4         0.1064
@<TRIPOS>BOND
     1    1    2 1  
     2    2    3 1  
     3    2    8 1  
     4    3    4 1  
     5    4    5 2  
     6    5    6 1  
     7    6    7 1  
     8    6    8 1  
     9    8    9 2  
    10    1   10 1  
    11    1   11 1  
    12    1   12 1  
    13    2   13 1  
    14    4   14 1  
    15    5   15 1  
    16    6   16 1  
    17    7   17 1  
@<TRIPOS>SUBSTRUCTURE
     1 TM4         1

