### 
### Created by X-TOOL on Mon Sep 10 21:13:16 2018
### 

@<TRIPOS>MOLECULE
4mlx_ligand
   17    17     1     0     0
SMALL
GAST_HUCK


@<TRIPOS>ATOM
      1 S          14.2950    0.4030   16.8530 S.3       1 TM7        -0.1297
      2 O2         16.2840   -0.5490   14.8420 O.2       1 TM7        -0.3880
      3 O1         16.6510    2.9010   13.9160 O.3       1 TM7        -0.3458
      4 C1         16.7930    1.5440   13.9700 C.3       1 TM7         0.1222
      5 C2         16.1030    0.7470   14.8400 C.2       1 TM7         0.1508
      6 C3         15.1880    1.3460   15.7400 C.2       1 TM7         0.0566
      7 C4         15.0410    2.7260   15.6880 C.2       1 TM7        -0.0295
      8 C5         15.7630    3.4550   14.7950 C.3       1 TM7         0.0881
      9 C6         15.5760    4.9240   14.7720 C.3       1 TM7        -0.0280
     10 H1         13.7270   -0.2604   16.3497 H         1 TM7         0.1170
     11 H2         17.8581    1.3612   14.1752 H         1 TM7         0.0782
     12 H3         16.5449    1.1756   12.9637 H         1 TM7         0.0782
     13 H4         14.3470    3.2249   16.3628 H         1 TM7         0.0684
     14 H5         16.5688    3.5550   15.5371 H         1 TM7         0.0773
     15 H6         14.8349    5.2112   15.5325 H         1 TM7         0.0280
     16 H7         15.2199    5.2328   13.7781 H         1 TM7         0.0280
     17 H8         16.5342    5.4191   14.9884 H         1 TM7         0.0280
@<TRIPOS>BOND
     1    6    1 1  
     2    5    2 2  
     3    4    3 1  
     4    3    8 1  
     5    5    4 1  
     6    5    6 1  
     7    6    7 2  
     8    7    8 1  
     9    8    9 1  
    10    1   10 1  
    11    4   11 1  
    12    4   12 1  
    13    7   13 1  
    14    8   14 1  
    15    9   15 1  
    16    9   16 1  
    17    9   17 1  
@<TRIPOS>SUBSTRUCTURE
     1 TM7         1

