### 
### Created by X-TOOL on Mon Sep 10 21:13:15 2018
### 

@<TRIPOS>MOLECULE
4mm4_ligand
   45    48     1     0     0
SMALL
GAST_HUCK


@<TRIPOS>ATOM
      1 FAA       116.6140  -21.7660  101.9500 F         1 8PR        -0.1893
      2 CAB       115.7990  -20.5280  103.8720 C.ar      1 8PR        -0.0349
      3 CAC       117.9530  -19.8990  102.7580 C.ar      1 8PR        -0.0349
      4 CAD       113.8460  -14.5330  103.1320 C.ar      1 8PR        -0.0530
      5 CAE       115.9780  -19.4760  104.8040 C.ar      1 8PR        -0.0617
      6 CAF       118.1250  -18.8810  103.6690 C.ar      1 8PR        -0.0617
      7 CAG       112.9290  -14.0390  102.1780 C.ar      1 8PR        -0.0497
      8 CAH       112.0360  -15.2380  104.5580 C.ar      1 8PR        -0.0128
      9 CAI       118.3430  -16.7200  107.9760 C.3       1 8PR        -0.0316
     10 CAJ       118.2030  -17.8080  106.9440 C.3       1 8PR        -0.0000
     11 CAK       116.4390  -15.5430  107.0250 C.3       1 8PR        -0.0263
     12 CAL       109.3170  -14.1080  102.4300 C.3       1 8PR         0.1845
     13 CAM       115.4360  -16.2520  104.8560 C.3       1 8PR         0.0774
     14 NAN       117.0500  -16.0420  108.2600 N.4       1 8PR         0.2275
     15 OAO       114.2280  -15.6420  105.3070 O.3       1 8PR        -0.3272
     16 OAP       110.4540  -13.7600  101.6990 O.3       1 8PR        -0.2984
     17 OAQ       109.6650  -14.6940  103.5530 O.3       1 8PR        -0.2937
     18 CAR       116.7740  -20.7590  102.8440 C.ar      1 8PR         0.1248
     19 CAS       113.3550  -15.1450  104.3330 C.ar      1 8PR         0.0712
     20 CAT       117.1470  -18.6300  104.7240 C.ar      1 8PR        -0.0431
     21 CAU       111.5860  -14.1420  102.4110 C.ar      1 8PR         0.1117
     22 CAV       111.1090  -14.7390  103.6020 C.ar      1 8PR         0.1152
     23 CAW       116.1560  -16.7120  106.1100 C.3       1 8PR         0.0386
     24 CAX       117.4170  -17.4000  105.7500 C.3       1 8PR         0.0057
     25 H1        114.9216  -21.1615  103.9355 H         1 8PR         0.0587
     26 H2        118.6895  -20.0622  101.9795 H         1 8PR         0.0587
     27 H3        114.9127  -14.4503  102.9580 H         1 8PR         0.0422
     28 H4        115.2378  -19.3056  105.5774 H         1 8PR         0.0547
     29 H5        119.0055  -18.2523  103.6016 H         1 8PR         0.0547
     30 H6        113.2889  -13.5799  101.2644 H         1 8PR         0.0483
     31 H7        111.6752  -15.6953  105.4722 H         1 8PR         0.0436
     32 H8        119.0608  -15.9726  107.6070 H         1 8PR         0.0815
     33 H9        118.7222  -17.1635  108.9085 H         1 8PR         0.0815
     34 H10       117.7025  -18.6685  107.4120 H         1 8PR         0.0341
     35 H11       119.2092  -18.1045  106.6129 H         1 8PR         0.0341
     36 H12       117.1283  -14.8443  106.5284 H         1 8PR         0.0819
     37 H13       115.4986  -15.0240  107.2621 H         1 8PR         0.0819
     38 H14       108.6993  -14.7975  101.8359 H         1 8PR         0.0969
     39 H15       108.7385  -13.2004  102.6572 H         1 8PR         0.0969
     40 H16       116.0508  -15.5247  104.3056 H         1 8PR         0.0616
     41 H17       115.2127  -17.1103  104.2052 H         1 8PR         0.0616
     42 H18       117.2136  -15.2672  108.8837 H         1 8PR         0.2014
     43 H19       116.4221  -16.6984  108.6970 H         1 8PR         0.2014
     44 H20       115.5083  -17.4233  106.6434 H         1 8PR         0.0403
     45 H21       118.0330  -16.6673  105.2080 H         1 8PR         0.0461
@<TRIPOS>BOND
     1   18    1 1  
     2    5    2 ar 
     3    2   18 ar 
     4    6    3 ar 
     5    3   18 ar 
     6    4    7 ar 
     7   19    4 ar 
     8   20    5 ar 
     9   20    6 ar 
    10    7   21 ar 
    11   19    8 ar 
    12    8   22 ar 
    13   10    9 1  
    14    9   14 1  
    15   24   10 1  
    16   14   11 1  
    17   11   23 1  
    18   12   16 1  
    19   17   12 1  
    20   13   15 1  
    21   23   13 1  
    22   15   19 1  
    23   21   16 1  
    24   22   17 1  
    25   20   24 1  
    26   21   22 ar 
    27   23   24 1  
    28    2   25 1  
    29    3   26 1  
    30    4   27 1  
    31    5   28 1  
    32    6   29 1  
    33    7   30 1  
    34    8   31 1  
    35    9   32 1  
    36    9   33 1  
    37   10   34 1  
    38   10   35 1  
    39   11   36 1  
    40   11   37 1  
    41   12   38 1  
    42   12   39 1  
    43   13   40 1  
    44   13   41 1  
    45   14   42 1  
    46   14   43 1  
    47   23   44 1  
    48   24   45 1  
@<TRIPOS>SUBSTRUCTURE
     1 8PR         1

